0:0:0
     RDKit          3D

 79 86  0  0  1  0  0  0  0  0999 V2000
    5.8384   -3.6196    5.9606 C   0  0  0  0  0  0  0  0  0  0  0  0
    5.3626   -3.3127    4.5524 C   0  0  0  0  0  0  0  0  0  0  0  0
    5.3247   -4.3109    3.5942 C   0  0  0  0  0  0  0  0  0  0  0  0
    4.8640   -5.7326    3.9370 C   0  0  0  0  0  0  0  0  0  0  0  0
    3.2786   -6.0008    3.9422 C   0  0  2  0  0  0  0  0  0  0  0  0
    2.9484   -7.4856    4.4758 C   0  0  2  0  0  0  0  0  0  0  0  0
    2.7036   -7.3168    6.0018 C   0  0  0  0  0  0  0  0  0  0  0  0
    4.1442   -8.4663    4.2778 C   0  0  0  0  0  0  0  0  0  0  0  0
    3.8868   -9.9226    4.6685 C   0  0  0  0  0  0  0  0  0  0  0  0
    4.7420  -10.5767    5.2707 O   0  0  0  0  0  0  0  0  0  0  0  0
    2.5342  -10.5436    4.2758 C   0  0  0  0  0  0  0  0  0  0  0  0
    2.4492  -11.7543    4.0650 O   0  0  0  0  0  0  0  0  0  0  0  0
    1.3034   -9.6155    4.1905 C   0  0  0  0  0  0  0  0  0  0  0  0
    0.2915  -10.2432    3.1926 C   0  0  0  0  0  0  0  0  0  0  0  0
    0.6031   -9.6443    5.5739 C   0  0  0  0  0  0  0  0  0  0  0  0
    1.6985   -8.1444    3.7571 C   0  0  2  0  0  0  0  0  0  0  0  0
    1.8038   -8.0038    2.2020 C   0  0  0  0  0  0  0  0  0  0  0  0
    2.5270   -6.7417    1.6885 C   0  0  0  0  0  0  0  0  0  0  0  0
    2.4264   -5.5356    2.6583 C   0  0  1  0  0  0  0  0  0  0  0  0
    1.0255   -5.4559    2.8625 O   0  0  0  0  0  0  0  0  0  0  0  0
    2.8072   -4.0850    2.1270 C   0  0  2  0  0  0  0  0  0  0  0  0
    3.1568   -3.6257    0.8037 O   0  0  0  0  0  0  0  0  0  0  0  0
    4.1369   -4.4478    1.3732 C   0  0  1  0  0  0  0  0  0  0  0  0
    5.4371   -4.1195    2.0797 C   0  0  0  0  0  0  0  0  0  0  0  0
    2.4929   -2.7769    3.0183 C   0  0  2  0  0  0  0  0  0  0  0  0
    1.7121   -3.1668    4.3295 C   0  0  0  0  0  0  0  0  0  0  0  0
    1.4800   -2.3150    5.3438 C   0  0  0  0  0  0  0  0  0  0  0  0
    2.6097   -1.8080    6.2244 C   0  0  1  0  0  0  0  0  0  0  0  0
    3.1739   -2.8121    6.9212 O   0  0  0  0  0  0  0  0  0  0  0  0
    3.6542   -1.1798    5.3439 N   0  0  2  0  0  0  0  0  0  0  0  0
    2.8851   -0.0221    4.6362 C   0  0  0  0  0  0  0  0  0  0  0  0
    1.5388   -0.4549    3.8217 C   0  0  1  0  0  0  0  0  0  0  0  0
    0.8673    0.8300    3.2783 C   0  0  0  0  0  0  0  0  0  0  0  0
    1.6332   -1.5324    2.5958 C   0  0  0  0  0  0  0  0  0  0  0  0
    0.6583   -1.1013    4.9207 C   0  0  1  0  0  0  0  0  0  0  0  0
   -0.6448   -1.4613    4.4797 O   0  0  0  0  0  0  0  0  0  0  0  0
    4.4882   -2.0269    4.3528 C   0  0  1  0  0  0  0  0  0  0  0  0
    3.8202   -1.9455    3.0360 C   0  0  0  0  0  0  0  0  0  0  0  0
    5.9537   -2.7100    6.5531 H   0  0  0  0  0  0  0  0  0  0  0  0
    6.8182   -4.1007    5.9195 H   0  0  0  0  0  0  0  0  0  0  0  0
    5.1686   -4.3038    6.4806 H   0  0  0  0  0  0  0  0  0  0  0  0
    5.3698   -6.4072    3.2402 H   0  0  0  0  0  0  0  0  0  0  0  0
    5.2692   -5.9880    4.9137 H   0  0  0  0  0  0  0  0  0  0  0  0
    2.9459   -5.3239    4.7211 H   0  0  0  0  0  0  0  0  0  0  0  0
    2.8177   -8.2380    6.5653 H   0  0  0  0  0  0  0  0  0  0  0  0
    1.7097   -6.9160    6.2052 H   0  0  0  0  0  0  0  0  0  0  0  0
    3.4234   -6.6305    6.4511 H   0  0  0  0  0  0  0  0  0  0  0  0
    4.4542   -8.4908    3.2366 H   0  0  0  0  0  0  0  0  0  0  0  0
    5.0021   -8.1533    4.8650 H   0  0  0  0  0  0  0  0  0  0  0  0
   -0.5845   -9.6109    3.0462 H   0  0  0  0  0  0  0  0  0  0  0  0
   -0.0696  -11.2062    3.5554 H   0  0  0  0  0  0  0  0  0  0  0  0
    0.7280  -10.4459    2.2122 H   0  0  0  0  0  0  0  0  0  0  0  0
   -0.0824   -8.8069    5.6983 H   0  0  0  0  0  0  0  0  0  0  0  0
    1.2885   -9.6513    6.4179 H   0  0  0  0  0  0  0  0  0  0  0  0
    0.0106  -10.5509    5.7071 H   0  0  0  0  0  0  0  0  0  0  0  0
    0.8338   -7.5524    4.0574 H   0  0  0  0  0  0  0  0  0  0  0  0
    2.2785   -8.8764    1.7528 H   0  0  0  0  0  0  0  0  0  0  0  0
    0.7930   -7.9805    1.7972 H   0  0  0  0  0  0  0  0  0  0  0  0
    3.5703   -7.0437    1.6009 H   0  0  0  0  0  0  0  0  0  0  0  0
    2.1856   -6.4876    0.6830 H   0  0  0  0  0  0  0  0  0  0  0  0
    0.8780   -4.8569    3.5765 H   0  0  0  0  0  0  0  0  0  0  0  0
    4.2649   -5.2931    0.7099 H   0  0  0  0  0  0  0  0  0  0  0  0
    5.9269   -3.2089    1.7328 H   0  0  0  0  0  0  0  0  0  0  0  0
    6.1598   -4.8672    1.7409 H   0  0  0  0  0  0  0  0  0  0  0  0
    0.7361   -3.4228    3.9483 H   0  0  0  0  0  0  0  0  0  0  0  0
    2.2128   -1.0124    6.8308 H   0  0  0  0  0  0  0  0  0  0  0  0
    2.5893    0.6549    5.4338 H   0  0  0  0  0  0  0  0  0  0  0  0
    3.5737    0.5822    4.0539 H   0  0  0  0  0  0  0  0  0  0  0  0
   -0.0788    0.6128    2.7786 H   0  0  0  0  0  0  0  0  0  0  0  0
    1.5005    1.3299    2.5432 H   0  0  0  0  0  0  0  0  0  0  0  0
    0.6538    1.5521    4.0677 H   0  0  0  0  0  0  0  0  0  0  0  0
    1.9980   -1.0588    1.6808 H   0  0  0  0  0  0  0  0  0  0  0  0
    0.6354   -1.8572    2.3026 H   0  0  0  0  0  0  0  0  0  0  0  0
    0.5033   -0.4179    5.7511 H   0  0  0  0  0  0  0  0  0  0  0  0
   -0.5726   -1.7970    3.6029 H   0  0  0  0  0  0  0  0  0  0  0  0
    3.9593   -2.8653    4.7465 H   0  0  0  0  0  0  0  0  0  0  0  0
    4.4234   -2.0643    2.1782 H   0  0  0  0  0  0  0  0  0  0  0  0
    3.7890   -0.9137    2.7017 H   0  0  0  0  0  0  0  0  0  0  0  0
    4.3210   -0.7737    5.9872 H   0  0  0  0  0  0  0  0  0  0  0  0
  1  2  1  0
  1 39  1  0
  1 40  1  0
  1 41  1  0
  2 37  1  0
  2  3  2  3
  3 24  1  0
  3  4  1  0
  4  5  1  0
  4 42  1  0
  4 43  1  0
  5 19  1  0
  5  6  1  0
  5 44  1  1
  6 16  1  0
  6  7  1  1
  6  8  1  0
  7 45  1  0
  7 46  1  0
  7 47  1  0
  8  9  1  0
  8 48  1  0
  8 49  1  0
  9 10  2  0
  9 11  1  0
 11 12  2  0
 11 13  1  0
 13 14  1  0
 13 15  1  0
 13 16  1  0
 14 50  1  0
 14 51  1  0
 14 52  1  0
 15 53  1  0
 15 54  1  0
 15 55  1  0
 16 17  1  0
 16 56  1  1
 17 18  1  0
 17 57  1  0
 17 58  1  0
 18 19  1  0
 18 59  1  0
 18 60  1  0
 19 20  1  1
 19 21  1  0
 20 61  1  0
 21 23  1  0
 21 22  1  6
 21 25  1  0
 22 23  1  0
 23 24  1  0
 23 62  1  6
 24 63  1  0
 24 64  1  0
 25 34  1  6
 25 38  1  0
 25 26  1  0
 26 27  2  0
 26 65  1  0
 27 35  1  0
 27 28  1  0
 28 29  1  0
 28 30  1  0
 28 66  1  1
 30 31  1  0
 30 37  1  0
 30 79  1  1
 31 32  1  0
 31 67  1  0
 31 68  1  0
 32 33  1  6
 32 34  1  0
 32 35  1  0
 33 69  1  0
 33 70  1  0
 33 71  1  0
 34 72  1  0
 34 73  1  0
 35 36  1  0
 35 74  1  1
 36 75  1  0
 37 38  1  0
 37 76  1  6
 38 77  1  0
 38 78  1  0
M  CHG  2  29  -1  30   1
M  END
>  <i_m_ct_stereo_status>  (1) 
1

>  <s_m_source_file>  (1) 
/var/tmp/pbs.5076255.sched01/tmpfev35gxg/05fxellcm.sdf

>  <i_m_source_file_index>  (1) 
1

>  <i_lp_mmshare_version>  (1) 
48012

>  <i_f3d_flags>  (1) 
0

>  <s_epik_input>  (1) 
W0NAXTEyM1tDQF00NVtDSF09QzZbQ0BASF0oW09IXSlOKFtDSDJdW0NAQF0oW0NIM10pKFtDSDJdNClbQ0BIXTZbT0hdKVtDQEBIXShbQ0gyXTUpQyhcW0NIM10pPUMoW0NIMl1bQ0BASF0zTzIpL1tDSDJdW0NAQEhdN1tDQEBdOChbQ0gzXSlbQ0BIXShDKFtDSDNdKShbQ0gzXSlDKD1PKUMoPU8pW0NIMl04KVtDSDJdW0NIMl1bQ0BdMTdbT0hd

>  <s_epik_cmdline>  (1) 
J2VwaWtfcHl0aG9uJywgJy1waHQnLCAnMi4wJywgJy1waCcsICc3LjAnLCAnLXRuJywgJzgnLCAnLW1hJywgJzIwMCcsICctaW1hZScsICc8aW5maWxlLm1hZT4nLCAnLW9tYWUnLCAnPG91dGZpbGUubWFlPic=

>  <r_epik_Ionization_Penalty>  (1) 
0.0752752

>  <r_epik_Ionization_Penalty_Charging>  (1) 
0.0752681

>  <r_epik_Ionization_Penalty_Neutral>  (1) 
7.06108e-06

>  <r_epik_State_Penalty>  (1) 
0.196104

>  <r_epik_Charging_Adjusted_Penalty>  (1) 
0.271372

>  <i_epik_Tot_Q>  (1) 
0

>  <i_epik_Tot_abs_Q>  (1) 
2

>  <s_epik_Chemistry_Notes>  (1) 
This compound contains an acetal/aminal-like group ( X-CH(R)-Y where X, Y are N, S, or O) that may be acid/base labile, releasing an aldehyde.

>  <s_lp_Force_Field>  (1) 
OPLS3e

>  <r_lp_Energy>  (1) 
329.438

>  <b_lp_Chiralities_Consistent>  (1) 
1

>  <s_lp_Variant>  (1) 
0:0-1

>  <s_i_glide_gridfile>  (1) 
pfpi4k_grid

>  <i_i_glide_lignum>  (1) 
1

>  <i_i_glide_rotatable_bonds>  (1) 
2

>  <r_i_docking_score>  (1) 
-2.20561

>  <r_i_glide_ligand_efficiency>  (1) 
-0.0580425

>  <r_i_glide_ligand_efficiency_sa>  (1) 
-0.195137

>  <r_i_glide_ligand_efficiency_ln>  (1) 
-0.475595

>  <r_i_glide_gscore>  (1) 
-2.20561

>  <r_i_glide_lipo>  (1) 
-0.128539

>  <r_i_glide_hbond>  (1) 
0

>  <r_i_glide_metal>  (1) 
-0

>  <r_i_glide_rewards>  (1) 
0

>  <r_i_glide_evdw>  (1) 
-27.7818

>  <r_i_glide_ecoul>  (1) 
-4.42858

>  <r_i_glide_erotb>  (1) 
0

>  <r_i_glide_esite>  (1) 
-0.023695

>  <r_i_glide_emodel>  (1) 
-37.2572

>  <r_i_glide_energy>  (1) 
-32.2104

>  <r_i_glide_einternal>  (1) 
0.238371

>  <r_i_glide_intrahb_reward>  (1) 
-0

>  <i_i_glide_confnum>  (1) 
1

>  <i_i_glide_posenum>  (1) 
32

>  <r_i_glide_eff_state_penalty>  (1) 
0

>  <ligand_id>  (1) 
0

>  <original_smiles>  (1) 
CC1=C2CC3C4(C)CC(=O)C(=O)C(C)(C)C4CCC3(O)C3(OC3C2)C23C=C4C(O)N(CC(C)(C2)C4O)C1C3

>  <smiles>  (1) 
[H]OC1([H])C2=C([H])C34C([H])([H])C1(C([H])([H])[H])C([H])([H])[N+]([H])(C2([H])[O-])C([H])(C(C([H])([H])[H])=C1C([H])([H])C2([H])OC23C2(O[H])C([H])([H])C([H])([H])C3([H])C(C([H])([H])[H])(C([H])([H])[H])C(=O)C(=O)C([H])([H])C3(C([H])([H])[H])C2([H])C1([H])[H])C4([H])[H]

$$$$
0:0:1
     RDKit          3D

 79 86  0  0  1  0  0  0  0  0999 V2000
    5.4044   -1.3277    6.0048 C   0  0  0  0  0  0  0  0  0  0  0  0
    4.3739   -2.2612    5.3934 C   0  0  0  0  0  0  0  0  0  0  0  0
    3.0694   -2.1992    5.8104 C   0  0  0  0  0  0  0  0  0  0  0  0
    2.3742   -0.8590    6.0944 C   0  0  0  0  0  0  0  0  0  0  0  0
    1.7626   -0.0682    4.8342 C   0  0  2  0  0  0  0  0  0  0  0  0
    1.2125    1.3824    5.2698 C   0  0  2  0  0  0  0  0  0  0  0  0
    2.3998    2.3544    5.0217 C   0  0  0  0  0  0  0  0  0  0  0  0
    0.8427    1.4407    6.7870 C   0  0  0  0  0  0  0  0  0  0  0  0
    0.2282    2.7486    7.2718 C   0  0  0  0  0  0  0  0  0  0  0  0
    0.5481    3.2486    8.3529 O   0  0  0  0  0  0  0  0  0  0  0  0
   -0.8288    3.4266    6.3661 C   0  0  0  0  0  0  0  0  0  0  0  0
   -1.7132    4.1207    6.8798 O   0  0  0  0  0  0  0  0  0  0  0  0
   -0.7195    3.2406    4.8391 C   0  0  0  0  0  0  0  0  0  0  0  0
   -2.1409    3.3974    4.2328 C   0  0  0  0  0  0  0  0  0  0  0  0
    0.1070    4.4218    4.2834 C   0  0  0  0  0  0  0  0  0  0  0  0
   -0.0807    1.8382    4.4744 C   0  0  2  0  0  0  0  0  0  0  0  0
   -1.1514    0.6961    4.4565 C   0  0  0  0  0  0  0  0  0  0  0  0
   -0.6004   -0.7402    4.4810 C   0  0  0  0  0  0  0  0  0  0  0  0
    0.8079   -0.8711    3.8344 C   0  0  1  0  0  0  0  0  0  0  0  0
    0.5939   -0.2495    2.5806 O   0  0  0  0  0  0  0  0  0  0  0  0
    1.3438   -2.3240    3.4415 C   0  0  2  0  0  0  0  0  0  0  0  0
    0.6950   -3.6279    3.5247 O   0  0  0  0  0  0  0  0  0  0  0  0
    0.9574   -3.0687    4.7699 C   0  0  1  0  0  0  0  0  0  0  0  0
    2.0553   -3.3421    5.7769 C   0  0  0  0  0  0  0  0  0  0  0  0
    2.6854   -2.4864    2.5623 C   0  0  2  0  0  0  0  0  0  0  0  0
    3.2219   -1.0790    2.1039 C   0  0  0  0  0  0  0  0  0  0  0  0
    4.4191   -0.8978    1.5088 C   0  0  0  0  0  0  0  0  0  0  0  0
    5.6989   -1.0759    2.3039 C   0  0  1  0  0  0  0  0  0  0  0  0
    5.7969   -0.2296    3.3048 O   0  0  0  0  0  0  0  0  0  0  0  0
    5.6876   -2.4918    2.8646 N   0  0  2  0  0  0  0  0  0  0  0  0
    5.6094   -3.4132    1.6205 C   0  0  0  0  0  0  0  0  0  0  0  0
    4.3525   -3.1367    0.6339 C   0  0  1  0  0  0  0  0  0  0  0  0
    4.4945   -4.0731   -0.5857 C   0  0  0  0  0  0  0  0  0  0  0  0
    2.8276   -3.2476    1.1973 C   0  0  0  0  0  0  0  0  0  0  0  0
    4.5630   -1.6583    0.2102 C   0  0  1  0  0  0  0  0  0  0  0  0
    3.6565   -1.2157   -0.7977 O   0  0  0  0  0  0  0  0  0  0  0  0
    4.6988   -2.8900    3.9965 C   0  0  1  0  0  0  0  0  0  0  0  0
    3.5570   -3.5342    3.3262 C   0  0  0  0  0  0  0  0  0  0  0  0
    6.4075   -1.5897    5.6938 H   0  0  0  0  0  0  0  0  0  0  0  0
    5.3770   -1.4067    7.0942 H   0  0  0  0  0  0  0  0  0  0  0  0
    5.2143   -0.2820    5.7541 H   0  0  0  0  0  0  0  0  0  0  0  0
    1.5967   -1.0559    6.8380 H   0  0  0  0  0  0  0  0  0  0  0  0
    3.0862   -0.2112    6.6017 H   0  0  0  0  0  0  0  0  0  0  0  0
    2.6474    0.1198    4.2354 H   0  0  0  0  0  0  0  0  0  0  0  0
    2.3327    3.2808    5.5840 H   0  0  0  0  0  0  0  0  0  0  0  0
    2.4976    2.6013    3.9660 H   0  0  0  0  0  0  0  0  0  0  0  0
    3.3492    1.9116    5.3351 H   0  0  0  0  0  0  0  0  0  0  0  0
    0.1273    0.6674    7.0388 H   0  0  0  0  0  0  0  0  0  0  0  0
    1.7211    1.2866    7.4037 H   0  0  0  0  0  0  0  0  0  0  0  0
   -2.1374    3.2154    3.1569 H   0  0  0  0  0  0  0  0  0  0  0  0
   -2.5409    4.4004    4.3835 H   0  0  0  0  0  0  0  0  0  0  0  0
   -2.8743    2.7283    4.6821 H   0  0  0  0  0  0  0  0  0  0  0  0
    0.4948    4.2064    3.2833 H   0  0  0  0  0  0  0  0  0  0  0  0
    0.9513    4.7019    4.9049 H   0  0  0  0  0  0  0  0  0  0  0  0
   -0.4844    5.3377    4.1914 H   0  0  0  0  0  0  0  0  0  0  0  0
    0.2360    1.9735    3.4343 H   0  0  0  0  0  0  0  0  0  0  0  0
   -1.8694    0.8071    5.2736 H   0  0  0  0  0  0  0  0  0  0  0  0
   -1.7359    0.8052    3.5442 H   0  0  0  0  0  0  0  0  0  0  0  0
   -0.5355   -0.9991    5.5373 H   0  0  0  0  0  0  0  0  0  0  0  0
   -1.3276   -1.4279    4.0490 H   0  0  0  0  0  0  0  0  0  0  0  0
    1.3859   -0.2832    2.0686 H   0  0  0  0  0  0  0  0  0  0  0  0
   -0.0043   -2.9994    5.2586 H   0  0  0  0  0  0  0  0  0  0  0  0
    2.4493   -4.3520    5.7464 H   0  0  0  0  0  0  0  0  0  0  0  0
    1.5653   -3.3434    6.7599 H   0  0  0  0  0  0  0  0  0  0  0  0
    2.5101   -0.7767    1.3556 H   0  0  0  0  0  0  0  0  0  0  0  0
    6.5159   -1.0768    1.5952 H   0  0  0  0  0  0  0  0  0  0  0  0
    6.5268   -3.2197    1.0728 H   0  0  0  0  0  0  0  0  0  0  0  0
    5.7221   -4.4402    1.9240 H   0  0  0  0  0  0  0  0  0  0  0  0
    3.7136   -3.8868   -1.3248 H   0  0  0  0  0  0  0  0  0  0  0  0
    4.4071   -5.1216   -0.2980 H   0  0  0  0  0  0  0  0  0  0  0  0
    5.4520   -3.9562   -1.1005 H   0  0  0  0  0  0  0  0  0  0  0  0
    2.5121   -4.2884    1.2646 H   0  0  0  0  0  0  0  0  0  0  0  0
    2.1334   -2.8325    0.4702 H   0  0  0  0  0  0  0  0  0  0  0  0
    5.5485   -1.5192   -0.2263 H   0  0  0  0  0  0  0  0  0  0  0  0
    2.7608   -1.2609   -0.4751 H   0  0  0  0  0  0  0  0  0  0  0  0
    4.3614   -1.8814    3.9470 H   0  0  0  0  0  0  0  0  0  0  0  0
    3.0159   -4.2383    3.8916 H   0  0  0  0  0  0  0  0  0  0  0  0
    3.8901   -4.4194    2.7904 H   0  0  0  0  0  0  0  0  0  0  0  0
    6.6114   -2.5863    3.2776 H   0  0  0  0  0  0  0  0  0  0  0  0
  1  2  1  0
  1 39  1  0
  1 40  1  0
  1 41  1  0
  2 37  1  0
  2  3  2  3
  3 24  1  0
  3  4  1  0
  4  5  1  0
  4 42  1  0
  4 43  1  0
  5 19  1  0
  5  6  1  0
  5 44  1  6
  6 16  1  0
  6  7  1  1
  6  8  1  0
  7 45  1  0
  7 46  1  0
  7 47  1  0
  8  9  1  0
  8 48  1  0
  8 49  1  0
  9 10  2  0
  9 11  1  0
 11 12  2  0
 11 13  1  0
 13 14  1  0
 13 15  1  0
 13 16  1  0
 14 50  1  0
 14 51  1  0
 14 52  1  0
 15 53  1  0
 15 54  1  0
 15 55  1  0
 16 17  1  0
 16 56  1  6
 17 18  1  0
 17 57  1  0
 17 58  1  0
 18 19  1  0
 18 59  1  0
 18 60  1  0
 19 20  1  6
 19 21  1  0
 20 61  1  0
 21 23  1  0
 21 22  1  6
 21 25  1  0
 22 23  1  0
 23 24  1  0
 23 62  1  1
 24 63  1  0
 24 64  1  0
 25 34  1  6
 25 38  1  0
 25 26  1  0
 26 27  2  0
 26 65  1  0
 27 35  1  0
 27 28  1  0
 28 29  1  0
 28 30  1  0
 28 66  1  6
 30 31  1  0
 30 37  1  0
 30 79  1  1
 31 32  1  0
 31 67  1  0
 31 68  1  0
 32 33  1  6
 32 34  1  0
 32 35  1  0
 33 69  1  0
 33 70  1  0
 33 71  1  0
 34 72  1  0
 34 73  1  0
 35 36  1  0
 35 74  1  6
 36 75  1  0
 37 38  1  0
 37 76  1  1
 38 77  1  0
 38 78  1  0
M  CHG  2  29  -1  30   1
M  END
>  <i_m_ct_stereo_status>  (2) 
1

>  <s_m_source_file>  (2) 
/var/tmp/pbs.5076255.sched01/tmpfev35gxg/05fxellcm.sdf

>  <i_m_source_file_index>  (2) 
1

>  <i_lp_mmshare_version>  (2) 
48012

>  <i_f3d_flags>  (2) 
0

>  <s_epik_input>  (2) 
W0NAXTEyM1tDQF00NVtDSF09QzZbQ0BASF0oW09IXSlOKFtDSDJdW0NAQF0oW0NIM10pKFtDSDJdNClbQ0BIXTZbT0hdKVtDQEBIXShbQ0gyXTUpQyhcW0NIM10pPUMoW0NIMl1bQ0BASF0zTzIpL1tDSDJdW0NAQEhdN1tDQEBdOChbQ0gzXSlbQ0BIXShDKFtDSDNdKShbQ0gzXSlDKD1PKUMoPU8pW0NIMl04KVtDSDJdW0NIMl1bQ0BdMTdbT0hd

>  <s_epik_cmdline>  (2) 
J2VwaWtfcHl0aG9uJywgJy1waHQnLCAnMi4wJywgJy1waCcsICc3LjAnLCAnLXRuJywgJzgnLCAnLW1hJywgJzIwMCcsICctaW1hZScsICc8aW5maWxlLm1hZT4nLCAnLW9tYWUnLCAnPG91dGZpbGUubWFlPic=

>  <r_epik_Ionization_Penalty>  (2) 
0.0752752

>  <r_epik_Ionization_Penalty_Charging>  (2) 
0.0752681

>  <r_epik_Ionization_Penalty_Neutral>  (2) 
7.06108e-06

>  <r_epik_State_Penalty>  (2) 
0.196104

>  <r_epik_Charging_Adjusted_Penalty>  (2) 
0.271372

>  <i_epik_Tot_Q>  (2) 
0

>  <i_epik_Tot_abs_Q>  (2) 
2

>  <s_epik_Chemistry_Notes>  (2) 
This compound contains an acetal/aminal-like group ( X-CH(R)-Y where X, Y are N, S, or O) that may be acid/base labile, releasing an aldehyde.

>  <s_lp_Force_Field>  (2) 
OPLS3e

>  <r_lp_Energy>  (2) 
329.438

>  <b_lp_Chiralities_Consistent>  (2) 
1

>  <s_lp_Variant>  (2) 
0:0-1

>  <s_i_glide_gridfile>  (2) 
pfpi4k_grid

>  <i_i_glide_lignum>  (2) 
1

>  <i_i_glide_rotatable_bonds>  (2) 
2

>  <r_i_docking_score>  (2) 
-2.08981

>  <r_i_glide_ligand_efficiency>  (2) 
-0.0549949

>  <r_i_glide_ligand_efficiency_sa>  (2) 
-0.184891

>  <r_i_glide_ligand_efficiency_ln>  (2) 
-0.450623

>  <r_i_glide_gscore>  (2) 
-2.08981

>  <r_i_glide_lipo>  (2) 
-0.250347

>  <r_i_glide_hbond>  (2) 
-0.138783

>  <r_i_glide_metal>  (2) 
-0

>  <r_i_glide_rewards>  (2) 
-0.146198

>  <r_i_glide_evdw>  (2) 
-27.8146

>  <r_i_glide_ecoul>  (2) 
-1.09068

>  <r_i_glide_erotb>  (2) 
0

>  <r_i_glide_esite>  (2) 
-0.00014417

>  <r_i_glide_emodel>  (2) 
-33.6625

>  <r_i_glide_energy>  (2) 
-28.9053

>  <r_i_glide_einternal>  (2) 
0.0202527

>  <r_i_glide_intrahb_reward>  (2) 
-0

>  <i_i_glide_confnum>  (2) 
2

>  <i_i_glide_posenum>  (2) 
7

>  <r_i_glide_eff_state_penalty>  (2) 
0

>  <ligand_id>  (2) 
0

>  <original_smiles>  (2) 
CC1=C2CC3C4(C)CC(=O)C(=O)C(C)(C)C4CCC3(O)C3(OC3C2)C23C=C4C(O)N(CC(C)(C2)C4O)C1C3

>  <smiles>  (2) 
[H]OC1([H])C2=C([H])C34C([H])([H])C1(C([H])([H])[H])C([H])([H])[N+]([H])(C2([H])[O-])C([H])(C(C([H])([H])[H])=C1C([H])([H])C2([H])OC23C2(O[H])C([H])([H])C([H])([H])C3([H])C(C([H])([H])[H])(C([H])([H])[H])C(=O)C(=O)C([H])([H])C3(C([H])([H])[H])C2([H])C1([H])[H])C4([H])[H]

$$$$
0:0:2
     RDKit          3D

 79 86  0  0  1  0  0  0  0  0999 V2000
    5.7102   -3.5855    6.0830 C   0  0  0  0  0  0  0  0  0  0  0  0
    5.1738   -3.2398    4.7039 C   0  0  0  0  0  0  0  0  0  0  0  0
    5.1716   -4.1921    3.7011 C   0  0  0  0  0  0  0  0  0  0  0  0
    4.8139   -5.6580    3.9805 C   0  0  0  0  0  0  0  0  0  0  0  0
    3.2496   -6.0316    4.0103 C   0  0  2  0  0  0  0  0  0  0  0  0
    3.0350   -7.5623    4.4731 C   0  0  2  0  0  0  0  0  0  0  0  0
    2.8229   -7.4881    6.0117 C   0  0  0  0  0  0  0  0  0  0  0  0
    4.2877   -8.4494    4.1965 C   0  0  0  0  0  0  0  0  0  0  0  0
    4.1399   -9.9386    4.5195 C   0  0  0  0  0  0  0  0  0  0  0  0
    5.0538  -10.5597    5.0628 O   0  0  0  0  0  0  0  0  0  0  0  0
    2.8229  -10.6301    4.1293 C   0  0  0  0  0  0  0  0  0  0  0  0
    2.8162  -11.8318    3.8601 O   0  0  0  0  0  0  0  0  0  0  0  0
    1.5293   -9.7872    4.1189 C   0  0  0  0  0  0  0  0  0  0  0  0
    0.5348  -10.4338    3.1129 C   0  0  0  0  0  0  0  0  0  0  0  0
    0.8598   -9.9292    5.5122 C   0  0  0  0  0  0  0  0  0  0  0  0
    1.8106   -8.2693    3.7542 C   0  0  2  0  0  0  0  0  0  0  0  0
    1.8617   -8.0406    2.2069 C   0  0  0  0  0  0  0  0  0  0  0  0
    2.4875   -6.7083    1.7416 C   0  0  0  0  0  0  0  0  0  0  0  0
    2.3345   -5.5584    2.7724 C   0  0  1  0  0  0  0  0  0  0  0  0
    0.9383   -5.5884    3.0053 O   0  0  0  0  0  0  0  0  0  0  0  0
    2.6084   -4.0635    2.3071 C   0  0  2  0  0  0  0  0  0  0  0  0
    2.8869   -3.5195    0.9993 O   0  0  0  0  0  0  0  0  0  0  0  0
    3.9351   -4.3001    1.5051 C   0  0  1  0  0  0  0  0  0  0  0  0
    5.2306   -3.9197    2.1938 C   0  0  0  0  0  0  0  0  0  0  0  0
    2.2335   -2.8274    3.2762 C   0  0  2  0  0  0  0  0  0  0  0  0
    1.5208   -3.3369    4.5841 C   0  0  0  0  0  0  0  0  0  0  0  0
    1.2540   -2.5553    5.6482 C   0  0  0  0  0  0  0  0  0  0  0  0
    2.3723   -2.0184    6.5232 C   0  0  1  0  0  0  0  0  0  0  0  0
    3.0190   -3.0083    7.1540 O   0  0  0  0  0  0  0  0  0  0  0  0
    3.3457   -1.2742    5.6514 N   0  0  2  0  0  0  0  0  0  0  0  0
    2.4832   -0.1423    5.0253 C   0  0  0  0  0  0  0  0  0  0  0  0
    1.1469   -0.6204    4.2225 C   0  0  1  0  0  0  0  0  0  0  0  0
    0.3742    0.6403    3.7604 C   0  0  0  0  0  0  0  0  0  0  0  0
    1.2841   -1.6252    2.9418 C   0  0  0  0  0  0  0  0  0  0  0  0
    0.3396   -1.3826    5.3045 C   0  0  1  0  0  0  0  0  0  0  0  0
   -0.9474   -1.8125    4.8869 O   0  0  0  0  0  0  0  0  0  0  0  0
    4.2060   -2.0122    4.5994 C   0  0  1  0  0  0  0  0  0  0  0  0
    3.5007   -1.9093    3.3022 C   0  0  0  0  0  0  0  0  0  0  0  0
    5.7771   -2.7021    6.7202 H   0  0  0  0  0  0  0  0  0  0  0  0
    6.7174   -3.9976    5.9950 H   0  0  0  0  0  0  0  0  0  0  0  0
    5.0996   -4.3375    6.5811 H   0  0  0  0  0  0  0  0  0  0  0  0
    5.3446   -6.2609    3.2387 H   0  0  0  0  0  0  0  0  0  0  0  0
    5.2633   -5.9335    4.9324 H   0  0  0  0  0  0  0  0  0  0  0  0
    2.8945   -5.4188    4.8318 H   0  0  0  0  0  0  0  0  0  0  0  0
    3.0133   -8.4268    6.5241 H   0  0  0  0  0  0  0  0  0  0  0  0
    1.8110   -7.1660    6.2613 H   0  0  0  0  0  0  0  0  0  0  0  0
    3.5078   -6.7775    6.4784 H   0  0  0  0  0  0  0  0  0  0  0  0
    4.5716   -8.3998    3.1482 H   0  0  0  0  0  0  0  0  0  0  0  0
    5.1406   -8.1069    4.7780 H   0  0  0  0  0  0  0  0  0  0  0  0
   -0.3836   -9.8533    3.0218 H   0  0  0  0  0  0  0  0  0  0  0  0
    0.2424  -11.4410    3.4195 H   0  0  0  0  0  0  0  0  0  0  0  0
    0.9581  -10.5484    2.1133 H   0  0  0  0  0  0  0  0  0  0  0  0
    0.1280   -9.1441    5.6988 H   0  0  0  0  0  0  0  0  0  0  0  0
    1.5682   -9.9324    6.3377 H   0  0  0  0  0  0  0  0  0  0  0  0
    0.3279  -10.8778    5.6116 H   0  0  0  0  0  0  0  0  0  0  0  0
    0.9186   -7.7582    4.1132 H   0  0  0  0  0  0  0  0  0  0  0  0
    2.3837   -8.8537    1.7026 H   0  0  0  0  0  0  0  0  0  0  0  0
    0.8425   -8.0713    1.8227 H   0  0  0  0  0  0  0  0  0  0  0  0
    3.5453   -6.9364    1.6144 H   0  0  0  0  0  0  0  0  0  0  0  0
    2.1072   -6.4309    0.7571 H   0  0  0  0  0  0  0  0  0  0  0  0
    0.7307   -6.4297    3.3817 H   0  0  0  0  0  0  0  0  0  0  0  0
    4.1016   -5.1017    0.7957 H   0  0  0  0  0  0  0  0  0  0  0  0
    5.6474   -2.9611    1.8841 H   0  0  0  0  0  0  0  0  0  0  0  0
    5.9915   -4.5980    1.8008 H   0  0  0  0  0  0  0  0  0  0  0  0
    0.5670   -3.6760    4.2134 H   0  0  0  0  0  0  0  0  0  0  0  0
    1.9369   -1.2810    7.1793 H   0  0  0  0  0  0  0  0  0  0  0  0
    2.1626    0.4785    5.8611 H   0  0  0  0  0  0  0  0  0  0  0  0
    3.1113    0.5398    4.4552 H   0  0  0  0  0  0  0  0  0  0  0  0
   -0.5693    0.3838    3.2743 H   0  0  0  0  0  0  0  0  0  0  0  0
    0.9518    1.2185    3.0361 H   0  0  0  0  0  0  0  0  0  0  0  0
    0.1352    1.3068    4.5907 H   0  0  0  0  0  0  0  0  0  0  0  0
    1.5842   -1.0844    2.0392 H   0  0  0  0  0  0  0  0  0  0  0  0
    0.3050   -2.0106    2.6727 H   0  0  0  0  0  0  0  0  0  0  0  0
    0.1620   -0.7481    6.1698 H   0  0  0  0  0  0  0  0  0  0  0  0
   -0.8375   -2.3195    4.0972 H   0  0  0  0  0  0  0  0  0  0  0  0
    3.7489   -2.9041    4.9595 H   0  0  0  0  0  0  0  0  0  0  0  0
    4.0850   -1.9452    2.4225 H   0  0  0  0  0  0  0  0  0  0  0  0
    3.3923   -0.8665    3.0229 H   0  0  0  0  0  0  0  0  0  0  0  0
    3.9996   -0.8591    6.2966 H   0  0  0  0  0  0  0  0  0  0  0  0
  1  2  1  0
  1 39  1  0
  1 40  1  0
  1 41  1  0
  2 37  1  0
  2  3  2  3
  3 24  1  0
  3  4  1  0
  4  5  1  0
  4 42  1  0
  4 43  1  0
  5 19  1  0
  5  6  1  0
  5 44  1  1
  6 16  1  0
  6  7  1  1
  6  8  1  0
  7 45  1  0
  7 46  1  0
  7 47  1  0
  8  9  1  0
  8 48  1  0
  8 49  1  0
  9 10  2  0
  9 11  1  0
 11 12  2  0
 11 13  1  0
 13 14  1  0
 13 15  1  0
 13 16  1  0
 14 50  1  0
 14 51  1  0
 14 52  1  0
 15 53  1  0
 15 54  1  0
 15 55  1  0
 16 17  1  0
 16 56  1  1
 17 18  1  0
 17 57  1  0
 17 58  1  0
 18 19  1  0
 18 59  1  0
 18 60  1  0
 19 20  1  1
 19 21  1  0
 20 61  1  0
 21 23  1  0
 21 22  1  6
 21 25  1  0
 22 23  1  0
 23 24  1  0
 23 62  1  6
 24 63  1  0
 24 64  1  0
 25 34  1  6
 25 38  1  0
 25 26  1  0
 26 27  2  0
 26 65  1  0
 27 35  1  0
 27 28  1  0
 28 29  1  0
 28 30  1  0
 28 66  1  1
 30 31  1  0
 30 37  1  0
 30 79  1  1
 31 32  1  0
 31 67  1  0
 31 68  1  0
 32 33  1  6
 32 34  1  0
 32 35  1  0
 33 69  1  0
 33 70  1  0
 33 71  1  0
 34 72  1  0
 34 73  1  0
 35 36  1  0
 35 74  1  1
 36 75  1  0
 37 38  1  0
 37 76  1  6
 38 77  1  0
 38 78  1  0
M  CHG  2  29  -1  30   1
M  END
>  <i_m_ct_stereo_status>  (3) 
1

>  <s_m_source_file>  (3) 
/var/tmp/pbs.5076255.sched01/tmpfev35gxg/05fxellcm.sdf

>  <i_m_source_file_index>  (3) 
1

>  <i_lp_mmshare_version>  (3) 
48012

>  <i_f3d_flags>  (3) 
0

>  <s_epik_input>  (3) 
W0NAXTEyM1tDQF00NVtDSF09QzZbQ0BASF0oW09IXSlOKFtDSDJdW0NAQF0oW0NIM10pKFtDSDJdNClbQ0BIXTZbT0hdKVtDQEBIXShbQ0gyXTUpQyhcW0NIM10pPUMoW0NIMl1bQ0BASF0zTzIpL1tDSDJdW0NAQEhdN1tDQEBdOChbQ0gzXSlbQ0BIXShDKFtDSDNdKShbQ0gzXSlDKD1PKUMoPU8pW0NIMl04KVtDSDJdW0NIMl1bQ0BdMTdbT0hd

>  <s_epik_cmdline>  (3) 
J2VwaWtfcHl0aG9uJywgJy1waHQnLCAnMi4wJywgJy1waCcsICc3LjAnLCAnLXRuJywgJzgnLCAnLW1hJywgJzIwMCcsICctaW1hZScsICc8aW5maWxlLm1hZT4nLCAnLW9tYWUnLCAnPG91dGZpbGUubWFlPic=

>  <r_epik_Ionization_Penalty>  (3) 
0.0752752

>  <r_epik_Ionization_Penalty_Charging>  (3) 
0.0752681

>  <r_epik_Ionization_Penalty_Neutral>  (3) 
7.06108e-06

>  <r_epik_State_Penalty>  (3) 
0.196104

>  <r_epik_Charging_Adjusted_Penalty>  (3) 
0.271372

>  <i_epik_Tot_Q>  (3) 
0

>  <i_epik_Tot_abs_Q>  (3) 
2

>  <s_epik_Chemistry_Notes>  (3) 
This compound contains an acetal/aminal-like group ( X-CH(R)-Y where X, Y are N, S, or O) that may be acid/base labile, releasing an aldehyde.

>  <s_lp_Force_Field>  (3) 
OPLS3e

>  <r_lp_Energy>  (3) 
329.438

>  <b_lp_Chiralities_Consistent>  (3) 
1

>  <s_lp_Variant>  (3) 
0:0-1

>  <s_i_glide_gridfile>  (3) 
pfpi4k_grid

>  <i_i_glide_lignum>  (3) 
1

>  <i_i_glide_rotatable_bonds>  (3) 
2

>  <r_i_docking_score>  (3) 
-2.00593

>  <r_i_glide_ligand_efficiency>  (3) 
-0.0527875

>  <r_i_glide_ligand_efficiency_sa>  (3) 
-0.17747

>  <r_i_glide_ligand_efficiency_ln>  (3) 
-0.432537

>  <r_i_glide_gscore>  (3) 
-2.00593

>  <r_i_glide_lipo>  (3) 
-0.17318

>  <r_i_glide_hbond>  (3) 
0

>  <r_i_glide_metal>  (3) 
-0

>  <r_i_glide_rewards>  (3) 
0

>  <r_i_glide_evdw>  (3) 
-27.6574

>  <r_i_glide_ecoul>  (3) 
-2.8752

>  <r_i_glide_erotb>  (3) 
0

>  <r_i_glide_esite>  (3) 
-0.0185937

>  <r_i_glide_emodel>  (3) 
-35.2341

>  <r_i_glide_energy>  (3) 
-30.5326

>  <r_i_glide_einternal>  (3) 
0.0629246

>  <r_i_glide_intrahb_reward>  (3) 
-0

>  <i_i_glide_confnum>  (3) 
1

>  <i_i_glide_posenum>  (3) 
2

>  <r_i_glide_eff_state_penalty>  (3) 
0

>  <ligand_id>  (3) 
0

>  <original_smiles>  (3) 
CC1=C2CC3C4(C)CC(=O)C(=O)C(C)(C)C4CCC3(O)C3(OC3C2)C23C=C4C(O)N(CC(C)(C2)C4O)C1C3

>  <smiles>  (3) 
[H]OC1([H])C2=C([H])C34C([H])([H])C1(C([H])([H])[H])C([H])([H])[N+]([H])(C2([H])[O-])C([H])(C(C([H])([H])[H])=C1C([H])([H])C2([H])OC23C2(O[H])C([H])([H])C([H])([H])C3([H])C(C([H])([H])[H])(C([H])([H])[H])C(=O)C(=O)C([H])([H])C3(C([H])([H])[H])C2([H])C1([H])[H])C4([H])[H]

$$$$
0:1:0
     RDKit          3D

 79 86  0  0  1  0  0  0  0  0999 V2000
   -0.8604   -7.5278    3.3198 C   0  0  0  0  0  0  0  0  0  0  0  0
    0.4335   -6.7564    3.5489 C   0  0  0  0  0  0  0  0  0  0  0  0
    1.1349   -6.3212    2.4504 C   0  0  0  0  0  0  0  0  0  0  0  0
    1.9604   -4.9983    2.2994 C   0  0  0  0  0  0  0  0  0  0  0  0
    3.5678   -4.8492    2.2551 C   0  0  2  0  0  0  0  0  0  0  0  0
    4.0875   -3.7999    1.1750 C   0  0  2  0  0  0  0  0  0  0  0  0
    3.3285   -2.4553    1.4572 C   0  0  0  0  0  0  0  0  0  0  0  0
    3.8031   -4.2417   -0.2862 C   0  0  0  0  0  0  0  0  0  0  0  0
    4.3697   -3.3090   -1.3556 C   0  0  0  0  0  0  0  0  0  0  0  0
    3.9345   -3.3310   -2.5038 O   0  0  0  0  0  0  0  0  0  0  0  0
    5.5173   -2.3449   -0.9939 C   0  0  0  0  0  0  0  0  0  0  0  0
    5.8171   -1.4561   -1.7891 O   0  0  0  0  0  0  0  0  0  0  0  0
    6.2605   -2.4640    0.3608 C   0  0  0  0  0  0  0  0  0  0  0  0
    7.7633   -2.7054    0.0086 C   0  0  0  0  0  0  0  0  0  0  0  0
    6.2574   -1.0757    1.0688 C   0  0  0  0  0  0  0  0  0  0  0  0
    5.6449   -3.5779    1.3131 C   0  0  2  0  0  0  0  0  0  0  0  0
    6.4403   -4.9189    1.2541 C   0  0  0  0  0  0  0  0  0  0  0  0
    5.6833   -6.2205    1.5580 C   0  0  0  0  0  0  0  0  0  0  0  0
    4.5157   -6.1052    2.5697 C   0  0  1  0  0  0  0  0  0  0  0  0
    5.2228   -5.8775    3.7789 O   0  0  0  0  0  0  0  0  0  0  0  0
    3.7154   -7.4320    2.6786 C   0  0  2  0  0  0  0  0  0  0  0  0
    3.7555   -8.5256    1.7335 O   0  0  0  0  0  0  0  0  0  0  0  0
    2.9460   -7.4434    1.3114 C   0  0  1  0  0  0  0  0  0  0  0  0
    1.4258   -7.2883    1.3179 C   0  0  0  0  0  0  0  0  0  0  0  0
    3.1180   -7.8688    4.0961 C   0  0  2  0  0  0  0  0  0  0  0  0
    3.9780   -8.3777    5.2535 C   0  0  0  0  0  0  0  0  0  0  0  0
    3.2567   -8.8267    6.3369 C   0  0  0  0  0  0  0  0  0  0  0  0
    2.0153   -8.0894    6.9740 C   0  0  1  0  0  0  0  0  0  0  0  0
    2.3271   -6.9354    7.7285 O   0  0  0  0  0  0  0  0  0  0  0  0
    0.8778   -7.8097    6.0317 N   0  0  0  0  0  0  0  0  0  0  0  0
    0.4700   -9.1623    5.6174 C   0  0  0  0  0  0  0  0  0  0  0  0
    1.6338   -9.9968    5.0144 C   0  0  1  0  0  0  0  0  0  0  0  0
    1.0475  -11.3375    4.5176 C   0  0  0  0  0  0  0  0  0  0  0  0
    2.2507   -9.2024    3.8274 C   0  0  0  0  0  0  0  0  0  0  0  0
    2.7253  -10.2222    6.1023 C   0  0  1  0  0  0  0  0  0  0  0  0
    3.7240  -11.1539    5.7284 O   0  0  0  0  0  0  0  0  0  0  0  0
    1.0323   -6.7070    5.0054 C   0  0  1  0  0  0  0  0  0  0  0  0
    2.5176   -6.6033    4.7958 C   0  0  0  0  0  0  0  0  0  0  0  0
   -1.5258   -7.4399    4.1775 H   0  0  0  0  0  0  0  0  0  0  0  0
   -0.7025   -8.5748    3.0760 H   0  0  0  0  0  0  0  0  0  0  0  0
   -1.3900   -7.1018    2.4700 H   0  0  0  0  0  0  0  0  0  0  0  0
    1.5853   -4.6167    1.3575 H   0  0  0  0  0  0  0  0  0  0  0  0
    1.5747   -4.3088    3.0517 H   0  0  0  0  0  0  0  0  0  0  0  0
    3.7218   -4.2435    3.1511 H   0  0  0  0  0  0  0  0  0  0  0  0
    3.5006   -1.6862    0.7072 H   0  0  0  0  0  0  0  0  0  0  0  0
    3.6131   -2.0330    2.4240 H   0  0  0  0  0  0  0  0  0  0  0  0
    2.2451   -2.5587    1.4651 H   0  0  0  0  0  0  0  0  0  0  0  0
    4.2264   -5.2170   -0.4980 H   0  0  0  0  0  0  0  0  0  0  0  0
    2.7324   -4.3218   -0.4617 H   0  0  0  0  0  0  0  0  0  0  0  0
    8.3711   -2.9113    0.8900 H   0  0  0  0  0  0  0  0  0  0  0  0
    8.2193   -1.8441   -0.4796 H   0  0  0  0  0  0  0  0  0  0  0  0
    7.9094   -3.5268   -0.6956 H   0  0  0  0  0  0  0  0  0  0  0  0
    6.9181   -1.0795    1.9391 H   0  0  0  0  0  0  0  0  0  0  0  0
    5.2819   -0.7539    1.4228 H   0  0  0  0  0  0  0  0  0  0  0  0
    6.6183   -0.2782    0.4149 H   0  0  0  0  0  0  0  0  0  0  0  0
    5.7910   -3.2211    2.3360 H   0  0  0  0  0  0  0  0  0  0  0  0
    6.8722   -5.0826    0.2703 H   0  0  0  0  0  0  0  0  0  0  0  0
    7.2818   -4.8425    1.9414 H   0  0  0  0  0  0  0  0  0  0  0  0
    5.3555   -6.6054    0.5987 H   0  0  0  0  0  0  0  0  0  0  0  0
    6.3944   -6.9763    1.8967 H   0  0  0  0  0  0  0  0  0  0  0  0
    5.7820   -6.6239    3.9344 H   0  0  0  0  0  0  0  0  0  0  0  0
    3.3638   -6.9833    0.4291 H   0  0  0  0  0  0  0  0  0  0  0  0
    0.9201   -8.2484    1.3582 H   0  0  0  0  0  0  0  0  0  0  0  0
    1.1111   -6.8302    0.3794 H   0  0  0  0  0  0  0  0  0  0  0  0
    4.7254   -9.0455    4.8402 H   0  0  0  0  0  0  0  0  0  0  0  0
    1.6366   -8.7482    7.7569 H   0  0  0  0  0  0  0  0  0  0  0  0
    3.2624   -6.8043    7.6534 H   0  0  0  0  0  0  0  0  0  0  0  0
    0.1208   -9.6770    6.5146 H   0  0  0  0  0  0  0  0  0  0  0  0
   -0.4139   -9.1649    4.9978 H   0  0  0  0  0  0  0  0  0  0  0  0
    1.8083  -11.9691    4.0561 H   0  0  0  0  0  0  0  0  0  0  0  0
    0.2516  -11.1850    3.7868 H   0  0  0  0  0  0  0  0  0  0  0  0
    0.6117  -11.9018    5.3406 H   0  0  0  0  0  0  0  0  0  0  0  0
    1.4595   -9.0834    3.1118 H   0  0  0  0  0  0  0  0  0  0  0  0
    2.9123   -9.9350    3.3636 H   0  0  0  0  0  0  0  0  0  0  0  0
    2.2912  -10.6257    7.0145 H   0  0  0  0  0  0  0  0  0  0  0  0
    3.4043  -12.0117    5.9873 H   0  0  0  0  0  0  0  0  0  0  0  0
    0.6798   -5.7892    5.4775 H   0  0  0  0  0  0  0  0  0  0  0  0
    3.0897   -6.2864    5.6609 H   0  0  0  0  0  0  0  0  0  0  0  0
    2.7420   -5.6650    4.3654 H   0  0  0  0  0  0  0  0  0  0  0  0
  1  2  1  0
  1 39  1  0
  1 40  1  0
  1 41  1  0
  2 37  1  0
  2  3  2  3
  3 24  1  0
  3  4  1  0
  4  5  1  0
  4 42  1  0
  4 43  1  0
  5 19  1  0
  5  6  1  0
  5 44  1  1
  6 16  1  0
  6  7  1  1
  6  8  1  0
  7 45  1  0
  7 46  1  0
  7 47  1  0
  8  9  1  0
  8 48  1  0
  8 49  1  0
  9 10  2  0
  9 11  1  0
 11 12  2  0
 11 13  1  0
 13 14  1  0
 13 15  1  0
 13 16  1  0
 14 50  1  0
 14 51  1  0
 14 52  1  0
 15 53  1  0
 15 54  1  0
 15 55  1  0
 16 17  1  0
 16 56  1  1
 17 18  1  0
 17 57  1  0
 17 58  1  0
 18 19  1  0
 18 59  1  0
 18 60  1  0
 19 20  1  1
 19 21  1  0
 20 61  1  0
 21 23  1  0
 21 22  1  6
 21 25  1  0
 22 23  1  0
 23 24  1  0
 23 62  1  6
 24 63  1  0
 24 64  1  0
 25 34  1  6
 25 38  1  0
 25 26  1  0
 26 27  2  0
 26 65  1  0
 27 35  1  0
 27 28  1  0
 28 29  1  0
 28 30  1  0
 28 66  1  1
 29 67  1  0
 30 31  1  0
 30 37  1  0
 31 32  1  0
 31 68  1  0
 31 69  1  0
 32 33  1  6
 32 34  1  0
 32 35  1  0
 33 70  1  0
 33 71  1  0
 33 72  1  0
 34 73  1  0
 34 74  1  0
 35 36  1  0
 35 75  1  1
 36 76  1  0
 37 38  1  0
 37 77  1  1
 38 78  1  0
 38 79  1  0
M  END
>  <i_m_ct_stereo_status>  (4) 
1

>  <s_m_source_file>  (4) 
/var/tmp/pbs.5076255.sched01/tmpfev35gxg/05fxellcm.sdf

>  <i_m_source_file_index>  (4) 
2

>  <i_lp_mmshare_version>  (4) 
48012

>  <i_f3d_flags>  (4) 
0

>  <s_epik_input>  (4) 
W0NAXTEyM1tDQF00NVtDSF09QzZbQ0BASF0oW09IXSlOKFtDSDJdW0NAQF0oW0NIM10pKFtDSDJdNClbQ0BIXTZbT0hdKVtDQEBIXShbQ0gyXTUpQyhcW0NIM10pPUMoW0NIMl1bQ0BASF0zTzIpL1tDSDJdW0NAQEhdN1tDQEBdOChbQ0gzXSlbQ0BIXShDKFtDSDNdKShbQ0gzXSlDKD1PKUMoPU8pW0NIMl04KVtDSDJdW0NIMl1bQ0BdMTdbT0hd

>  <s_epik_cmdline>  (4) 
J2VwaWtfcHl0aG9uJywgJy1waHQnLCAnMi4wJywgJy1waCcsICc3LjAnLCAnLXRuJywgJzgnLCAnLW1hJywgJzIwMCcsICctaW1hZScsICc8aW5maWxlLm1hZT4nLCAnLW9tYWUnLCAnPG91dGZpbGUubWFlPic=

>  <r_epik_Ionization_Penalty>  (4) 
0.22255

>  <r_epik_Ionization_Penalty_Charging>  (4) 
0

>  <r_epik_Ionization_Penalty_Neutral>  (4) 
0.22255

>  <r_epik_State_Penalty>  (4) 
0.9634

>  <r_epik_Charging_Adjusted_Penalty>  (4) 
0.9634

>  <i_epik_Tot_Q>  (4) 
0

>  <i_epik_Tot_abs_Q>  (4) 
0

>  <s_epik_Chemistry_Notes>  (4) 
This compound contains an acetal/aminal-like group ( X-CH(R)-Y where X, Y are N, S, or O) that may be acid/base labile, releasing an aldehyde.

>  <s_lp_Force_Field>  (4) 
OPLS3e

>  <r_lp_Energy>  (4) 
261.491

>  <b_lp_Chiralities_Consistent>  (4) 
1

>  <s_lp_Variant>  (4) 
0:0-2

>  <s_i_glide_gridfile>  (4) 
pfpi4k_grid

>  <i_i_glide_lignum>  (4) 
2

>  <i_i_glide_rotatable_bonds>  (4) 
3

>  <r_i_docking_score>  (4) 
-3.1728

>  <r_i_glide_ligand_efficiency>  (4) 
-0.0834947

>  <r_i_glide_ligand_efficiency_sa>  (4) 
-0.280707

>  <r_i_glide_ligand_efficiency_ln>  (4) 
-0.684149

>  <r_i_glide_gscore>  (4) 
-3.1728

>  <r_i_glide_lipo>  (4) 
-0.627555

>  <r_i_glide_hbond>  (4) 
-0.0743498

>  <r_i_glide_metal>  (4) 
-0

>  <r_i_glide_rewards>  (4) 
0

>  <r_i_glide_evdw>  (4) 
-36.5941

>  <r_i_glide_ecoul>  (4) 
-4.01125

>  <r_i_glide_erotb>  (4) 
0

>  <r_i_glide_esite>  (4) 
-0.0394971

>  <r_i_glide_emodel>  (4) 
-48.1437

>  <r_i_glide_energy>  (4) 
-40.6054

>  <r_i_glide_einternal>  (4) 
1.0086

>  <r_i_glide_intrahb_reward>  (4) 
-0

>  <i_i_glide_confnum>  (4) 
1

>  <i_i_glide_posenum>  (4) 
11

>  <r_i_glide_eff_state_penalty>  (4) 
0

>  <ligand_id>  (4) 
0

>  <original_smiles>  (4) 
CC1=C2CC3C4(C)CC(=O)C(=O)C(C)(C)C4CCC3(O)C3(OC3C2)C23C=C4C(O)N(CC(C)(C2)C4O)C1C3

>  <smiles>  (4) 
[H]OC1([H])C2=C([H])C34C([H])([H])C([H])(C(C([H])([H])[H])=C5C([H])([H])C6([H])OC63C3(O[H])C([H])([H])C([H])([H])C6([H])C(C([H])([H])[H])(C([H])([H])[H])C(=O)C(=O)C([H])([H])C6(C([H])([H])[H])C3([H])C5([H])[H])N1C([H])([H])C(C([H])([H])[H])(C2([H])O[H])C4([H])[H]

$$$$
0:1:1
     RDKit          3D

 79 86  0  0  1  0  0  0  0  0999 V2000
   -0.9233   -7.4546    3.2880 C   0  0  0  0  0  0  0  0  0  0  0  0
    0.3427   -6.6422    3.5334 C   0  0  0  0  0  0  0  0  0  0  0  0
    1.0877   -6.2565    2.4476 C   0  0  0  0  0  0  0  0  0  0  0  0
    1.8950   -4.9252    2.2549 C   0  0  0  0  0  0  0  0  0  0  0  0
    3.4975   -4.7391    2.2757 C   0  0  2  0  0  0  0  0  0  0  0  0
    4.0502   -3.7405    1.1616 C   0  0  2  0  0  0  0  0  0  0  0  0
    3.2524   -2.3998    1.3306 C   0  0  0  0  0  0  0  0  0  0  0  0
    3.8490   -4.2631   -0.2862 C   0  0  0  0  0  0  0  0  0  0  0  0
    4.4430   -3.3693   -1.3781 C   0  0  0  0  0  0  0  0  0  0  0  0
    4.0550   -3.4461   -2.5377 O   0  0  0  0  0  0  0  0  0  0  0  0
    5.5596   -2.3705   -1.0157 C   0  0  0  0  0  0  0  0  0  0  0  0
    5.8802   -1.5154   -1.8414 O   0  0  0  0  0  0  0  0  0  0  0  0
    6.2383   -2.4124    0.3749 C   0  0  0  0  0  0  0  0  0  0  0  0
    7.7571   -2.6420    0.0997 C   0  0  0  0  0  0  0  0  0  0  0  0
    6.1769   -0.9945    1.0054 C   0  0  0  0  0  0  0  0  0  0  0  0
    5.5946   -3.4799    1.3601 C   0  0  2  0  0  0  0  0  0  0  0  0
    6.4153   -4.8045    1.4154 C   0  0  0  0  0  0  0  0  0  0  0  0
    5.6680   -6.1017    1.7618 C   0  0  0  0  0  0  0  0  0  0  0  0
    4.4527   -5.9528    2.7087 C   0  0  1  0  0  0  0  0  0  0  0  0
    5.0916   -5.6351    3.9363 O   0  0  0  0  0  0  0  0  0  0  0  0
    3.6740   -7.2896    2.8541 C   0  0  2  0  0  0  0  0  0  0  0  0
    3.7775   -8.4321    1.9773 O   0  0  0  0  0  0  0  0  0  0  0  0
    2.9686   -7.3974    1.4570 C   0  0  1  0  0  0  0  0  0  0  0  0
    1.4485   -7.2767    1.3847 C   0  0  0  0  0  0  0  0  0  0  0  0
    3.0188   -7.6534    4.2688 C   0  0  2  0  0  0  0  0  0  0  0  0
    3.8314   -8.0732    5.4932 C   0  0  0  0  0  0  0  0  0  0  0  0
    3.0660   -8.4702    6.5703 C   0  0  0  0  0  0  0  0  0  0  0  0
    1.7786   -7.7269    7.0994 C   0  0  1  0  0  0  0  0  0  0  0  0
    2.0259   -6.5251    7.7990 O   0  0  0  0  0  0  0  0  0  0  0  0
    0.6828   -7.5310    6.0914 N   0  0  0  0  0  0  0  0  0  0  0  0
    0.3238   -8.9143    5.7384 C   0  0  0  0  0  0  0  0  0  0  0  0
    1.5351   -9.7521    5.2469 C   0  0  1  0  0  0  0  0  0  0  0  0
    1.0071  -11.1338    4.8092 C   0  0  0  0  0  0  0  0  0  0  0  0
    2.1926   -9.0195    4.0416 C   0  0  0  0  0  0  0  0  0  0  0  0
    2.5694   -9.8851    6.4027 C   0  0  1  0  0  0  0  0  0  0  0  0
    3.5975  -10.8198    6.1286 O   0  0  0  0  0  0  0  0  0  0  0  0
    0.8688   -6.4892    5.0094 C   0  0  1  0  0  0  0  0  0  0  0  0
    2.3609   -6.3644    4.8644 C   0  0  0  0  0  0  0  0  0  0  0  0
   -1.6310   -7.3287    4.1049 H   0  0  0  0  0  0  0  0  0  0  0  0
   -0.7354   -8.5099    3.1119 H   0  0  0  0  0  0  0  0  0  0  0  0
   -1.4157   -7.0862    2.3898 H   0  0  0  0  0  0  0  0  0  0  0  0
    1.5680   -4.6192    1.2686 H   0  0  0  0  0  0  0  0  0  0  0  0
    1.4570   -4.1985    2.9406 H   0  0  0  0  0  0  0  0  0  0  0  0
    3.5906   -4.0773    3.1416 H   0  0  0  0  0  0  0  0  0  0  0  0
    3.4444   -1.6705    0.5468 H   0  0  0  0  0  0  0  0  0  0  0  0
    3.4804   -1.9148    2.2832 H   0  0  0  0  0  0  0  0  0  0  0  0
    2.1724   -2.5276    1.2933 H   0  0  0  0  0  0  0  0  0  0  0  0
    4.2966   -5.2429   -0.4192 H   0  0  0  0  0  0  0  0  0  0  0  0
    2.7895   -4.3817   -0.5061 H   0  0  0  0  0  0  0  0  0  0  0  0
    8.3222   -2.7965    1.0177 H   0  0  0  0  0  0  0  0  0  0  0  0
    8.2178   -1.7938   -0.4065 H   0  0  0  0  0  0  0  0  0  0  0  0
    7.9475   -3.4957   -0.5523 H   0  0  0  0  0  0  0  0  0  0  0  0
    6.7910   -0.9401    1.9076 H   0  0  0  0  0  0  0  0  0  0  0  0
    5.1779   -0.6694    1.2881 H   0  0  0  0  0  0  0  0  0  0  0  0
    6.5556   -0.2290    0.3244 H   0  0  0  0  0  0  0  0  0  0  0  0
    5.6839   -3.0581    2.3665 H   0  0  0  0  0  0  0  0  0  0  0  0
    6.8920   -5.0147    0.4621 H   0  0  0  0  0  0  0  0  0  0  0  0
    7.2289   -4.6733    2.1260 H   0  0  0  0  0  0  0  0  0  0  0  0
    5.3916   -6.5522    0.8136 H   0  0  0  0  0  0  0  0  0  0  0  0
    6.3757   -6.8179    2.1853 H   0  0  0  0  0  0  0  0  0  0  0  0
    5.6147   -4.8582    3.8077 H   0  0  0  0  0  0  0  0  0  0  0  0
    3.4105   -6.9992    0.5536 H   0  0  0  0  0  0  0  0  0  0  0  0
    0.9623   -8.2452    1.4547 H   0  0  0  0  0  0  0  0  0  0  0  0
    1.1702   -6.8747    0.4116 H   0  0  0  0  0  0  0  0  0  0  0  0
    4.6129   -8.7441    5.1559 H   0  0  0  0  0  0  0  0  0  0  0  0
    1.3769   -8.3474    7.9023 H   0  0  0  0  0  0  0  0  0  0  0  0
    2.9589   -6.3740    7.7514 H   0  0  0  0  0  0  0  0  0  0  0  0
   -0.0585   -9.3853    6.6454 H   0  0  0  0  0  0  0  0  0  0  0  0
   -0.5264   -8.9782    5.0765 H   0  0  0  0  0  0  0  0  0  0  0  0
    1.7972  -11.7788    4.4205 H   0  0  0  0  0  0  0  0  0  0  0  0
    0.2449  -11.0440    4.0323 H   0  0  0  0  0  0  0  0  0  0  0  0
    0.5374  -11.6500    5.6467 H   0  0  0  0  0  0  0  0  0  0  0  0
    1.4347   -8.9612    3.2833 H   0  0  0  0  0  0  0  0  0  0  0  0
    2.8903   -9.7621    3.6517 H   0  0  0  0  0  0  0  0  0  0  0  0
    2.0929  -10.2426    7.3160 H   0  0  0  0  0  0  0  0  0  0  0  0
    3.2554  -11.6748    6.3691 H   0  0  0  0  0  0  0  0  0  0  0  0
    0.4748   -5.5539    5.4071 H   0  0  0  0  0  0  0  0  0  0  0  0
    2.8846   -5.9852    5.7356 H   0  0  0  0  0  0  0  0  0  0  0  0
    2.5865   -5.4469    4.3929 H   0  0  0  0  0  0  0  0  0  0  0  0
  1  2  1  0
  1 39  1  0
  1 40  1  0
  1 41  1  0
  2 37  1  0
  2  3  2  3
  3 24  1  0
  3  4  1  0
  4  5  1  0
  4 42  1  0
  4 43  1  0
  5 19  1  0
  5  6  1  0
  5 44  1  1
  6 16  1  0
  6  7  1  6
  6  8  1  0
  7 45  1  0
  7 46  1  0
  7 47  1  0
  8  9  1  0
  8 48  1  0
  8 49  1  0
  9 10  2  0
  9 11  1  0
 11 12  2  0
 11 13  1  0
 13 14  1  0
 13 15  1  0
 13 16  1  0
 14 50  1  0
 14 51  1  0
 14 52  1  0
 15 53  1  0
 15 54  1  0
 15 55  1  0
 16 17  1  0
 16 56  1  1
 17 18  1  0
 17 57  1  0
 17 58  1  0
 18 19  1  0
 18 59  1  0
 18 60  1  0
 19 20  1  1
 19 21  1  0
 20 61  1  0
 21 23  1  0
 21 22  1  6
 21 25  1  0
 22 23  1  0
 23 24  1  0
 23 62  1  6
 24 63  1  0
 24 64  1  0
 25 34  1  6
 25 38  1  0
 25 26  1  0
 26 27  2  0
 26 65  1  0
 27 35  1  0
 27 28  1  0
 28 29  1  0
 28 30  1  0
 28 66  1  1
 29 67  1  0
 30 31  1  0
 30 37  1  0
 31 32  1  0
 31 68  1  0
 31 69  1  0
 32 33  1  6
 32 34  1  0
 32 35  1  0
 33 70  1  0
 33 71  1  0
 33 72  1  0
 34 73  1  0
 34 74  1  0
 35 36  1  0
 35 75  1  1
 36 76  1  0
 37 38  1  0
 37 77  1  1
 38 78  1  0
 38 79  1  0
M  END
>  <i_m_ct_stereo_status>  (5) 
1

>  <s_m_source_file>  (5) 
/var/tmp/pbs.5076255.sched01/tmpfev35gxg/05fxellcm.sdf

>  <i_m_source_file_index>  (5) 
2

>  <i_lp_mmshare_version>  (5) 
48012

>  <i_f3d_flags>  (5) 
0

>  <s_epik_input>  (5) 
W0NAXTEyM1tDQF00NVtDSF09QzZbQ0BASF0oW09IXSlOKFtDSDJdW0NAQF0oW0NIM10pKFtDSDJdNClbQ0BIXTZbT0hdKVtDQEBIXShbQ0gyXTUpQyhcW0NIM10pPUMoW0NIMl1bQ0BASF0zTzIpL1tDSDJdW0NAQEhdN1tDQEBdOChbQ0gzXSlbQ0BIXShDKFtDSDNdKShbQ0gzXSlDKD1PKUMoPU8pW0NIMl04KVtDSDJdW0NIMl1bQ0BdMTdbT0hd

>  <s_epik_cmdline>  (5) 
J2VwaWtfcHl0aG9uJywgJy1waHQnLCAnMi4wJywgJy1waCcsICc3LjAnLCAnLXRuJywgJzgnLCAnLW1hJywgJzIwMCcsICctaW1hZScsICc8aW5maWxlLm1hZT4nLCAnLW9tYWUnLCAnPG91dGZpbGUubWFlPic=

>  <r_epik_Ionization_Penalty>  (5) 
0.22255

>  <r_epik_Ionization_Penalty_Charging>  (5) 
0

>  <r_epik_Ionization_Penalty_Neutral>  (5) 
0.22255

>  <r_epik_State_Penalty>  (5) 
0.9634

>  <r_epik_Charging_Adjusted_Penalty>  (5) 
0.9634

>  <i_epik_Tot_Q>  (5) 
0

>  <i_epik_Tot_abs_Q>  (5) 
0

>  <s_epik_Chemistry_Notes>  (5) 
This compound contains an acetal/aminal-like group ( X-CH(R)-Y where X, Y are N, S, or O) that may be acid/base labile, releasing an aldehyde.

>  <s_lp_Force_Field>  (5) 
OPLS3e

>  <r_lp_Energy>  (5) 
261.491

>  <b_lp_Chiralities_Consistent>  (5) 
1

>  <s_lp_Variant>  (5) 
0:0-2

>  <s_i_glide_gridfile>  (5) 
pfpi4k_grid

>  <i_i_glide_lignum>  (5) 
2

>  <i_i_glide_rotatable_bonds>  (5) 
3

>  <r_i_docking_score>  (5) 
-3.10121

>  <r_i_glide_ligand_efficiency>  (5) 
-0.0816108

>  <r_i_glide_ligand_efficiency_sa>  (5) 
-0.274374

>  <r_i_glide_ligand_efficiency_ln>  (5) 
-0.668712

>  <r_i_glide_gscore>  (5) 
-3.10121

>  <r_i_glide_lipo>  (5) 
-0.572437

>  <r_i_glide_hbond>  (5) 
-0.0926836

>  <r_i_glide_metal>  (5) 
-0

>  <r_i_glide_rewards>  (5) 
0

>  <r_i_glide_evdw>  (5) 
-35.1313

>  <r_i_glide_ecoul>  (5) 
-4.31362

>  <r_i_glide_erotb>  (5) 
0

>  <r_i_glide_esite>  (5) 
-0.032482

>  <r_i_glide_emodel>  (5) 
-46.8231

>  <r_i_glide_energy>  (5) 
-39.4449

>  <r_i_glide_einternal>  (5) 
0.947931

>  <r_i_glide_intrahb_reward>  (5) 
-0

>  <i_i_glide_confnum>  (5) 
1

>  <i_i_glide_posenum>  (5) 
7

>  <r_i_glide_eff_state_penalty>  (5) 
0

>  <ligand_id>  (5) 
0

>  <original_smiles>  (5) 
CC1=C2CC3C4(C)CC(=O)C(=O)C(C)(C)C4CCC3(O)C3(OC3C2)C23C=C4C(O)N(CC(C)(C2)C4O)C1C3

>  <smiles>  (5) 
[H]OC1([H])C2=C([H])C34C([H])([H])C([H])(C(C([H])([H])[H])=C5C([H])([H])C6([H])OC63C3(O[H])C([H])([H])C([H])([H])C6([H])C(C([H])([H])[H])(C([H])([H])[H])C(=O)C(=O)C([H])([H])C6(C([H])([H])[H])C3([H])C5([H])[H])N1C([H])([H])C(C([H])([H])[H])(C2([H])O[H])C4([H])[H]

$$$$
0:1:2
     RDKit          3D

 79 86  0  0  1  0  0  0  0  0999 V2000
   -0.7500   -7.6310    3.6107 C   0  0  0  0  0  0  0  0  0  0  0  0
    0.5624   -6.8783    3.7842 C   0  0  0  0  0  0  0  0  0  0  0  0
    1.1764   -6.3776    2.6592 C   0  0  0  0  0  0  0  0  0  0  0  0
    1.9926   -5.0473    2.5232 C   0  0  0  0  0  0  0  0  0  0  0  0
    3.5955   -4.9052    2.3585 C   0  0  2  0  0  0  0  0  0  0  0  0
    4.0408   -3.7956    1.3059 C   0  0  2  0  0  0  0  0  0  0  0  0
    3.3186   -2.4675    1.7261 C   0  0  0  0  0  0  0  0  0  0  0  0
    3.6440   -4.1426   -0.1538 C   0  0  0  0  0  0  0  0  0  0  0  0
    4.1344   -3.1435   -1.2063 C   0  0  0  0  0  0  0  0  0  0  0  0
    3.6028   -3.0851   -2.3115 O   0  0  0  0  0  0  0  0  0  0  0  0
    5.3318   -2.2208   -0.8843 C   0  0  0  0  0  0  0  0  0  0  0  0
    5.6181   -1.3093   -1.6607 O   0  0  0  0  0  0  0  0  0  0  0  0
    6.1593   -2.4249    0.4076 C   0  0  0  0  0  0  0  0  0  0  0  0
    7.6292   -2.6546   -0.0637 C   0  0  0  0  0  0  0  0  0  0  0  0
    6.2168   -1.0807    1.1895 C   0  0  0  0  0  0  0  0  0  0  0  0
    5.6063   -3.5898    1.3348 C   0  0  2  0  0  0  0  0  0  0  0  0
    6.3853   -4.9273    1.1384 C   0  0  0  0  0  0  0  0  0  0  0  0
    5.6434   -6.2416    1.4219 C   0  0  0  0  0  0  0  0  0  0  0  0
    4.5578   -6.1820    2.5273 C   0  0  1  0  0  0  0  0  0  0  0  0
    5.3628   -6.0254    3.6854 O   0  0  0  0  0  0  0  0  0  0  0  0
    3.7628   -7.5120    2.6235 C   0  0  2  0  0  0  0  0  0  0  0  0
    3.7196   -8.5458    1.6121 O   0  0  0  0  0  0  0  0  0  0  0  0
    2.8870   -7.4387    1.3243 C   0  0  1  0  0  0  0  0  0  0  0  0
    1.3745   -7.2821    1.4552 C   0  0  0  0  0  0  0  0  0  0  0  0
    3.2731   -8.0287    4.0558 C   0  0  2  0  0  0  0  0  0  0  0  0
    4.2178   -8.6075    5.1082 C   0  0  0  0  0  0  0  0  0  0  0  0
    3.5806   -9.1182    6.2172 C   0  0  0  0  0  0  0  0  0  0  0  0
    2.3898   -8.4249    6.9891 C   0  0  1  0  0  0  0  0  0  0  0  0
    2.7484   -7.3310    7.8111 O   0  0  0  0  0  0  0  0  0  0  0  0
    1.1839   -8.0806    6.1606 N   0  0  0  0  0  0  0  0  0  0  0  0
    0.7389   -9.4046    5.6999 C   0  0  0  0  0  0  0  0  0  0  0  0
    1.8501  -10.2024    4.9640 C   0  0  1  0  0  0  0  0  0  0  0  0
    1.2179  -11.5120    4.4506 C   0  0  0  0  0  0  0  0  0  0  0  0
    2.3783   -9.3422    3.7782 C   0  0  0  0  0  0  0  0  0  0  0  0
    3.0233  -10.4947    5.9455 C   0  0  1  0  0  0  0  0  0  0  0  0
    3.9811  -11.4040    5.4306 O   0  0  0  0  0  0  0  0  0  0  0  0
    1.2727   -6.9192    5.1902 C   0  0  1  0  0  0  0  0  0  0  0  0
    2.7388   -6.8065    4.8789 C   0  0  0  0  0  0  0  0  0  0  0  0
   -1.3456   -7.5927    4.5213 H   0  0  0  0  0  0  0  0  0  0  0  0
   -0.6195   -8.6623    3.2950 H   0  0  0  0  0  0  0  0  0  0  0  0
   -1.3406   -7.1532    2.8315 H   0  0  0  0  0  0  0  0  0  0  0  0
    1.5300   -4.5928    1.6534 H   0  0  0  0  0  0  0  0  0  0  0  0
    1.6794   -4.4102    3.3511 H   0  0  0  0  0  0  0  0  0  0  0  0
    3.8253   -4.3561    3.2749 H   0  0  0  0  0  0  0  0  0  0  0  0
    3.4388   -1.6574    1.0109 H   0  0  0  0  0  0  0  0  0  0  0  0
    3.6814   -2.1060    2.6914 H   0  0  0  0  0  0  0  0  0  0  0  0
    2.2389   -2.5680    1.8137 H   0  0  0  0  0  0  0  0  0  0  0  0
    4.0421   -5.1065   -0.4530 H   0  0  0  0  0  0  0  0  0  0  0  0
    2.5619   -4.2147   -0.2458 H   0  0  0  0  0  0  0  0  0  0  0  0
    8.2940   -2.9097    0.7643 H   0  0  0  0  0  0  0  0  0  0  0  0
    8.0514   -1.7681   -0.5352 H   0  0  0  0  0  0  0  0  0  0  0  0
    7.7129   -3.4325   -0.8265 H   0  0  0  0  0  0  0  0  0  0  0  0
    6.9446   -1.1300    2.0031 H   0  0  0  0  0  0  0  0  0  0  0  0
    5.2746   -0.7738    1.6376 H   0  0  0  0  0  0  0  0  0  0  0  0
    6.5334   -0.2564    0.5468 H   0  0  0  0  0  0  0  0  0  0  0  0
    5.8323   -3.2950    2.3630 H   0  0  0  0  0  0  0  0  0  0  0  0
    6.7349   -5.0349    0.1160 H   0  0  0  0  0  0  0  0  0  0  0  0
    7.2806   -4.8927    1.7589 H   0  0  0  0  0  0  0  0  0  0  0  0
    5.2404   -6.5690    0.4693 H   0  0  0  0  0  0  0  0  0  0  0  0
    6.3734   -7.0188    1.6576 H   0  0  0  0  0  0  0  0  0  0  0  0
    5.9242   -6.7827    3.7570 H   0  0  0  0  0  0  0  0  0  0  0  0
    3.2351   -6.9119    0.4524 H   0  0  0  0  0  0  0  0  0  0  0  0
    0.8655   -8.2405    1.4794 H   0  0  0  0  0  0  0  0  0  0  0  0
    0.9984   -6.7762    0.5647 H   0  0  0  0  0  0  0  0  0  0  0  0
    4.9276   -9.2520    4.6016 H   0  0  0  0  0  0  0  0  0  0  0  0
    2.0576   -9.1427    7.7427 H   0  0  0  0  0  0  0  0  0  0  0  0
    2.9894   -7.6747    8.6601 H   0  0  0  0  0  0  0  0  0  0  0  0
    0.4572   -9.9728    6.5882 H   0  0  0  0  0  0  0  0  0  0  0  0
   -0.1885   -9.3697    5.1491 H   0  0  0  0  0  0  0  0  0  0  0  0
    1.9318  -12.1143    3.8856 H   0  0  0  0  0  0  0  0  0  0  0  0
    0.3669  -11.3170    3.7943 H   0  0  0  0  0  0  0  0  0  0  0  0
    0.8541  -12.1243    5.2771 H   0  0  0  0  0  0  0  0  0  0  0  0
    1.5340   -9.1795    3.1344 H   0  0  0  0  0  0  0  0  0  0  0  0
    2.9950  -10.0477    3.2191 H   0  0  0  0  0  0  0  0  0  0  0  0
    2.6639  -10.9352    6.8709 H   0  0  0  0  0  0  0  0  0  0  0  0
    3.6278  -12.2775    5.5505 H   0  0  0  0  0  0  0  0  0  0  0  0
    0.9662   -6.0290    5.7405 H   0  0  0  0  0  0  0  0  0  0  0  0
    3.3634   -6.5544    5.7318 H   0  0  0  0  0  0  0  0  0  0  0  0
    2.9390   -5.8461    4.4855 H   0  0  0  0  0  0  0  0  0  0  0  0
  1  2  1  0
  1 39  1  0
  1 40  1  0
  1 41  1  0
  2 37  1  0
  2  3  2  3
  3 24  1  0
  3  4  1  0
  4  5  1  0
  4 42  1  0
  4 43  1  0
  5 19  1  0
  5  6  1  0
  5 44  1  1
  6 16  1  0
  6  7  1  1
  6  8  1  0
  7 45  1  0
  7 46  1  0
  7 47  1  0
  8  9  1  0
  8 48  1  0
  8 49  1  0
  9 10  2  0
  9 11  1  0
 11 12  2  0
 11 13  1  0
 13 14  1  0
 13 15  1  0
 13 16  1  0
 14 50  1  0
 14 51  1  0
 14 52  1  0
 15 53  1  0
 15 54  1  0
 15 55  1  0
 16 17  1  0
 16 56  1  1
 17 18  1  0
 17 57  1  0
 17 58  1  0
 18 19  1  0
 18 59  1  0
 18 60  1  0
 19 20  1  1
 19 21  1  0
 20 61  1  0
 21 23  1  0
 21 22  1  6
 21 25  1  0
 22 23  1  0
 23 24  1  0
 23 62  1  6
 24 63  1  0
 24 64  1  0
 25 34  1  6
 25 38  1  0
 25 26  1  0
 26 27  2  0
 26 65  1  0
 27 35  1  0
 27 28  1  0
 28 29  1  0
 28 30  1  0
 28 66  1  1
 29 67  1  0
 30 31  1  0
 30 37  1  0
 31 32  1  0
 31 68  1  0
 31 69  1  0
 32 33  1  6
 32 34  1  0
 32 35  1  0
 33 70  1  0
 33 71  1  0
 33 72  1  0
 34 73  1  0
 34 74  1  0
 35 36  1  0
 35 75  1  1
 36 76  1  0
 37 38  1  0
 37 77  1  1
 38 78  1  0
 38 79  1  0
M  END
>  <i_m_ct_stereo_status>  (6) 
1

>  <s_m_source_file>  (6) 
/var/tmp/pbs.5076255.sched01/tmpfev35gxg/05fxellcm.sdf

>  <i_m_source_file_index>  (6) 
2

>  <i_lp_mmshare_version>  (6) 
48012

>  <i_f3d_flags>  (6) 
0

>  <s_epik_input>  (6) 
W0NAXTEyM1tDQF00NVtDSF09QzZbQ0BASF0oW09IXSlOKFtDSDJdW0NAQF0oW0NIM10pKFtDSDJdNClbQ0BIXTZbT0hdKVtDQEBIXShbQ0gyXTUpQyhcW0NIM10pPUMoW0NIMl1bQ0BASF0zTzIpL1tDSDJdW0NAQEhdN1tDQEBdOChbQ0gzXSlbQ0BIXShDKFtDSDNdKShbQ0gzXSlDKD1PKUMoPU8pW0NIMl04KVtDSDJdW0NIMl1bQ0BdMTdbT0hd

>  <s_epik_cmdline>  (6) 
J2VwaWtfcHl0aG9uJywgJy1waHQnLCAnMi4wJywgJy1waCcsICc3LjAnLCAnLXRuJywgJzgnLCAnLW1hJywgJzIwMCcsICctaW1hZScsICc8aW5maWxlLm1hZT4nLCAnLW9tYWUnLCAnPG91dGZpbGUubWFlPic=

>  <r_epik_Ionization_Penalty>  (6) 
0.22255

>  <r_epik_Ionization_Penalty_Charging>  (6) 
0

>  <r_epik_Ionization_Penalty_Neutral>  (6) 
0.22255

>  <r_epik_State_Penalty>  (6) 
0.9634

>  <r_epik_Charging_Adjusted_Penalty>  (6) 
0.9634

>  <i_epik_Tot_Q>  (6) 
0

>  <i_epik_Tot_abs_Q>  (6) 
0

>  <s_epik_Chemistry_Notes>  (6) 
This compound contains an acetal/aminal-like group ( X-CH(R)-Y where X, Y are N, S, or O) that may be acid/base labile, releasing an aldehyde.

>  <s_lp_Force_Field>  (6) 
OPLS3e

>  <r_lp_Energy>  (6) 
261.491

>  <b_lp_Chiralities_Consistent>  (6) 
1

>  <s_lp_Variant>  (6) 
0:0-2

>  <s_i_glide_gridfile>  (6) 
pfpi4k_grid

>  <i_i_glide_lignum>  (6) 
2

>  <i_i_glide_rotatable_bonds>  (6) 
3

>  <r_i_docking_score>  (6) 
-3.03996

>  <r_i_glide_ligand_efficiency>  (6) 
-0.0799988

>  <r_i_glide_ligand_efficiency_sa>  (6) 
-0.268954

>  <r_i_glide_ligand_efficiency_ln>  (6) 
-0.655504

>  <r_i_glide_gscore>  (6) 
-3.03996

>  <r_i_glide_lipo>  (6) 
-0.612708

>  <r_i_glide_hbond>  (6) 
-0.0380474

>  <r_i_glide_metal>  (6) 
-0

>  <r_i_glide_rewards>  (6) 
0

>  <r_i_glide_evdw>  (6) 
-36.895

>  <r_i_glide_ecoul>  (6) 
-3.30986

>  <r_i_glide_erotb>  (6) 
0

>  <r_i_glide_esite>  (6) 
-0.04797

>  <r_i_glide_emodel>  (6) 
-47.6747

>  <r_i_glide_energy>  (6) 
-40.2049

>  <r_i_glide_einternal>  (6) 
0.571099

>  <r_i_glide_intrahb_reward>  (6) 
-0

>  <i_i_glide_confnum>  (6) 
1

>  <i_i_glide_posenum>  (6) 
1

>  <r_i_glide_eff_state_penalty>  (6) 
0

>  <ligand_id>  (6) 
0

>  <original_smiles>  (6) 
CC1=C2CC3C4(C)CC(=O)C(=O)C(C)(C)C4CCC3(O)C3(OC3C2)C23C=C4C(O)N(CC(C)(C2)C4O)C1C3

>  <smiles>  (6) 
[H]OC1([H])C2=C([H])C34C([H])([H])C([H])(C(C([H])([H])[H])=C5C([H])([H])C6([H])OC63C3(O[H])C([H])([H])C([H])([H])C6([H])C(C([H])([H])[H])(C([H])([H])[H])C(=O)C(=O)C([H])([H])C6(C([H])([H])[H])C3([H])C5([H])[H])N1C([H])([H])C(C([H])([H])[H])(C2([H])O[H])C4([H])[H]

$$$$
0:2:0
     RDKit          3D

 79 86  0  0  1  0  0  0  0  0999 V2000
    5.9865   -1.4745    1.1388 C   0  0  0  0  0  0  0  0  0  0  0  0
    5.6609   -2.3062    2.3727 C   0  0  0  0  0  0  0  0  0  0  0  0
    5.1928   -1.7089    3.5147 C   0  0  0  0  0  0  0  0  0  0  0  0
    4.2113   -0.5270    3.4838 C   0  0  0  0  0  0  0  0  0  0  0  0
    2.6478   -0.8887    3.3898 C   0  0  2  0  0  0  0  0  0  0  0  0
    1.7646    0.4541    3.2485 C   0  0  2  0  0  0  0  0  0  0  0  0
    1.6127    0.6737    1.7172 C   0  0  0  0  0  0  0  0  0  0  0  0
    2.4807    1.7026    3.8469 C   0  0  0  0  0  0  0  0  0  0  0  0
    1.6725    3.0001    3.8371 C   0  0  0  0  0  0  0  0  0  0  0  0
    2.2149    4.0748    3.5809 O   0  0  0  0  0  0  0  0  0  0  0  0
    0.1835    2.9287    4.2028 C   0  0  0  0  0  0  0  0  0  0  0  0
   -0.3779    3.8964    4.7204 O   0  0  0  0  0  0  0  0  0  0  0  0
   -0.5869    1.6251    3.8974 C   0  0  0  0  0  0  0  0  0  0  0  0
   -1.7700    1.5012    4.9021 C   0  0  0  0  0  0  0  0  0  0  0  0
   -1.2460    1.7787    2.5021 C   0  0  0  0  0  0  0  0  0  0  0  0
    0.3525    0.3497    3.9604 C   0  0  2  0  0  0  0  0  0  0  0  0
    0.5019   -0.1930    5.4188 C   0  0  0  0  0  0  0  0  0  0  0  0
    1.6690   -1.1751    5.6582 C   0  0  0  0  0  0  0  0  0  0  0  0
    2.0563   -1.9983    4.3994 C   0  0  1  0  0  0  0  0  0  0  0  0
    0.8037   -2.5371    4.0209 O   0  0  0  0  0  0  0  0  0  0  0  0
    2.9879   -3.2771    4.5802 C   0  0  2  0  0  0  0  0  0  0  0  0
    3.4740   -3.9242    5.7791 O   0  0  0  0  0  0  0  0  0  0  0  0
    4.0408   -2.6574    5.5563 C   0  0  1  0  0  0  0  0  0  0  0  0
    5.3599   -2.2448    4.9483 C   0  0  0  0  0  0  0  0  0  0  0  0
    3.2557   -4.2850    3.3424 C   0  0  2  0  0  0  0  0  0  0  0  0
    2.4531   -3.8342    2.0758 C   0  0  0  0  0  0  0  0  0  0  0  0
    2.6144   -4.3741    0.8431 C   0  0  0  0  0  0  0  0  0  0  0  0
    3.9114   -4.2090    0.0687 C   0  0  1  0  0  0  0  0  0  0  0  0
    4.0570   -2.8980   -0.4212 O   0  0  0  0  0  0  0  0  0  0  0  0
    5.0830   -4.6110    0.8887 N   0  0  0  0  0  0  0  0  0  0  0  0
    4.7551   -6.0685    1.1524 C   0  0  0  0  0  0  0  0  0  0  0  0
    3.3069   -6.4333    1.8249 C   0  0  1  0  0  0  0  0  0  0  0  0
    3.1805   -7.9695    1.8717 C   0  0  0  0  0  0  0  0  0  0  0  0
    2.9192   -5.8195    3.2916 C   0  0  0  0  0  0  0  0  0  0  0  0
    2.2954   -5.8547    0.8111 C   0  0  1  0  0  0  0  0  0  0  0  0
    0.9372   -6.1466    1.1087 O   0  0  0  0  0  0  0  0  0  0  0  0
    5.4152   -3.8273    2.1407 C   0  0  1  0  0  0  0  0  0  0  0  0
    4.8000   -4.5335    3.3027 C   0  0  0  0  0  0  0  0  0  0  0  0
    6.4576   -2.0902    0.3724 H   0  0  0  0  0  0  0  0  0  0  0  0
    6.6930   -0.6882    1.4013 H   0  0  0  0  0  0  0  0  0  0  0  0
    5.1043   -0.9907    0.7273 H   0  0  0  0  0  0  0  0  0  0  0  0
    4.4209    0.0748    4.3686 H   0  0  0  0  0  0  0  0  0  0  0  0
    4.4761    0.1057    2.6370 H   0  0  0  0  0  0  0  0  0  0  0  0
    2.5851   -1.3798    2.4238 H   0  0  0  0  0  0  0  0  0  0  0  0
    1.3609    1.6958    1.4487 H   0  0  0  0  0  0  0  0  0  0  0  0
    0.8504    0.0183    1.2922 H   0  0  0  0  0  0  0  0  0  0  0  0
    2.5439    0.4699    1.1852 H   0  0  0  0  0  0  0  0  0  0  0  0
    2.7559    1.5218    4.8840 H   0  0  0  0  0  0  0  0  0  0  0  0
    3.3998    1.9117    3.3011 H   0  0  0  0  0  0  0  0  0  0  0  0
   -2.3089    0.5619    4.7632 H   0  0  0  0  0  0  0  0  0  0  0  0
   -2.4918    2.3143    4.7817 H   0  0  0  0  0  0  0  0  0  0  0  0
   -1.4431    1.5551    5.9444 H   0  0  0  0  0  0  0  0  0  0  0  0
   -1.5276    0.8199    2.0668 H   0  0  0  0  0  0  0  0  0  0  0  0
   -0.6051    2.2890    1.7865 H   0  0  0  0  0  0  0  0  0  0  0  0
   -2.1531    2.3853    2.5499 H   0  0  0  0  0  0  0  0  0  0  0  0
   -0.1990   -0.4133    3.4142 H   0  0  0  0  0  0  0  0  0  0  0  0
    0.5933    0.6203    6.1382 H   0  0  0  0  0  0  0  0  0  0  0  0
   -0.4165   -0.7233    5.6762 H   0  0  0  0  0  0  0  0  0  0  0  0
    2.5077   -0.5412    5.9492 H   0  0  0  0  0  0  0  0  0  0  0  0
    1.4485   -1.8204    6.5108 H   0  0  0  0  0  0  0  0  0  0  0  0
    0.9079   -2.9633    3.1879 H   0  0  0  0  0  0  0  0  0  0  0  0
    3.8242   -2.0631    6.4371 H   0  0  0  0  0  0  0  0  0  0  0  0
    6.1744   -2.9525    5.1143 H   0  0  0  0  0  0  0  0  0  0  0  0
    5.7160   -1.3935    5.5308 H   0  0  0  0  0  0  0  0  0  0  0  0
    1.4405   -4.0611    2.3655 H   0  0  0  0  0  0  0  0  0  0  0  0
    3.8756   -4.8149   -0.8342 H   0  0  0  0  0  0  0  0  0  0  0  0
    3.2154   -2.4675   -0.3513 H   0  0  0  0  0  0  0  0  0  0  0  0
    4.7892   -6.5559    0.1739 H   0  0  0  0  0  0  0  0  0  0  0  0
    5.5845   -6.5423    1.6825 H   0  0  0  0  0  0  0  0  0  0  0  0
    2.2032   -8.2843    2.2407 H   0  0  0  0  0  0  0  0  0  0  0  0
    3.9321   -8.4059    2.5318 H   0  0  0  0  0  0  0  0  0  0  0  0
    3.3179   -8.4153    0.8858 H   0  0  0  0  0  0  0  0  0  0  0  0
    3.4015   -6.3812    4.0951 H   0  0  0  0  0  0  0  0  0  0  0  0
    1.8594   -5.9741    3.4954 H   0  0  0  0  0  0  0  0  0  0  0  0
    2.4714   -6.2573   -0.1855 H   0  0  0  0  0  0  0  0  0  0  0  0
    0.8484   -7.0889    1.1689 H   0  0  0  0  0  0  0  0  0  0  0  0
    4.5990   -3.2035    1.8716 H   0  0  0  0  0  0  0  0  0  0  0  0
    5.2840   -4.4434    4.2475 H   0  0  0  0  0  0  0  0  0  0  0  0
    5.1594   -5.5547    3.3675 H   0  0  0  0  0  0  0  0  0  0  0  0
  1  2  1  0
  1 39  1  0
  1 40  1  0
  1 41  1  0
  2 37  1  0
  2  3  2  3
  3 24  1  0
  3  4  1  0
  4  5  1  0
  4 42  1  0
  4 43  1  0
  5 19  1  0
  5  6  1  0
  5 44  1  6
  6 16  1  0
  6  7  1  6
  6  8  1  0
  7 45  1  0
  7 46  1  0
  7 47  1  0
  8  9  1  0
  8 48  1  0
  8 49  1  0
  9 10  2  0
  9 11  1  0
 11 12  2  0
 11 13  1  0
 13 14  1  0
 13 15  1  0
 13 16  1  0
 14 50  1  0
 14 51  1  0
 14 52  1  0
 15 53  1  0
 15 54  1  0
 15 55  1  0
 16 17  1  0
 16 56  1  6
 17 18  1  0
 17 57  1  0
 17 58  1  0
 18 19  1  0
 18 59  1  0
 18 60  1  0
 19 20  1  6
 19 21  1  0
 20 61  1  0
 21 23  1  0
 21 22  1  1
 21 25  1  0
 22 23  1  0
 23 24  1  0
 23 62  1  1
 24 63  1  0
 24 64  1  0
 25 34  1  1
 25 38  1  0
 25 26  1  0
 26 27  2  0
 26 65  1  0
 27 35  1  0
 27 28  1  0
 28 29  1  0
 28 30  1  0
 28 66  1  6
 29 67  1  0
 30 31  1  0
 30 37  1  0
 31 32  1  0
 31 68  1  0
 31 69  1  0
 32 33  1  1
 32 34  1  0
 32 35  1  0
 33 70  1  0
 33 71  1  0
 33 72  1  0
 34 73  1  0
 34 74  1  0
 35 36  1  0
 35 75  1  6
 36 76  1  0
 37 38  1  0
 37 77  1  1
 38 78  1  0
 38 79  1  0
M  END
>  <i_m_ct_stereo_status>  (7) 
1

>  <s_m_source_file>  (7) 
/var/tmp/pbs.5076255.sched01/tmpfev35gxg/05fxellcm.sdf

>  <i_m_source_file_index>  (7) 
3

>  <i_lp_mmshare_version>  (7) 
48012

>  <i_f3d_flags>  (7) 
0

>  <s_epik_input>  (7) 
W0NAXTEyM1tDQF00NVtDSF09QzZbQ0BASF0oW09IXSlOKFtDSDJdW0NAQF0oW0NIM10pKFtDSDJdNClbQ0BIXTZbT0hdKVtDQEBIXShbQ0gyXTUpQyhcW0NIM10pPUMoW0NIMl1bQ0BASF0zTzIpL1tDSDJdW0NAQEhdN1tDQEBdOChbQ0gzXSlbQ0BIXShDKFtDSDNdKShbQ0gzXSlDKD1PKUMoPU8pW0NIMl04KVtDSDJdW0NIMl1bQ0BdMTdbT0hd

>  <s_epik_cmdline>  (7) 
J2VwaWtfcHl0aG9uJywgJy1waHQnLCAnMi4wJywgJy1waCcsICc3LjAnLCAnLXRuJywgJzgnLCAnLW1hJywgJzIwMCcsICctaW1hZScsICc8aW5maWxlLm1hZT4nLCAnLW9tYWUnLCAnPG91dGZpbGUubWFlPic=

>  <r_epik_Ionization_Penalty>  (7) 
0.22255

>  <r_epik_Ionization_Penalty_Charging>  (7) 
0

>  <r_epik_Ionization_Penalty_Neutral>  (7) 
0.22255

>  <r_epik_State_Penalty>  (7) 
0.9634

>  <r_epik_Charging_Adjusted_Penalty>  (7) 
0.9634

>  <i_epik_Tot_Q>  (7) 
0

>  <i_epik_Tot_abs_Q>  (7) 
0

>  <s_epik_Chemistry_Notes>  (7) 
This compound contains an acetal/aminal-like group ( X-CH(R)-Y where X, Y are N, S, or O) that may be acid/base labile, releasing an aldehyde.

>  <s_lp_Force_Field>  (7) 
OPLS3e

>  <r_lp_Energy>  (7) 
306.103

>  <b_lp_Chiralities_Consistent>  (7) 
1

>  <s_lp_Variant>  (7) 
0:0-3

>  <s_i_glide_gridfile>  (7) 
pfpi4k_grid

>  <i_i_glide_lignum>  (7) 
3

>  <i_i_glide_rotatable_bonds>  (7) 
3

>  <r_i_docking_score>  (7) 
-3.46195

>  <r_i_glide_ligand_efficiency>  (7) 
-0.0911039

>  <r_i_glide_ligand_efficiency_sa>  (7) 
-0.306289

>  <r_i_glide_ligand_efficiency_ln>  (7) 
-0.746498

>  <r_i_glide_gscore>  (7) 
-3.46195

>  <r_i_glide_lipo>  (7) 
-0.494797

>  <r_i_glide_hbond>  (7) 
-0.16

>  <r_i_glide_metal>  (7) 
-0

>  <r_i_glide_rewards>  (7) 
0

>  <r_i_glide_evdw>  (7) 
-31.135

>  <r_i_glide_ecoul>  (7) 
-7.85357

>  <r_i_glide_erotb>  (7) 
0

>  <r_i_glide_esite>  (7) 
-0.0723682

>  <r_i_glide_emodel>  (7) 
-47.0014

>  <r_i_glide_energy>  (7) 
-38.9885

>  <r_i_glide_einternal>  (7) 
0.908621

>  <r_i_glide_intrahb_reward>  (7) 
-0

>  <i_i_glide_confnum>  (7) 
2

>  <i_i_glide_posenum>  (7) 
31

>  <r_i_glide_eff_state_penalty>  (7) 
0

>  <ligand_id>  (7) 
0

>  <original_smiles>  (7) 
CC1=C2CC3C4(C)CC(=O)C(=O)C(C)(C)C4CCC3(O)C3(OC3C2)C23C=C4C(O)N(CC(C)(C2)C4O)C1C3

>  <smiles>  (7) 
[H]OC1([H])C2=C([H])C34C([H])([H])C([H])(C(C([H])([H])[H])=C5C([H])([H])C6([H])OC63C3(O[H])C([H])([H])C([H])([H])C6([H])C(C([H])([H])[H])(C([H])([H])[H])C(=O)C(=O)C([H])([H])C6(C([H])([H])[H])C3([H])C5([H])[H])N1C([H])([H])C(C([H])([H])[H])(C2([H])O[H])C4([H])[H]

$$$$
0:2:1
     RDKit          3D

 79 86  0  0  1  0  0  0  0  0999 V2000
    0.5179   -2.6764    6.8266 C   0  0  0  0  0  0  0  0  0  0  0  0
    1.2977   -1.3736    6.9304 C   0  0  0  0  0  0  0  0  0  0  0  0
    2.6166   -1.3235    6.5453 C   0  0  0  0  0  0  0  0  0  0  0  0
    3.1685   -2.1153    5.3439 C   0  0  0  0  0  0  0  0  0  0  0  0
    3.0571   -1.4236    3.8917 C   0  0  2  0  0  0  0  0  0  0  0  0
    3.5746   -2.4342    2.7450 C   0  0  2  0  0  0  0  0  0  0  0  0
    2.3032   -3.1919    2.2795 C   0  0  0  0  0  0  0  0  0  0  0  0
    4.5955   -3.4851    3.2740 C   0  0  0  0  0  0  0  0  0  0  0  0
    5.1966   -4.4138    2.2292 C   0  0  0  0  0  0  0  0  0  0  0  0
    5.3573   -5.6038    2.4775 O   0  0  0  0  0  0  0  0  0  0  0  0
    5.6265   -3.8151    0.8904 C   0  0  0  0  0  0  0  0  0  0  0  0
    6.5347   -4.3042    0.2358 O   0  0  0  0  0  0  0  0  0  0  0  0
    4.8388   -2.5999    0.3636 C   0  0  0  0  0  0  0  0  0  0  0  0
    5.7787   -1.7824   -0.5831 C   0  0  0  0  0  0  0  0  0  0  0  0
    3.7045   -3.1173   -0.5699 C   0  0  0  0  0  0  0  0  0  0  0  0
    4.2726   -1.6909    1.5281 C   0  0  2  0  0  0  0  0  0  0  0  0
    5.3483   -0.6897    2.0530 C   0  0  0  0  0  0  0  0  0  0  0  0
    5.0550   -0.0379    3.4286 C   0  0  0  0  0  0  0  0  0  0  0  0
    3.5388    0.1056    3.7363 C   0  0  1  0  0  0  0  0  0  0  0  0
    3.0725    0.7587    2.5774 O   0  0  0  0  0  0  0  0  0  0  0  0
    3.0899    1.0437    4.9425 C   0  0  2  0  0  0  0  0  0  0  0  0
    3.8472    1.9625    5.7458 O   0  0  0  0  0  0  0  0  0  0  0  0
    4.1365    0.6111    5.9860 C   0  0  1  0  0  0  0  0  0  0  0  0
    3.6687   -0.3443    7.0781 C   0  0  0  0  0  0  0  0  0  0  0  0
    1.5123    1.3707    5.1516 C   0  0  2  0  0  0  0  0  0  0  0  0
    0.6328    0.6854    4.0583 C   0  0  0  0  0  0  0  0  0  0  0  0
   -0.7197    0.6404    4.0915 C   0  0  0  0  0  0  0  0  0  0  0  0
   -1.4465   -0.1397    5.1800 C   0  0  1  0  0  0  0  0  0  0  0  0
   -1.3601   -1.5167    5.0088 O   0  0  0  0  0  0  0  0  0  0  0  0
   -0.9782    0.2102    6.5421 N   0  0  0  0  0  0  0  0  0  0  0  0
   -1.3277    1.6839    6.5730 C   0  0  0  0  0  0  0  0  0  0  0  0
   -0.7626    2.6500    5.3727 C   0  0  1  0  0  0  0  0  0  0  0  0
   -1.3598    4.0522    5.5765 C   0  0  0  0  0  0  0  0  0  0  0  0
    0.8484    2.7932    5.1411 C   0  0  0  0  0  0  0  0  0  0  0  0
   -1.3491    2.0038    4.1031 C   0  0  1  0  0  0  0  0  0  0  0  0
   -1.1431    2.7241    2.9124 O   0  0  0  0  0  0  0  0  0  0  0  0
    0.4632   -0.0602    6.9300 C   0  0  1  0  0  0  0  0  0  0  0  0
    1.2552    1.1833    6.6840 C   0  0  0  0  0  0  0  0  0  0  0  0
   -0.4730   -2.5689    7.2628 H   0  0  0  0  0  0  0  0  0  0  0  0
    1.0362   -3.4564    7.3879 H   0  0  0  0  0  0  0  0  0  0  0  0
    0.4321   -3.0257    5.8002 H   0  0  0  0  0  0  0  0  0  0  0  0
    4.2113   -2.3534    5.5764 H   0  0  0  0  0  0  0  0  0  0  0  0
    2.6615   -3.0776    5.3126 H   0  0  0  0  0  0  0  0  0  0  0  0
    1.9807   -1.3554    3.7511 H   0  0  0  0  0  0  0  0  0  0  0  0
    2.5127   -4.1289    1.7725 H   0  0  0  0  0  0  0  0  0  0  0  0
    1.7074   -2.5679    1.6080 H   0  0  0  0  0  0  0  0  0  0  0  0
    1.6615   -3.4675    3.1181 H   0  0  0  0  0  0  0  0  0  0  0  0
    5.4259   -2.9863    3.7740 H   0  0  0  0  0  0  0  0  0  0  0  0
    4.1182   -4.1262    4.0219 H   0  0  0  0  0  0  0  0  0  0  0  0
    5.3000   -0.8651   -0.9430 H   0  0  0  0  0  0  0  0  0  0  0  0
    6.0782   -2.3593   -1.4653 H   0  0  0  0  0  0  0  0  0  0  0  0
    6.7129   -1.5030   -0.0900 H   0  0  0  0  0  0  0  0  0  0  0  0
    2.9222   -2.3687   -0.7178 H   0  0  0  0  0  0  0  0  0  0  0  0
    3.2284   -4.0219   -0.1961 H   0  0  0  0  0  0  0  0  0  0  0  0
    4.0744   -3.3921   -1.5604 H   0  0  0  0  0  0  0  0  0  0  0  0
    3.4964   -1.0848    1.0550 H   0  0  0  0  0  0  0  0  0  0  0  0
    6.3420   -1.1419    2.0941 H   0  0  0  0  0  0  0  0  0  0  0  0
    5.4248    0.1200    1.3251 H   0  0  0  0  0  0  0  0  0  0  0  0
    5.5164   -0.7084    4.1507 H   0  0  0  0  0  0  0  0  0  0  0  0
    5.5747    0.9148    3.5157 H   0  0  0  0  0  0  0  0  0  0  0  0
    3.5552    1.5728    2.4830 H   0  0  0  0  0  0  0  0  0  0  0  0
    5.2033    0.4907    5.8195 H   0  0  0  0  0  0  0  0  0  0  0  0
    3.4498    0.1332    8.0289 H   0  0  0  0  0  0  0  0  0  0  0  0
    4.5348   -0.9514    7.3399 H   0  0  0  0  0  0  0  0  0  0  0  0
    0.9013    1.2255    3.1670 H   0  0  0  0  0  0  0  0  0  0  0  0
   -2.5222    0.0479    5.1056 H   0  0  0  0  0  0  0  0  0  0  0  0
   -0.7186   -1.6656    4.3168 H   0  0  0  0  0  0  0  0  0  0  0  0
   -2.4202    1.7363    6.5306 H   0  0  0  0  0  0  0  0  0  0  0  0
   -1.1212    2.1058    7.5631 H   0  0  0  0  0  0  0  0  0  0  0  0
   -1.0862    4.7264    4.7631 H   0  0  0  0  0  0  0  0  0  0  0  0
   -1.0151    4.5053    6.5101 H   0  0  0  0  0  0  0  0  0  0  0  0
   -2.4488    4.0146    5.6177 H   0  0  0  0  0  0  0  0  0  0  0  0
    1.2920    3.4816    5.8695 H   0  0  0  0  0  0  0  0  0  0  0  0
    1.0439    3.2911    4.1940 H   0  0  0  0  0  0  0  0  0  0  0  0
   -2.4364    1.9217    4.1755 H   0  0  0  0  0  0  0  0  0  0  0  0
   -0.2132    2.8359    2.7314 H   0  0  0  0  0  0  0  0  0  0  0  0
    0.5564   -0.4989    5.9654 H   0  0  0  0  0  0  0  0  0  0  0  0
    2.1065    1.3425    7.3056 H   0  0  0  0  0  0  0  0  0  0  0  0
    0.8504    2.0145    7.2556 H   0  0  0  0  0  0  0  0  0  0  0  0
  1  2  1  0
  1 39  1  0
  1 40  1  0
  1 41  1  0
  2 37  1  0
  2  3  2  3
  3 24  1  0
  3  4  1  0
  4  5  1  0
  4 42  1  0
  4 43  1  0
  5 19  1  0
  5  6  1  0
  5 44  1  6
  6 16  1  0
  6  7  1  6
  6  8  1  0
  7 45  1  0
  7 46  1  0
  7 47  1  0
  8  9  1  0
  8 48  1  0
  8 49  1  0
  9 10  2  0
  9 11  1  0
 11 12  2  0
 11 13  1  0
 13 14  1  0
 13 15  1  0
 13 16  1  0
 14 50  1  0
 14 51  1  0
 14 52  1  0
 15 53  1  0
 15 54  1  0
 15 55  1  0
 16 17  1  0
 16 56  1  6
 17 18  1  0
 17 57  1  0
 17 58  1  0
 18 19  1  0
 18 59  1  0
 18 60  1  0
 19 20  1  6
 19 21  1  0
 20 61  1  0
 21 23  1  0
 21 22  1  6
 21 25  1  0
 22 23  1  0
 23 24  1  0
 23 62  1  6
 24 63  1  0
 24 64  1  0
 25 34  1  6
 25 38  1  0
 25 26  1  0
 26 27  2  0
 26 65  1  0
 27 35  1  0
 27 28  1  0
 28 29  1  0
 28 30  1  0
 28 66  1  1
 29 67  1  0
 30 31  1  0
 30 37  1  0
 31 32  1  0
 31 68  1  0
 31 69  1  0
 32 33  1  1
 32 34  1  0
 32 35  1  0
 33 70  1  0
 33 71  1  0
 33 72  1  0
 34 73  1  0
 34 74  1  0
 35 36  1  0
 35 75  1  1
 36 76  1  0
 37 38  1  0
 37 77  1  1
 38 78  1  0
 38 79  1  0
M  END
>  <i_m_ct_stereo_status>  (8) 
1

>  <s_m_source_file>  (8) 
/var/tmp/pbs.5076255.sched01/tmpfev35gxg/05fxellcm.sdf

>  <i_m_source_file_index>  (8) 
3

>  <i_lp_mmshare_version>  (8) 
48012

>  <i_f3d_flags>  (8) 
0

>  <s_epik_input>  (8) 
W0NAXTEyM1tDQF00NVtDSF09QzZbQ0BASF0oW09IXSlOKFtDSDJdW0NAQF0oW0NIM10pKFtDSDJdNClbQ0BIXTZbT0hdKVtDQEBIXShbQ0gyXTUpQyhcW0NIM10pPUMoW0NIMl1bQ0BASF0zTzIpL1tDSDJdW0NAQEhdN1tDQEBdOChbQ0gzXSlbQ0BIXShDKFtDSDNdKShbQ0gzXSlDKD1PKUMoPU8pW0NIMl04KVtDSDJdW0NIMl1bQ0BdMTdbT0hd

>  <s_epik_cmdline>  (8) 
J2VwaWtfcHl0aG9uJywgJy1waHQnLCAnMi4wJywgJy1waCcsICc3LjAnLCAnLXRuJywgJzgnLCAnLW1hJywgJzIwMCcsICctaW1hZScsICc8aW5maWxlLm1hZT4nLCAnLW9tYWUnLCAnPG91dGZpbGUubWFlPic=

>  <r_epik_Ionization_Penalty>  (8) 
0.22255

>  <r_epik_Ionization_Penalty_Charging>  (8) 
0

>  <r_epik_Ionization_Penalty_Neutral>  (8) 
0.22255

>  <r_epik_State_Penalty>  (8) 
0.9634

>  <r_epik_Charging_Adjusted_Penalty>  (8) 
0.9634

>  <i_epik_Tot_Q>  (8) 
0

>  <i_epik_Tot_abs_Q>  (8) 
0

>  <s_epik_Chemistry_Notes>  (8) 
This compound contains an acetal/aminal-like group ( X-CH(R)-Y where X, Y are N, S, or O) that may be acid/base labile, releasing an aldehyde.

>  <s_lp_Force_Field>  (8) 
OPLS3e

>  <r_lp_Energy>  (8) 
306.103

>  <b_lp_Chiralities_Consistent>  (8) 
1

>  <s_lp_Variant>  (8) 
0:0-3

>  <s_i_glide_gridfile>  (8) 
pfpi4k_grid

>  <i_i_glide_lignum>  (8) 
3

>  <i_i_glide_rotatable_bonds>  (8) 
3

>  <r_i_docking_score>  (8) 
-3.11372

>  <r_i_glide_ligand_efficiency>  (8) 
-0.0819399

>  <r_i_glide_ligand_efficiency_sa>  (8) 
-0.27548

>  <r_i_glide_ligand_efficiency_ln>  (8) 
-0.671409

>  <r_i_glide_gscore>  (8) 
-3.11372

>  <r_i_glide_lipo>  (8) 
-0.256704

>  <r_i_glide_hbond>  (8) 
-0.0767978

>  <r_i_glide_metal>  (8) 
-0

>  <r_i_glide_rewards>  (8) 
-0.123148

>  <r_i_glide_evdw>  (8) 
-31.9454

>  <r_i_glide_ecoul>  (8) 
-6.76488

>  <r_i_glide_erotb>  (8) 
0

>  <r_i_glide_esite>  (8) 
-0.0450673

>  <r_i_glide_emodel>  (8) 
-46.1085

>  <r_i_glide_energy>  (8) 
-38.7102

>  <r_i_glide_einternal>  (8) 
0.397245

>  <r_i_glide_intrahb_reward>  (8) 
-0

>  <i_i_glide_confnum>  (8) 
2

>  <i_i_glide_posenum>  (8) 
15

>  <r_i_glide_eff_state_penalty>  (8) 
0

>  <ligand_id>  (8) 
0

>  <original_smiles>  (8) 
CC1=C2CC3C4(C)CC(=O)C(=O)C(C)(C)C4CCC3(O)C3(OC3C2)C23C=C4C(O)N(CC(C)(C2)C4O)C1C3

>  <smiles>  (8) 
[H]OC1([H])C2=C([H])C34C([H])([H])C([H])(C(C([H])([H])[H])=C5C([H])([H])C6([H])OC63C3(O[H])C([H])([H])C([H])([H])C6([H])C(C([H])([H])[H])(C([H])([H])[H])C(=O)C(=O)C([H])([H])C6(C([H])([H])[H])C3([H])C5([H])[H])N1C([H])([H])C(C([H])([H])[H])(C2([H])O[H])C4([H])[H]

$$$$
0:2:2
     RDKit          3D

 79 86  0  0  1  0  0  0  0  0999 V2000
    0.5424   -2.7300    6.9390 C   0  0  0  0  0  0  0  0  0  0  0  0
    1.3126   -1.4178    6.9880 C   0  0  0  0  0  0  0  0  0  0  0  0
    2.6338   -1.3767    6.6130 C   0  0  0  0  0  0  0  0  0  0  0  0
    3.1914   -2.2109    5.4428 C   0  0  0  0  0  0  0  0  0  0  0  0
    3.0737   -1.5829    3.9669 C   0  0  2  0  0  0  0  0  0  0  0  0
    3.6028   -2.6274    2.8564 C   0  0  2  0  0  0  0  0  0  0  0  0
    2.3380   -3.4138    2.4167 C   0  0  0  0  0  0  0  0  0  0  0  0
    4.6299   -3.6440    3.4371 C   0  0  0  0  0  0  0  0  0  0  0  0
    5.2469   -4.6107    2.4281 C   0  0  0  0  0  0  0  0  0  0  0  0
    5.4188   -5.7946    2.7139 O   0  0  0  0  0  0  0  0  0  0  0  0
    5.6665   -4.0620    1.0582 C   0  0  0  0  0  0  0  0  0  0  0  0
    6.5943   -4.5839    0.4431 O   0  0  0  0  0  0  0  0  0  0  0  0
    4.8750   -2.8723    0.4732 C   0  0  0  0  0  0  0  0  0  0  0  0
    5.8132   -2.0861   -0.4921 C   0  0  0  0  0  0  0  0  0  0  0  0
    3.7450   -3.4429   -0.4276 C   0  0  0  0  0  0  0  0  0  0  0  0
    4.3036   -1.9301    1.6133 C   0  0  2  0  0  0  0  0  0  0  0  0
    5.3653   -0.8883    2.0925 C   0  0  0  0  0  0  0  0  0  0  0  0
    5.0621   -0.1958    3.4404 C   0  0  0  0  0  0  0  0  0  0  0  0
    3.5455   -0.0587    3.7449 C   0  0  1  0  0  0  0  0  0  0  0  0
    3.0706    0.5369    2.5525 O   0  0  0  0  0  0  0  0  0  0  0  0
    3.0802    0.9384    4.8948 C   0  0  2  0  0  0  0  0  0  0  0  0
    3.8334    1.8913    5.6770 O   0  0  0  0  0  0  0  0  0  0  0  0
    4.1399    0.5541    5.9808 C   0  0  1  0  0  0  0  0  0  0  0  0
    3.6713   -0.3557    7.1007 C   0  0  0  0  0  0  0  0  0  0  0  0
    1.5094    1.2616    5.1093 C   0  0  2  0  0  0  0  0  0  0  0  0
    0.6297    0.5238    4.0370 C   0  0  0  0  0  0  0  0  0  0  0  0
   -0.7222    0.4561    4.0807 C   0  0  0  0  0  0  0  0  0  0  0  0
   -1.4423   -0.2837    5.2021 C   0  0  1  0  0  0  0  0  0  0  0  0
   -1.3429   -1.6730    5.0688 O   0  0  0  0  0  0  0  0  0  0  0  0
   -0.9820    0.1412    6.5451 N   0  0  0  0  0  0  0  0  0  0  0  0
   -1.3471    1.6139    6.5123 C   0  0  0  0  0  0  0  0  0  0  0  0
   -0.7854    2.5270    5.2756 C   0  0  1  0  0  0  0  0  0  0  0  0
   -1.3960    3.9316    5.4184 C   0  0  0  0  0  0  0  0  0  0  0  0
    0.8248    2.6737    5.0357 C   0  0  0  0  0  0  0  0  0  0  0  0
   -1.3676    1.8226    4.0315 C   0  0  1  0  0  0  0  0  0  0  0  0
   -1.1547    2.5039    2.8110 O   0  0  0  0  0  0  0  0  0  0  0  0
    0.4621   -0.1094    6.9403 C   0  0  1  0  0  0  0  0  0  0  0  0
    1.2458    1.1256    6.6475 C   0  0  0  0  0  0  0  0  0  0  0  0
   -0.4525   -2.6150    7.3660 H   0  0  0  0  0  0  0  0  0  0  0  0
    1.0636   -3.4827    7.5317 H   0  0  0  0  0  0  0  0  0  0  0  0
    0.4627   -3.1208    5.9268 H   0  0  0  0  0  0  0  0  0  0  0  0
    4.2324   -2.4275    5.6854 H   0  0  0  0  0  0  0  0  0  0  0  0
    2.6901   -3.1766    5.4503 H   0  0  0  0  0  0  0  0  0  0  0  0
    1.9998   -1.5288    3.8245 H   0  0  0  0  0  0  0  0  0  0  0  0
    2.5581   -4.3687    1.9485 H   0  0  0  0  0  0  0  0  0  0  0  0
    1.7451   -2.8208    1.7177 H   0  0  0  0  0  0  0  0  0  0  0  0
    1.6962   -3.6607    3.2645 H   0  0  0  0  0  0  0  0  0  0  0  0
    5.4582   -3.1193    3.9072 H   0  0  0  0  0  0  0  0  0  0  0  0
    4.1611   -4.2608    4.2024 H   0  0  0  0  0  0  0  0  0  0  0  0
    5.3261   -1.1918   -0.8876 H   0  0  0  0  0  0  0  0  0  0  0  0
    6.1191   -2.6936   -1.3482 H   0  0  0  0  0  0  0  0  0  0  0  0
    6.7442   -1.7788   -0.0078 H   0  0  0  0  0  0  0  0  0  0  0  0
    2.9593   -2.7072   -0.6102 H   0  0  0  0  0  0  0  0  0  0  0  0
    3.2772   -4.3371   -0.0189 H   0  0  0  0  0  0  0  0  0  0  0  0
    4.1209   -3.7512   -1.4053 H   0  0  0  0  0  0  0  0  0  0  0  0
    3.5257   -1.3545    1.1115 H   0  0  0  0  0  0  0  0  0  0  0  0
    6.3586   -1.3292    2.1584 H   0  0  0  0  0  0  0  0  0  0  0  0
    5.4354   -0.1060    1.3337 H   0  0  0  0  0  0  0  0  0  0  0  0
    5.5331   -0.8281    4.1935 H   0  0  0  0  0  0  0  0  0  0  0  0
    5.5681    0.7687    3.4893 H   0  0  0  0  0  0  0  0  0  0  0  0
    2.1381    0.6485    2.6146 H   0  0  0  0  0  0  0  0  0  0  0  0
    5.2030    0.4356    5.8134 H   0  0  0  0  0  0  0  0  0  0  0  0
    3.4425    0.1504    8.0371 H   0  0  0  0  0  0  0  0  0  0  0  0
    4.5398   -0.9481    7.3927 H   0  0  0  0  0  0  0  0  0  0  0  0
    0.8628    1.0549    3.1286 H   0  0  0  0  0  0  0  0  0  0  0  0
   -2.5145   -0.1087    5.1121 H   0  0  0  0  0  0  0  0  0  0  0  0
   -0.7016   -1.8420    4.3920 H   0  0  0  0  0  0  0  0  0  0  0  0
   -2.4383    1.6450    6.4629 H   0  0  0  0  0  0  0  0  0  0  0  0
   -1.1435    2.0686    7.4842 H   0  0  0  0  0  0  0  0  0  0  0  0
   -1.1270    4.5719    4.5767 H   0  0  0  0  0  0  0  0  0  0  0  0
   -1.0537    4.4226    6.3317 H   0  0  0  0  0  0  0  0  0  0  0  0
   -2.4857    3.8857    5.4587 H   0  0  0  0  0  0  0  0  0  0  0  0
    1.2639    3.3925    5.7337 H   0  0  0  0  0  0  0  0  0  0  0  0
    1.0224    3.1350    4.0683 H   0  0  0  0  0  0  0  0  0  0  0  0
   -2.4522    1.7353    4.1021 H   0  0  0  0  0  0  0  0  0  0  0  0
   -0.2368    2.7105    2.6920 H   0  0  0  0  0  0  0  0  0  0  0  0
    0.5636   -0.5869    5.9952 H   0  0  0  0  0  0  0  0  0  0  0  0
    2.0951    1.3212    7.2602 H   0  0  0  0  0  0  0  0  0  0  0  0
    0.8327    1.9747    7.1827 H   0  0  0  0  0  0  0  0  0  0  0  0
  1  2  1  0
  1 39  1  0
  1 40  1  0
  1 41  1  0
  2 37  1  0
  2  3  2  3
  3 24  1  0
  3  4  1  0
  4  5  1  0
  4 42  1  0
  4 43  1  0
  5 19  1  0
  5  6  1  0
  5 44  1  6
  6 16  1  0
  6  7  1  6
  6  8  1  0
  7 45  1  0
  7 46  1  0
  7 47  1  0
  8  9  1  0
  8 48  1  0
  8 49  1  0
  9 10  2  0
  9 11  1  0
 11 12  2  0
 11 13  1  0
 13 14  1  0
 13 15  1  0
 13 16  1  0
 14 50  1  0
 14 51  1  0
 14 52  1  0
 15 53  1  0
 15 54  1  0
 15 55  1  0
 16 17  1  0
 16 56  1  6
 17 18  1  0
 17 57  1  0
 17 58  1  0
 18 19  1  0
 18 59  1  0
 18 60  1  0
 19 20  1  6
 19 21  1  0
 20 61  1  0
 21 23  1  0
 21 22  1  6
 21 25  1  0
 22 23  1  0
 23 24  1  0
 23 62  1  6
 24 63  1  0
 24 64  1  0
 25 34  1  6
 25 38  1  0
 25 26  1  0
 26 27  2  0
 26 65  1  0
 27 35  1  0
 27 28  1  0
 28 29  1  0
 28 30  1  0
 28 66  1  1
 29 67  1  0
 30 31  1  0
 30 37  1  0
 31 32  1  0
 31 68  1  0
 31 69  1  0
 32 33  1  1
 32 34  1  0
 32 35  1  0
 33 70  1  0
 33 71  1  0
 33 72  1  0
 34 73  1  0
 34 74  1  0
 35 36  1  0
 35 75  1  1
 36 76  1  0
 37 38  1  0
 37 77  1  1
 38 78  1  0
 38 79  1  0
M  END
>  <i_m_ct_stereo_status>  (9) 
1

>  <s_m_source_file>  (9) 
/var/tmp/pbs.5076255.sched01/tmpfev35gxg/05fxellcm.sdf

>  <i_m_source_file_index>  (9) 
3

>  <i_lp_mmshare_version>  (9) 
48012

>  <i_f3d_flags>  (9) 
0

>  <s_epik_input>  (9) 
W0NAXTEyM1tDQF00NVtDSF09QzZbQ0BASF0oW09IXSlOKFtDSDJdW0NAQF0oW0NIM10pKFtDSDJdNClbQ0BIXTZbT0hdKVtDQEBIXShbQ0gyXTUpQyhcW0NIM10pPUMoW0NIMl1bQ0BASF0zTzIpL1tDSDJdW0NAQEhdN1tDQEBdOChbQ0gzXSlbQ0BIXShDKFtDSDNdKShbQ0gzXSlDKD1PKUMoPU8pW0NIMl04KVtDSDJdW0NIMl1bQ0BdMTdbT0hd

>  <s_epik_cmdline>  (9) 
J2VwaWtfcHl0aG9uJywgJy1waHQnLCAnMi4wJywgJy1waCcsICc3LjAnLCAnLXRuJywgJzgnLCAnLW1hJywgJzIwMCcsICctaW1hZScsICc8aW5maWxlLm1hZT4nLCAnLW9tYWUnLCAnPG91dGZpbGUubWFlPic=

>  <r_epik_Ionization_Penalty>  (9) 
0.22255

>  <r_epik_Ionization_Penalty_Charging>  (9) 
0

>  <r_epik_Ionization_Penalty_Neutral>  (9) 
0.22255

>  <r_epik_State_Penalty>  (9) 
0.9634

>  <r_epik_Charging_Adjusted_Penalty>  (9) 
0.9634

>  <i_epik_Tot_Q>  (9) 
0

>  <i_epik_Tot_abs_Q>  (9) 
0

>  <s_epik_Chemistry_Notes>  (9) 
This compound contains an acetal/aminal-like group ( X-CH(R)-Y where X, Y are N, S, or O) that may be acid/base labile, releasing an aldehyde.

>  <s_lp_Force_Field>  (9) 
OPLS3e

>  <r_lp_Energy>  (9) 
306.103

>  <b_lp_Chiralities_Consistent>  (9) 
1

>  <s_lp_Variant>  (9) 
0:0-3

>  <s_i_glide_gridfile>  (9) 
pfpi4k_grid

>  <i_i_glide_lignum>  (9) 
3

>  <i_i_glide_rotatable_bonds>  (9) 
3

>  <r_i_docking_score>  (9) 
-2.97018

>  <r_i_glide_ligand_efficiency>  (9) 
-0.0781625

>  <r_i_glide_ligand_efficiency_sa>  (9) 
-0.26278

>  <r_i_glide_ligand_efficiency_ln>  (9) 
-0.640457

>  <r_i_glide_gscore>  (9) 
-2.97018

>  <r_i_glide_lipo>  (9) 
-0.318849

>  <r_i_glide_hbond>  (9) 
-0.0847869

>  <r_i_glide_metal>  (9) 
-0

>  <r_i_glide_rewards>  (9) 
-0.116341

>  <r_i_glide_evdw>  (9) 
-32.0909

>  <r_i_glide_ecoul>  (9) 
-5.32447

>  <r_i_glide_erotb>  (9) 
0

>  <r_i_glide_esite>  (9) 
-0.0469837

>  <r_i_glide_emodel>  (9) 
-44.5462

>  <r_i_glide_energy>  (9) 
-37.4154

>  <r_i_glide_einternal>  (9) 
0.34484

>  <r_i_glide_intrahb_reward>  (9) 
-0

>  <i_i_glide_confnum>  (9) 
1

>  <i_i_glide_posenum>  (9) 
25

>  <r_i_glide_eff_state_penalty>  (9) 
0

>  <ligand_id>  (9) 
0

>  <original_smiles>  (9) 
CC1=C2CC3C4(C)CC(=O)C(=O)C(C)(C)C4CCC3(O)C3(OC3C2)C23C=C4C(O)N(CC(C)(C2)C4O)C1C3

>  <smiles>  (9) 
[H]OC1([H])C2=C([H])C34C([H])([H])C([H])(C(C([H])([H])[H])=C5C([H])([H])C6([H])OC63C3(O[H])C([H])([H])C([H])([H])C6([H])C(C([H])([H])[H])(C([H])([H])[H])C(=O)C(=O)C([H])([H])C6(C([H])([H])[H])C3([H])C5([H])[H])N1C([H])([H])C(C([H])([H])[H])(C2([H])O[H])C4([H])[H]

$$$$
1:0:0
     RDKit          3D

 54 58  0  0  1  0  0  0  0  0999 V2000
    0.7338    0.2909    2.0875 C   0  0  0  0  0  0  0  0  0  0  0  0
    1.9185   -0.2042    2.4740 C   0  0  0  0  0  0  0  0  0  0  0  0
    3.2811    0.1893    1.8683 C   0  0  0  0  0  0  0  0  0  0  0  0
    4.0437   -1.0890    2.2249 C   0  0  2  0  0  0  0  0  0  0  0  0
    3.5983   -1.1809    3.7572 C   0  0  1  0  0  0  0  0  0  0  0  0
    4.0424   -0.0253    4.6950 C   0  0  0  0  0  0  0  0  0  0  0  0
    2.1182   -1.2643    3.5820 C   0  0  2  0  0  0  0  0  0  0  0  0
    1.7704   -2.7808    3.2761 C   0  0  0  0  0  0  0  0  0  0  0  0
    2.8936   -3.8570    2.8175 C   0  0  1  0  0  0  0  0  0  0  0  0
    2.2419   -4.9310    2.1353 O   0  0  0  0  0  0  0  0  0  0  0  0
    1.4319   -5.7941    2.7922 C   0  0  0  0  0  0  0  0  0  0  0  0
    1.2080   -5.7490    4.0010 O   0  0  0  0  0  0  0  0  0  0  0  0
    0.8374   -6.7649    1.8506 C   0  0  0  0  0  0  0  0  0  0  0  0
   -0.1749   -7.6224    2.1071 C   0  0  0  0  0  0  0  0  0  0  0  0
   -0.9704   -7.8397    3.3863 C   0  0  0  0  0  0  0  0  0  0  0  0
    4.0830   -3.3448    1.9069 C   0  0  2  0  0  0  0  0  0  0  0  0
    5.1800   -2.8288    2.6998 O   0  0  0  0  0  0  0  0  0  0  0  0
    5.5282   -1.5539    2.1496 C   0  0  1  0  0  0  0  0  0  0  0  0
    6.1943   -1.9720    0.7749 C   0  0  2  0  0  0  0  0  0  0  0  0
    5.4138   -1.3435   -0.3693 C   0  0  0  0  0  0  0  0  0  0  0  0
    3.9658   -1.8269   -0.2803 C   0  0  0  0  0  0  0  0  0  0  0  0
    3.5254   -2.1189    1.1909 C   0  0  2  0  0  0  0  0  0  0  0  0
    6.2322   -3.5126    0.5746 C   0  0  0  0  0  0  0  0  0  0  0  0
    7.3546   -4.1457    0.1868 C   0  0  0  0  0  0  0  0  0  0  0  0
    4.9379   -4.2642    0.9815 C   0  0  1  0  0  0  0  0  0  0  0  0
    5.2357   -5.4932    1.6191 O   0  0  0  0  0  0  0  0  0  0  0  0
   -0.1807   -0.0391    2.5547 H   0  0  0  0  0  0  0  0  0  0  0  0
    0.6642    1.0212    1.2933 H   0  0  0  0  0  0  0  0  0  0  0  0
    3.2025    0.4392    0.8164 H   0  0  0  0  0  0  0  0  0  0  0  0
    3.6822    1.0719    2.3577 H   0  0  0  0  0  0  0  0  0  0  0  0
    3.9166   -2.0588    4.3203 H   0  0  0  0  0  0  0  0  0  0  0  0
    3.5451    0.9239    4.4875 H   0  0  0  0  0  0  0  0  0  0  0  0
    5.1183    0.1422    4.6426 H   0  0  0  0  0  0  0  0  0  0  0  0
    3.7985   -0.2633    5.7318 H   0  0  0  0  0  0  0  0  0  0  0  0
    1.5801   -0.9403    4.4742 H   0  0  0  0  0  0  0  0  0  0  0  0
    1.3369   -3.1716    4.1966 H   0  0  0  0  0  0  0  0  0  0  0  0
    0.9435   -2.7842    2.5701 H   0  0  0  0  0  0  0  0  0  0  0  0
    3.3549   -4.2784    3.7114 H   0  0  0  0  0  0  0  0  0  0  0  0
    1.2560   -6.7801    0.8557 H   0  0  0  0  0  0  0  0  0  0  0  0
   -0.4922   -8.2527    1.2883 H   0  0  0  0  0  0  0  0  0  0  0  0
   -1.0511   -8.9107    3.5832 H   0  0  0  0  0  0  0  0  0  0  0  0
   -1.9811   -7.4508    3.2714 H   0  0  0  0  0  0  0  0  0  0  0  0
   -0.5287   -7.3898    4.2712 H   0  0  0  0  0  0  0  0  0  0  0  0
    6.2066   -1.0102    2.8077 H   0  0  0  0  0  0  0  0  0  0  0  0
    7.2197   -1.5980    0.7503 H   0  0  0  0  0  0  0  0  0  0  0  0
    5.4518   -0.2567   -0.2786 H   0  0  0  0  0  0  0  0  0  0  0  0
    5.8424   -1.6032   -1.3383 H   0  0  0  0  0  0  0  0  0  0  0  0
    3.3206   -1.0735   -0.7370 H   0  0  0  0  0  0  0  0  0  0  0  0
    3.8158   -2.7049   -0.9088 H   0  0  0  0  0  0  0  0  0  0  0  0
    2.4491   -2.1918    1.0535 H   0  0  0  0  0  0  0  0  0  0  0  0
    8.2535   -3.5948   -0.0481 H   0  0  0  0  0  0  0  0  0  0  0  0
    7.3870   -5.2232    0.1008 H   0  0  0  0  0  0  0  0  0  0  0  0
    4.3799   -4.5300    0.0832 H   0  0  0  0  0  0  0  0  0  0  0  0
    5.6655   -5.2985    2.4372 H   0  0  0  0  0  0  0  0  0  0  0  0
  1  2  2  0
  1 27  1  0
  1 28  1  0
  2  7  1  0
  2  3  1  0
  4  3  1  6
  3 29  1  0
  3 30  1  0
  4 18  1  0
  4 22  1  0
  4  5  1  0
  5  6  1  0
  5  7  1  0
  5 31  1  1
  6 32  1  0
  6 33  1  0
  6 34  1  0
  7  8  1  0
  7 35  1  1
  8  9  1  0
  8 36  1  0
  8 37  1  0
  9 10  1  0
  9 16  1  0
  9 38  1  1
 10 11  1  0
 11 12  2  0
 11 13  1  0
 13 14  2  3
 13 39  1  0
 14 15  1  0
 14 40  1  0
 15 41  1  0
 15 42  1  0
 15 43  1  0
 16 22  1  0
 16 25  1  0
 16 17  1  1
 17 18  1  0
 18 19  1  0
 18 44  1  1
 19 20  1  0
 19 23  1  0
 19 45  1  1
 20 21  1  0
 20 46  1  0
 20 47  1  0
 21 22  1  0
 21 48  1  0
 21 49  1  0
 22 50  1  6
 23 24  2  0
 23 25  1  0
 24 51  1  0
 24 52  1  0
 25 26  1  0
 25 53  1  6
 26 54  1  0
M  END
>  <i_m_ct_stereo_status>  (10) 
1

>  <s_m_source_file>  (10) 
/var/tmp/pbs.5076255.sched01/tmpfev35gxg/05fxellcm.sdf

>  <i_m_source_file_index>  (10) 
5

>  <i_lp_mmshare_version>  (10) 
48012

>  <i_f3d_flags>  (10) 
2

>  <s_epik_input>  (10) 
W0NIM11cW0NIXT1bQ0hdXEMoPU8pT1tDQEhdKFtDSDJdW0NASF0oQyg9W0NIMl0pW0NIMl0xKVtDQEBIXTJbQ0gzXSlbQ0BAXShPMykoW0NASF0oW09IXSlDND1bQ0gyXSlbQ0BIXTVbQ0gyXVtDSDJdW0NASF00W0NASF0zW0NAQF0xMjU=

>  <s_epik_cmdline>  (10) 
J2VwaWtfcHl0aG9uJywgJy1waHQnLCAnMi4wJywgJy1waCcsICc3LjAnLCAnLXRuJywgJzgnLCAnLW1hJywgJzIwMCcsICctaW1hZScsICc8aW5maWxlLm1hZT4nLCAnLW9tYWUnLCAnPG91dGZpbGUubWFlPic=

>  <r_lp_tautomer_probability>  (10) 
1

>  <r_epik_Ionization_Penalty>  (10) 
2.96846e-07

>  <r_epik_Ionization_Penalty_Charging>  (10) 
0

>  <r_epik_Ionization_Penalty_Neutral>  (10) 
2.96846e-07

>  <r_epik_State_Penalty>  (10) 
-0

>  <r_epik_Charging_Adjusted_Penalty>  (10) 
0

>  <i_epik_Tot_Q>  (10) 
0

>  <i_epik_Tot_abs_Q>  (10) 
0

>  <s_epik_Chemistry_Notes>  (10) 
This compound has an ester and may undergo hydrolysis at high or low pH.

>  <s_lp_Force_Field>  (10) 
OPLS3e

>  <r_lp_Energy>  (10) 
119.643

>  <b_lp_Chiralities_Consistent>  (10) 
0

>  <s_lp_Variant>  (10) 
1:0-1

>  <s_i_glide_gridfile>  (10) 
pfpi4k_grid

>  <i_i_glide_lignum>  (10) 
5

>  <i_i_glide_rotatable_bonds>  (10) 
4

>  <r_i_docking_score>  (10) 
-2.66526

>  <r_i_glide_ligand_efficiency>  (10) 
-0.10251

>  <r_i_glide_ligand_efficiency_sa>  (10) 
-0.303685

>  <r_i_glide_ligand_efficiency_ln>  (10) 
-0.625927

>  <r_i_glide_gscore>  (10) 
-2.66526

>  <r_i_glide_lipo>  (10) 
-0.55482

>  <r_i_glide_hbond>  (10) 
0

>  <r_i_glide_metal>  (10) 
-0

>  <r_i_glide_rewards>  (10) 
-0.978714

>  <r_i_glide_evdw>  (10) 
-26.6889

>  <r_i_glide_ecoul>  (10) 
-1.44058

>  <r_i_glide_erotb>  (10) 
0.451735

>  <r_i_glide_esite>  (10) 
-0.0329246

>  <r_i_glide_emodel>  (10) 
-32.63

>  <r_i_glide_energy>  (10) 
-28.1295

>  <r_i_glide_einternal>  (10) 
1.61846

>  <r_i_glide_intrahb_reward>  (10) 
-0

>  <i_i_glide_confnum>  (10) 
4

>  <i_i_glide_posenum>  (10) 
3

>  <r_i_glide_eff_state_penalty>  (10) 
0

>  <ligand_id>  (10) 
1

>  <original_smiles>  (10) 
C=C1CC23C(C)C1CC(OC(=O)C=CC)C14OC2C(CCC31)C(=C)C4O

>  <smiles>  (10) 
[H]OC1([H])C(=C([H])[H])C2([H])C([H])([H])C([H])([H])C3([H])C14OC2([H])C31C([H])([H])C(=C([H])[H])C([H])(C([H])([H])C4([H])OC(=O)C([H])=C([H])C([H])([H])[H])C1([H])C([H])([H])[H]

$$$$
1:0:1
     RDKit          3D

 54 58  0  0  1  0  0  0  0  0999 V2000
    4.2667   -5.2792    6.9159 C   0  0  0  0  0  0  0  0  0  0  0  0
    3.0064   -5.2900    6.4592 C   0  0  0  0  0  0  0  0  0  0  0  0
    1.9499   -6.3607    6.8121 C   0  0  0  0  0  0  0  0  0  0  0  0
    1.0760   -6.1951    5.5672 C   0  0  2  0  0  0  0  0  0  0  0  0
    0.9619   -4.5988    5.5950 C   0  0  1  0  0  0  0  0  0  0  0  0
    0.2564   -3.9630    6.8264 C   0  0  0  0  0  0  0  0  0  0  0  0
    2.4091   -4.2459    5.4862 C   0  0  2  0  0  0  0  0  0  0  0  0
    2.7965   -4.3027    3.9451 C   0  0  0  0  0  0  0  0  0  0  0  0
    1.8628   -5.0442    2.8512 C   0  0  1  0  0  0  0  0  0  0  0  0
    2.6826   -5.3753    1.7295 O   0  0  0  0  0  0  0  0  0  0  0  0
    3.0383   -4.4375    0.8250 C   0  0  0  0  0  0  0  0  0  0  0  0
    2.6208   -3.2795    0.8403 O   0  0  0  0  0  0  0  0  0  0  0  0
    4.0074   -4.9864   -0.1431 C   0  0  0  0  0  0  0  0  0  0  0  0
    4.6040   -4.3215   -1.1574 C   0  0  0  0  0  0  0  0  0  0  0  0
    4.4483   -2.8797   -1.6080 C   0  0  0  0  0  0  0  0  0  0  0  0
    1.0817   -6.3442    3.2918 C   0  0  2  0  0  0  0  0  0  0  0  0
   -0.1908   -6.0135    3.8750 O   0  0  0  0  0  0  0  0  0  0  0  0
   -0.3044   -6.7410    5.0987 C   0  0  1  0  0  0  0  0  0  0  0  0
   -0.4744   -8.2258    4.5718 C   0  0  2  0  0  0  0  0  0  0  0  0
    0.6674   -9.0775    5.1041 C   0  0  0  0  0  0  0  0  0  0  0  0
    1.9831   -8.4609    4.6261 C   0  0  0  0  0  0  0  0  0  0  0  0
    1.8863   -6.9097    4.4549 C   0  0  2  0  0  0  0  0  0  0  0  0
   -0.4960   -8.3095    3.0222 C   0  0  0  0  0  0  0  0  0  0  0  0
   -1.4356   -9.0162    2.3694 C   0  0  0  0  0  0  0  0  0  0  0  0
    0.5530   -7.4231    2.2987 C   0  0  1  0  0  0  0  0  0  0  0  0
    0.0066   -6.8341    1.1302 O   0  0  0  0  0  0  0  0  0  0  0  0
    4.9580   -4.5063    6.6144 H   0  0  0  0  0  0  0  0  0  0  0  0
    4.6219   -6.0464    7.5878 H   0  0  0  0  0  0  0  0  0  0  0  0
    2.3953   -7.3394    6.9732 H   0  0  0  0  0  0  0  0  0  0  0  0
    1.4286   -6.1134    7.7337 H   0  0  0  0  0  0  0  0  0  0  0  0
    0.4381   -4.1155    4.7690 H   0  0  0  0  0  0  0  0  0  0  0  0
    0.8253   -4.0546    7.7531 H   0  0  0  0  0  0  0  0  0  0  0  0
   -0.7296   -4.3978    6.9931 H   0  0  0  0  0  0  0  0  0  0  0  0
    0.1198   -2.8908    6.6729 H   0  0  0  0  0  0  0  0  0  0  0  0
    2.6157   -3.2496    5.8785 H   0  0  0  0  0  0  0  0  0  0  0  0
    2.8697   -3.2666    3.6113 H   0  0  0  0  0  0  0  0  0  0  0  0
    3.8203   -4.6703    3.8685 H   0  0  0  0  0  0  0  0  0  0  0  0
    1.0994   -4.3393    2.5193 H   0  0  0  0  0  0  0  0  0  0  0  0
    4.2668   -6.0274   -0.0185 H   0  0  0  0  0  0  0  0  0  0  0  0
    5.3077   -4.8848   -1.7507 H   0  0  0  0  0  0  0  0  0  0  0  0
    4.3337   -2.8565   -2.6923 H   0  0  0  0  0  0  0  0  0  0  0  0
    5.3421   -2.3118   -1.3547 H   0  0  0  0  0  0  0  0  0  0  0  0
    3.5841   -2.3727   -1.1873 H   0  0  0  0  0  0  0  0  0  0  0  0
   -1.1539   -6.3840    5.6774 H   0  0  0  0  0  0  0  0  0  0  0  0
   -1.4122   -8.6402    4.9450 H   0  0  0  0  0  0  0  0  0  0  0  0
    0.6308   -9.0929    6.1947 H   0  0  0  0  0  0  0  0  0  0  0  0
    0.5795  -10.1145    4.7743 H   0  0  0  0  0  0  0  0  0  0  0  0
    2.7660   -8.7252    5.3386 H   0  0  0  0  0  0  0  0  0  0  0  0
    2.3084   -8.9318    3.6986 H   0  0  0  0  0  0  0  0  0  0  0  0
    2.9412   -6.6583    4.3659 H   0  0  0  0  0  0  0  0  0  0  0  0
   -2.1709   -9.5876    2.9172 H   0  0  0  0  0  0  0  0  0  0  0  0
   -1.4784   -9.0450    1.2904 H   0  0  0  0  0  0  0  0  0  0  0  0
    1.3735   -8.0507    1.9547 H   0  0  0  0  0  0  0  0  0  0  0  0
   -0.1628   -7.5464    0.5269 H   0  0  0  0  0  0  0  0  0  0  0  0
  1  2  2  0
  1 27  1  0
  1 28  1  0
  2  7  1  0
  2  3  1  0
  4  3  1  1
  3 29  1  0
  3 30  1  0
  4 18  1  0
  4 22  1  0
  4  5  1  0
  5  6  1  0
  5  7  1  0
  5 31  1  6
  6 32  1  0
  6 33  1  0
  6 34  1  0
  7  8  1  0
  7 35  1  1
  8  9  1  0
  8 36  1  0
  8 37  1  0
  9 10  1  0
  9 16  1  0
  9 38  1  6
 10 11  1  0
 11 12  2  0
 11 13  1  0
 13 14  2  3
 13 39  1  0
 14 15  1  0
 14 40  1  0
 15 41  1  0
 15 42  1  0
 15 43  1  0
 16 22  1  0
 16 25  1  0
 16 17  1  1
 17 18  1  0
 18 19  1  0
 18 44  1  1
 19 20  1  0
 19 23  1  0
 19 45  1  1
 20 21  1  0
 20 46  1  0
 20 47  1  0
 21 22  1  0
 21 48  1  0
 21 49  1  0
 22 50  1  6
 23 24  2  0
 23 25  1  0
 24 51  1  0
 24 52  1  0
 25 26  1  0
 25 53  1  6
 26 54  1  0
M  END
>  <i_m_ct_stereo_status>  (11) 
1

>  <s_m_source_file>  (11) 
/var/tmp/pbs.5076255.sched01/tmpfev35gxg/05fxellcm.sdf

>  <i_m_source_file_index>  (11) 
5

>  <i_lp_mmshare_version>  (11) 
48012

>  <i_f3d_flags>  (11) 
2

>  <s_epik_input>  (11) 
W0NIM11cW0NIXT1bQ0hdXEMoPU8pT1tDQEhdKFtDSDJdW0NASF0oQyg9W0NIMl0pW0NIMl0xKVtDQEBIXTJbQ0gzXSlbQ0BAXShPMykoW0NASF0oW09IXSlDND1bQ0gyXSlbQ0BIXTVbQ0gyXVtDSDJdW0NASF00W0NASF0zW0NAQF0xMjU=

>  <s_epik_cmdline>  (11) 
J2VwaWtfcHl0aG9uJywgJy1waHQnLCAnMi4wJywgJy1waCcsICc3LjAnLCAnLXRuJywgJzgnLCAnLW1hJywgJzIwMCcsICctaW1hZScsICc8aW5maWxlLm1hZT4nLCAnLW9tYWUnLCAnPG91dGZpbGUubWFlPic=

>  <r_lp_tautomer_probability>  (11) 
1

>  <r_epik_Ionization_Penalty>  (11) 
2.96846e-07

>  <r_epik_Ionization_Penalty_Charging>  (11) 
0

>  <r_epik_Ionization_Penalty_Neutral>  (11) 
2.96846e-07

>  <r_epik_State_Penalty>  (11) 
-0

>  <r_epik_Charging_Adjusted_Penalty>  (11) 
0

>  <i_epik_Tot_Q>  (11) 
0

>  <i_epik_Tot_abs_Q>  (11) 
0

>  <s_epik_Chemistry_Notes>  (11) 
This compound has an ester and may undergo hydrolysis at high or low pH.

>  <s_lp_Force_Field>  (11) 
OPLS3e

>  <r_lp_Energy>  (11) 
119.643

>  <b_lp_Chiralities_Consistent>  (11) 
0

>  <s_lp_Variant>  (11) 
1:0-1

>  <s_i_glide_gridfile>  (11) 
pfpi4k_grid

>  <i_i_glide_lignum>  (11) 
5

>  <i_i_glide_rotatable_bonds>  (11) 
4

>  <r_i_docking_score>  (11) 
-2.64369

>  <r_i_glide_ligand_efficiency>  (11) 
-0.10168

>  <r_i_glide_ligand_efficiency_sa>  (11) 
-0.301227

>  <r_i_glide_ligand_efficiency_ln>  (11) 
-0.620861

>  <r_i_glide_gscore>  (11) 
-2.64369

>  <r_i_glide_lipo>  (11) 
-0.227063

>  <r_i_glide_hbond>  (11) 
-0.0608151

>  <r_i_glide_metal>  (11) 
-0

>  <r_i_glide_rewards>  (11) 
-0.978714

>  <r_i_glide_evdw>  (11) 
-23.5983

>  <r_i_glide_ecoul>  (11) 
-4.25404

>  <r_i_glide_erotb>  (11) 
0.451735

>  <r_i_glide_esite>  (11) 
-0.0108094

>  <r_i_glide_emodel>  (11) 
-32.6431

>  <r_i_glide_energy>  (11) 
-27.8523

>  <r_i_glide_einternal>  (11) 
1.08392

>  <r_i_glide_intrahb_reward>  (11) 
-0

>  <i_i_glide_confnum>  (11) 
3

>  <i_i_glide_posenum>  (11) 
28

>  <r_i_glide_eff_state_penalty>  (11) 
0

>  <ligand_id>  (11) 
1

>  <original_smiles>  (11) 
C=C1CC23C(C)C1CC(OC(=O)C=CC)C14OC2C(CCC31)C(=C)C4O

>  <smiles>  (11) 
[H]OC1([H])C(=C([H])[H])C2([H])C([H])([H])C([H])([H])C3([H])C14OC2([H])C31C([H])([H])C(=C([H])[H])C([H])(C([H])([H])C4([H])OC(=O)C([H])=C([H])C([H])([H])[H])C1([H])C([H])([H])[H]

$$$$
1:0:2
     RDKit          3D

 54 58  0  0  1  0  0  0  0  0999 V2000
   -0.4513   -6.0078    5.4968 C   0  0  0  0  0  0  0  0  0  0  0  0
   -0.2609   -7.0733    4.7051 C   0  0  0  0  0  0  0  0  0  0  0  0
   -0.0234   -8.5168    5.1990 C   0  0  0  0  0  0  0  0  0  0  0  0
    0.7268   -9.0313    3.9648 C   0  0  2  0  0  0  0  0  0  0  0  0
   -0.2808   -8.4838    2.8539 C   0  0  1  0  0  0  0  0  0  0  0  0
   -1.7266   -9.0432    2.8627 C   0  0  0  0  0  0  0  0  0  0  0  0
   -0.2194   -7.0314    3.1633 C   0  0  2  0  0  0  0  0  0  0  0  0
    1.0613   -6.4412    2.4384 C   0  0  0  0  0  0  0  0  0  0  0  0
    2.2386   -7.3971    1.8731 C   0  0  1  0  0  0  0  0  0  0  0  0
    3.4391   -6.6381    1.7308 O   0  0  0  0  0  0  0  0  0  0  0  0
    3.5521   -5.6626    0.8011 C   0  0  0  0  0  0  0  0  0  0  0  0
    2.6146   -5.2585    0.1125 O   0  0  0  0  0  0  0  0  0  0  0  0
    4.9370   -5.1469    0.7536 C   0  0  0  0  0  0  0  0  0  0  0  0
    5.4278   -4.2146   -0.0927 C   0  0  0  0  0  0  0  0  0  0  0  0
    4.7343   -3.4582   -1.2135 C   0  0  0  0  0  0  0  0  0  0  0  0
    2.5842   -8.7112    2.6825 C   0  0  2  0  0  0  0  0  0  0  0  0
    1.7582   -9.8270    2.2785 O   0  0  0  0  0  0  0  0  0  0  0  0
    1.2366  -10.4191    3.4720 C   0  0  1  0  0  0  0  0  0  0  0  0
    2.5379  -11.0802    4.0866 C   0  0  2  0  0  0  0  0  0  0  0  0
    2.7970  -10.4799    5.4588 C   0  0  0  0  0  0  0  0  0  0  0  0
    2.9724   -8.9713    5.3030 C   0  0  0  0  0  0  0  0  0  0  0  0
    2.1390   -8.4079    4.1080 C   0  0  2  0  0  0  0  0  0  0  0  0
    3.7941  -10.8698    3.2009 C   0  0  0  0  0  0  0  0  0  0  0  0
    4.6175  -11.8908    2.8935 C   0  0  0  0  0  0  0  0  0  0  0  0
    3.9547   -9.4447    2.6027 C   0  0  1  0  0  0  0  0  0  0  0  0
    4.4274   -9.4904    1.2684 O   0  0  0  0  0  0  0  0  0  0  0  0
   -0.5821   -5.0222    5.0750 H   0  0  0  0  0  0  0  0  0  0  0  0
   -0.4573   -6.1094    6.5709 H   0  0  0  0  0  0  0  0  0  0  0  0
    0.5123   -8.5400    6.1445 H   0  0  0  0  0  0  0  0  0  0  0  0
   -0.9628   -9.0369    5.3714 H   0  0  0  0  0  0  0  0  0  0  0  0
   -0.0029   -8.6166    1.8079 H   0  0  0  0  0  0  0  0  0  0  0  0
   -2.3118   -8.7314    3.7292 H   0  0  0  0  0  0  0  0  0  0  0  0
   -1.7160  -10.1312    2.8410 H   0  0  0  0  0  0  0  0  0  0  0  0
   -2.2818   -8.7048    1.9857 H   0  0  0  0  0  0  0  0  0  0  0  0
   -1.1196   -6.5389    2.8051 H   0  0  0  0  0  0  0  0  0  0  0  0
    0.6722   -5.9138    1.5717 H   0  0  0  0  0  0  0  0  0  0  0  0
    1.4790   -5.6529    3.0661 H   0  0  0  0  0  0  0  0  0  0  0  0
    1.9552   -7.7334    0.8806 H   0  0  0  0  0  0  0  0  0  0  0  0
    5.6191   -5.5592    1.4816 H   0  0  0  0  0  0  0  0  0  0  0  0
    6.4661   -3.9440    0.0352 H   0  0  0  0  0  0  0  0  0  0  0  0
    5.3647   -3.4748   -2.1023 H   0  0  0  0  0  0  0  0  0  0  0  0
    4.5858   -2.4179   -0.9247 H   0  0  0  0  0  0  0  0  0  0  0  0
    3.7715   -3.8740   -1.4988 H   0  0  0  0  0  0  0  0  0  0  0  0
    0.4486  -11.1378    3.2471 H   0  0  0  0  0  0  0  0  0  0  0  0
    2.3696  -12.1528    4.2040 H   0  0  0  0  0  0  0  0  0  0  0  0
    1.9397  -10.6815    6.1004 H   0  0  0  0  0  0  0  0  0  0  0  0
    3.6717  -10.9286    5.9334 H   0  0  0  0  0  0  0  0  0  0  0  0
    2.6817   -8.4945    6.2416 H   0  0  0  0  0  0  0  0  0  0  0  0
    4.0265   -8.7148    5.1972 H   0  0  0  0  0  0  0  0  0  0  0  0
    2.1989   -7.3460    4.3293 H   0  0  0  0  0  0  0  0  0  0  0  0
    4.4378  -12.8789    3.2934 H   0  0  0  0  0  0  0  0  0  0  0  0
    5.4602  -11.7595    2.2327 H   0  0  0  0  0  0  0  0  0  0  0  0
    4.7100   -8.9001    3.1675 H   0  0  0  0  0  0  0  0  0  0  0  0
    4.2300  -10.3632    0.9253 H   0  0  0  0  0  0  0  0  0  0  0  0
  1  2  2  0
  1 27  1  0
  1 28  1  0
  2  7  1  0
  2  3  1  0
  4  3  1  1
  3 29  1  0
  3 30  1  0
  4 18  1  0
  4 22  1  0
  4  5  1  0
  5  6  1  0
  5  7  1  0
  5 31  1  6
  6 32  1  0
  6 33  1  0
  6 34  1  0
  7  8  1  0
  7 35  1  6
  8  9  1  0
  8 36  1  0
  8 37  1  0
  9 10  1  0
  9 16  1  0
  9 38  1  6
 10 11  1  0
 11 12  2  0
 11 13  1  0
 13 14  2  3
 13 39  1  0
 14 15  1  0
 14 40  1  0
 15 41  1  0
 15 42  1  0
 15 43  1  0
 16 22  1  0
 16 25  1  0
 16 17  1  6
 17 18  1  0
 18 19  1  0
 18 44  1  6
 19 20  1  0
 19 23  1  0
 19 45  1  1
 20 21  1  0
 20 46  1  0
 20 47  1  0
 21 22  1  0
 21 48  1  0
 21 49  1  0
 22 50  1  6
 23 24  2  0
 23 25  1  0
 24 51  1  0
 24 52  1  0
 25 26  1  0
 25 53  1  1
 26 54  1  0
M  END
>  <i_m_ct_stereo_status>  (12) 
1

>  <s_m_source_file>  (12) 
/var/tmp/pbs.5076255.sched01/tmpfev35gxg/05fxellcm.sdf

>  <i_m_source_file_index>  (12) 
5

>  <i_lp_mmshare_version>  (12) 
48012

>  <i_f3d_flags>  (12) 
2

>  <s_epik_input>  (12) 
W0NIM11cW0NIXT1bQ0hdXEMoPU8pT1tDQEhdKFtDSDJdW0NASF0oQyg9W0NIMl0pW0NIMl0xKVtDQEBIXTJbQ0gzXSlbQ0BAXShPMykoW0NASF0oW09IXSlDND1bQ0gyXSlbQ0BIXTVbQ0gyXVtDSDJdW0NASF00W0NASF0zW0NAQF0xMjU=

>  <s_epik_cmdline>  (12) 
J2VwaWtfcHl0aG9uJywgJy1waHQnLCAnMi4wJywgJy1waCcsICc3LjAnLCAnLXRuJywgJzgnLCAnLW1hJywgJzIwMCcsICctaW1hZScsICc8aW5maWxlLm1hZT4nLCAnLW9tYWUnLCAnPG91dGZpbGUubWFlPic=

>  <r_lp_tautomer_probability>  (12) 
1

>  <r_epik_Ionization_Penalty>  (12) 
2.96846e-07

>  <r_epik_Ionization_Penalty_Charging>  (12) 
0

>  <r_epik_Ionization_Penalty_Neutral>  (12) 
2.96846e-07

>  <r_epik_State_Penalty>  (12) 
-0

>  <r_epik_Charging_Adjusted_Penalty>  (12) 
0

>  <i_epik_Tot_Q>  (12) 
0

>  <i_epik_Tot_abs_Q>  (12) 
0

>  <s_epik_Chemistry_Notes>  (12) 
This compound has an ester and may undergo hydrolysis at high or low pH.

>  <s_lp_Force_Field>  (12) 
OPLS3e

>  <r_lp_Energy>  (12) 
119.643

>  <b_lp_Chiralities_Consistent>  (12) 
0

>  <s_lp_Variant>  (12) 
1:0-1

>  <s_i_glide_gridfile>  (12) 
pfpi4k_grid

>  <i_i_glide_lignum>  (12) 
5

>  <i_i_glide_rotatable_bonds>  (12) 
4

>  <r_i_docking_score>  (12) 
-2.52349

>  <r_i_glide_ligand_efficiency>  (12) 
-0.0970574

>  <r_i_glide_ligand_efficiency_sa>  (12) 
-0.287532

>  <r_i_glide_ligand_efficiency_ln>  (12) 
-0.592634

>  <r_i_glide_gscore>  (12) 
-2.52349

>  <r_i_glide_lipo>  (12) 
-0.267234

>  <r_i_glide_hbond>  (12) 
0

>  <r_i_glide_metal>  (12) 
-0

>  <r_i_glide_rewards>  (12) 
-0.984471

>  <r_i_glide_evdw>  (12) 
-29.6779

>  <r_i_glide_ecoul>  (12) 
-1.59751

>  <r_i_glide_erotb>  (12) 
0.451735

>  <r_i_glide_esite>  (12) 
0

>  <r_i_glide_emodel>  (12) 
-34.8359

>  <r_i_glide_energy>  (12) 
-31.2755

>  <r_i_glide_einternal>  (12) 
2.36847

>  <r_i_glide_intrahb_reward>  (12) 
-0

>  <i_i_glide_confnum>  (12) 
4

>  <i_i_glide_posenum>  (12) 
2

>  <r_i_glide_eff_state_penalty>  (12) 
0

>  <ligand_id>  (12) 
1

>  <original_smiles>  (12) 
C=C1CC23C(C)C1CC(OC(=O)C=CC)C14OC2C(CCC31)C(=C)C4O

>  <smiles>  (12) 
[H]OC1([H])C(=C([H])[H])C2([H])C([H])([H])C([H])([H])C3([H])C14OC2([H])C31C([H])([H])C(=C([H])[H])C([H])(C([H])([H])C4([H])OC(=O)C([H])=C([H])C([H])([H])[H])C1([H])C([H])([H])[H]

$$$$
2:0:0
     RDKit          3D

 46 50  0  0  1  0  0  0  0  0999 V2000
    2.6062   -0.1898    1.2999 N   0  0  0  0  0  0  0  0  0  0  0  0
    3.8333   -0.6050    1.6244 C   0  0  0  0  0  0  0  0  0  0  0  0
    4.4424   -0.1132    2.5723 O   0  0  0  0  0  0  0  0  0  0  0  0
    4.4816   -1.7345    0.7904 C   0  0  1  0  0  0  0  0  0  0  0  0
    5.6260   -1.1554   -0.0849 C   0  0  0  0  0  0  0  0  0  0  0  0
    6.2696   -2.2804   -0.9295 C   0  0  1  0  0  0  0  0  0  0  0  0
    6.8712   -3.3466    0.0062 C   0  0  0  0  0  0  0  0  0  0  0  0
    5.7524   -3.9434    0.8830 C   0  0  1  0  0  0  0  0  0  0  0  0
    5.0926   -2.8204    1.7254 C   0  0  0  0  0  0  0  0  0  0  0  0
    4.7068   -4.6189   -0.0355 C   0  0  1  0  0  0  0  0  0  0  0  0
    3.6562   -5.2320    0.7610 N   0  0  0  0  0  0  0  0  0  0  0  0
    3.5302   -6.5154    1.1085 C   0  0  0  0  0  0  0  0  0  0  0  0
    4.3466   -7.3857    0.8030 O   0  0  0  0  0  0  0  0  0  0  0  0
    2.2990   -6.7959    1.8762 C   0  0  0  0  0  0  0  0  0  0  0  0
    1.3077   -5.9470    2.2813 C   0  0  0  0  0  0  0  0  0  0  0  0
    0.2825   -6.6121    2.9286 N   0  0  0  0  0  0  0  0  0  0  0  0
    0.6757   -7.8828    2.9956 C   0  0  0  0  0  0  0  0  0  0  0  0
    0.0286   -8.9021    3.5826 N   0  0  0  0  0  0  0  0  0  0  0  0
    0.5977  -10.0983    3.5266 C   0  0  0  0  0  0  0  0  0  0  0  0
    1.8337  -10.3521    2.8835 C   0  0  0  0  0  0  0  0  0  0  0  0
    2.4902   -9.3060    2.2749 C   0  0  0  0  0  0  0  0  0  0  0  0
    1.9260   -8.0573    2.3364 N   0  0  0  0  0  0  0  0  0  0  0  0
    4.1013   -3.5403   -0.9646 C   0  0  2  0  0  0  0  0  0  0  0  0
    5.2089   -2.9284   -1.8418 C   0  0  0  0  0  0  0  0  0  0  0  0
    3.4429   -2.4153   -0.1448 C   0  0  0  0  0  0  0  0  0  0  0  0
    2.1592    0.5343    1.8386 H   0  0  0  0  0  0  0  0  0  0  0  0
    2.0974   -0.6114    0.5255 H   0  0  0  0  0  0  0  0  0  0  0  0
    5.2346   -0.3775   -0.7417 H   0  0  0  0  0  0  0  0  0  0  0  0
    6.3844   -0.6768    0.5396 H   0  0  0  0  0  0  0  0  0  0  0  0
    7.0590   -1.8666   -1.5514 H   0  0  0  0  0  0  0  0  0  0  0  0
    7.3362   -4.1351   -0.5814 H   0  0  0  0  0  0  0  0  0  0  0  0
    7.6576   -2.9151    0.6254 H   0  0  0  0  0  0  0  0  0  0  0  0
    6.1829   -4.6871    1.5532 H   0  0  0  0  0  0  0  0  0  0  0  0
    5.8332   -2.3909    2.4037 H   0  0  0  0  0  0  0  0  0  0  0  0
    4.3135   -3.2309    2.3683 H   0  0  0  0  0  0  0  0  0  0  0  0
    5.1885   -5.3772   -0.6573 H   0  0  0  0  0  0  0  0  0  0  0  0
    2.9609   -4.5972    1.1141 H   0  0  0  0  0  0  0  0  0  0  0  0
    1.2442   -4.8839    2.1259 H   0  0  0  0  0  0  0  0  0  0  0  0
    0.0567  -10.9118    4.0031 H   0  0  0  0  0  0  0  0  0  0  0  0
    2.2491  -11.3587    2.8503 H   0  0  0  0  0  0  0  0  0  0  0  0
    3.4364   -9.4323    1.7540 H   0  0  0  0  0  0  0  0  0  0  0  0
    3.3394   -3.9843   -1.6043 H   0  0  0  0  0  0  0  0  0  0  0  0
    4.7863   -2.1842   -2.5174 H   0  0  0  0  0  0  0  0  0  0  0  0
    5.6569   -3.6985   -2.4683 H   0  0  0  0  0  0  0  0  0  0  0  0
    2.6033   -2.8043    0.4322 H   0  0  0  0  0  0  0  0  0  0  0  0
    3.0280   -1.6951   -0.8501 H   0  0  0  0  0  0  0  0  0  0  0  0
  1  2  1  0
  1 26  1  0
  1 27  1  0
  2  3  2  0
  4  2  1  1
  4  9  1  0
  4 25  1  0
  4  5  1  0
  5  6  1  0
  5 28  1  0
  5 29  1  0
  6 24  1  0
  6  7  1  0
  6 30  1  6
  7  8  1  0
  7 31  1  0
  7 32  1  0
  8  9  1  0
  8 10  1  0
  8 33  1  1
  9 34  1  0
  9 35  1  0
 10 11  1  0
 10 23  1  0
 10 36  1  6
 11 12  1  0
 11 37  1  0
 12 13  2  0
 12 14  1  0
 14 22  1  0
 14 15  2  0
 15 16  1  0
 15 38  1  0
 16 17  2  0
 17 22  1  0
 17 18  1  0
 18 19  2  0
 19 20  1  0
 19 39  1  0
 20 21  2  0
 20 40  1  0
 21 22  1  0
 21 41  1  0
 23 24  1  0
 23 25  1  0
 23 42  1  6
 24 43  1  0
 24 44  1  0
 25 45  1  0
 25 46  1  0
M  END
>  <i_m_ct_stereo_status>  (13) 
1

>  <s_m_source_file>  (13) 
/var/tmp/pbs.5076255.sched01/tmpfev35gxg/05fxellcm.sdf

>  <i_m_source_file_index>  (13) 
6

>  <i_lp_mmshare_version>  (13) 
48012

>  <i_f3d_flags>  (13) 
0

>  <s_epik_input>  (13) 
W05IMl1DKD1PKVtDQEBdMTJbQ0gyXVtDQEhdM1tDSDJdW0NAQEhdKFtDSDJdMSlbQ0BIXShbQ0BIXShbQ0gyXTMpW0NIMl0yKVtOSF1DKD1PKWMoW2NIXW40KW4oYzQ1KVtjSF1bY0hdW2NIXW41

>  <s_epik_cmdline>  (13) 
J2VwaWtfcHl0aG9uJywgJy1waHQnLCAnMi4wJywgJy1waCcsICc3LjAnLCAnLXRuJywgJzgnLCAnLW1hJywgJzIwMCcsICctaW1hZScsICc8aW5maWxlLm1hZT4nLCAnLW9tYWUnLCAnPG91dGZpbGUubWFlPic=

>  <r_lp_tautomer_probability>  (13) 
1

>  <r_epik_Ionization_Penalty>  (13) 
1.06878e-05

>  <r_epik_Ionization_Penalty_Charging>  (13) 
8.77544e-06

>  <r_epik_Ionization_Penalty_Neutral>  (13) 
1.91233e-06

>  <r_epik_State_Penalty>  (13) 
-0

>  <r_epik_Charging_Adjusted_Penalty>  (13) 
8.77544e-06

>  <i_epik_Tot_Q>  (13) 
0

>  <i_epik_Tot_abs_Q>  (13) 
0

>  <s_lp_Force_Field>  (13) 
OPLS3e

>  <r_lp_Energy>  (13) 
21.0006

>  <b_lp_Chiralities_Consistent>  (13) 
1

>  <s_lp_Variant>  (13) 
2:0-1

>  <s_i_glide_gridfile>  (13) 
pfpi4k_grid

>  <i_i_glide_lignum>  (13) 
6

>  <i_i_glide_rotatable_bonds>  (13) 
4

>  <r_i_docking_score>  (13) 
-4.01446

>  <r_i_glide_ligand_efficiency>  (13) 
-0.160578

>  <r_i_glide_ligand_efficiency_sa>  (13) 
-0.469534

>  <r_i_glide_ligand_efficiency_ln>  (13) 
-0.951547

>  <r_i_glide_gscore>  (13) 
-4.01446

>  <r_i_glide_lipo>  (13) 
-0.424833

>  <r_i_glide_hbond>  (13) 
-0.204341

>  <r_i_glide_metal>  (13) 
-0

>  <r_i_glide_rewards>  (13) 
-1.19991

>  <r_i_glide_evdw>  (13) 
-32.8812

>  <r_i_glide_ecoul>  (13) 
-6.19242

>  <r_i_glide_erotb>  (13) 
0.492872

>  <r_i_glide_esite>  (13) 
-0.105331

>  <r_i_glide_emodel>  (13) 
-49.3576

>  <r_i_glide_energy>  (13) 
-39.0736

>  <r_i_glide_einternal>  (13) 
0.431089

>  <r_i_glide_intrahb_reward>  (13) 
-0

>  <i_i_glide_confnum>  (13) 
6

>  <i_i_glide_posenum>  (13) 
36

>  <r_i_glide_eff_state_penalty>  (13) 
0

>  <ligand_id>  (13) 
2

>  <original_smiles>  (13) 
NC(=O)C12CC3CC(C1)C(NC(=O)c1cnc4ncccn14)C(C3)C2

>  <smiles>  (13) 
[H]c1nc2nc([H])c(C(=O)N([H])C3([H])C4([H])C([H])([H])C5([H])C([H])([H])C3([H])C([H])([H])C(C(=O)N([H])[H])(C5([H])[H])C4([H])[H])n2c([H])c1[H]

$$$$
2:0:1
     RDKit          3D

 46 50  0  0  1  0  0  0  0  0999 V2000
    0.9052    1.5004    1.6842 N   0  0  0  0  0  0  0  0  0  0  0  0
    1.6967    1.3941    2.7493 C   0  0  0  0  0  0  0  0  0  0  0  0
    2.1300    2.3939    3.3215 O   0  0  0  0  0  0  0  0  0  0  0  0
    2.0778   -0.0165    3.2633 C   0  0  1  0  0  0  0  0  0  0  0  0
    1.5301   -0.2262    4.7024 C   0  0  0  0  0  0  0  0  0  0  0  0
    1.9154   -1.6250    5.2360 C   0  0  1  0  0  0  0  0  0  0  0  0
    1.3214   -2.7120    4.3202 C   0  0  0  0  0  0  0  0  0  0  0  0
    1.8878   -2.5319    2.9014 C   0  0  1  0  0  0  0  0  0  0  0  0
    1.4985   -1.1427    2.3592 C   0  0  0  0  0  0  0  0  0  0  0  0
    3.4230   -2.6781    2.9328 C   0  0  1  0  0  0  0  0  0  0  0  0
    3.9340   -2.5644    1.5766 N   0  0  0  0  0  0  0  0  0  0  0  0
    5.1364   -2.9498    1.1503 C   0  0  0  0  0  0  0  0  0  0  0  0
    6.0318   -3.3088    1.9086 O   0  0  0  0  0  0  0  0  0  0  0  0
    5.3712   -2.8857   -0.2984 C   0  0  0  0  0  0  0  0  0  0  0  0
    6.5553   -2.8141   -0.9751 C   0  0  0  0  0  0  0  0  0  0  0  0
    6.3431   -2.7910   -2.3394 N   0  0  0  0  0  0  0  0  0  0  0  0
    5.0268   -2.8864   -2.5262 C   0  0  0  0  0  0  0  0  0  0  0  0
    4.3503   -2.9168   -3.6927 N   0  0  0  0  0  0  0  0  0  0  0  0
    3.0257   -3.0008   -3.6342 C   0  0  0  0  0  0  0  0  0  0  0  0
    2.3023   -3.0682   -2.4285 C   0  0  0  0  0  0  0  0  0  0  0  0
    2.9939   -3.0513   -1.2436 C   0  0  0  0  0  0  0  0  0  0  0  0
    4.3624   -2.9459   -1.2739 N   0  0  0  0  0  0  0  0  0  0  0  0
    4.0095   -1.5776    3.8477 C   0  0  2  0  0  0  0  0  0  0  0  0
    3.4520   -1.7618    5.2720 C   0  0  0  0  0  0  0  0  0  0  0  0
    3.6270   -0.1715    3.3177 C   0  0  0  0  0  0  0  0  0  0  0  0
    0.6374    2.4127    1.3136 H   0  0  0  0  0  0  0  0  0  0  0  0
    0.6135    0.6662    1.1856 H   0  0  0  0  0  0  0  0  0  0  0  0
    1.9271    0.5345    5.3753 H   0  0  0  0  0  0  0  0  0  0  0  0
    0.4458   -0.1120    4.7160 H   0  0  0  0  0  0  0  0  0  0  0  0
    1.5162   -1.7503    6.2418 H   0  0  0  0  0  0  0  0  0  0  0  0
    1.5760   -3.7043    4.6933 H   0  0  0  0  0  0  0  0  0  0  0  0
    0.2324   -2.6491    4.3082 H   0  0  0  0  0  0  0  0  0  0  0  0
    1.4594   -3.2955    2.2540 H   0  0  0  0  0  0  0  0  0  0  0  0
    0.4131   -1.0894    2.3086 H   0  0  0  0  0  0  0  0  0  0  0  0
    1.8599   -1.0272    1.3363 H   0  0  0  0  0  0  0  0  0  0  0  0
    3.6759   -3.6678    3.3217 H   0  0  0  0  0  0  0  0  0  0  0  0
    3.3194   -2.1430    0.8991 H   0  0  0  0  0  0  0  0  0  0  0  0
    7.5532   -2.7766   -0.5702 H   0  0  0  0  0  0  0  0  0  0  0  0
    2.4816   -3.0300   -4.5772 H   0  0  0  0  0  0  0  0  0  0  0  0
    1.2147   -3.1228   -2.4188 H   0  0  0  0  0  0  0  0  0  0  0  0
    2.4631   -3.1115   -0.3011 H   0  0  0  0  0  0  0  0  0  0  0  0
    5.0959   -1.6661    3.8857 H   0  0  0  0  0  0  0  0  0  0  0  0
    3.8865   -1.0183    5.9403 H   0  0  0  0  0  0  0  0  0  0  0  0
    3.7397   -2.7394    5.6628 H   0  0  0  0  0  0  0  0  0  0  0  0
    4.0577   -0.0054    2.3288 H   0  0  0  0  0  0  0  0  0  0  0  0
    4.0757    0.5886    3.9599 H   0  0  0  0  0  0  0  0  0  0  0  0
  1  2  1  0
  1 26  1  0
  1 27  1  0
  2  3  2  0
  4  2  1  6
  4  9  1  0
  4 25  1  0
  4  5  1  0
  5  6  1  0
  5 28  1  0
  5 29  1  0
  6 24  1  0
  6  7  1  0
  6 30  1  1
  7  8  1  0
  7 31  1  0
  7 32  1  0
  8  9  1  0
  8 10  1  0
  8 33  1  6
  9 34  1  0
  9 35  1  0
 10 11  1  0
 10 23  1  0
 10 36  1  1
 11 12  1  0
 11 37  1  0
 12 13  2  0
 12 14  1  0
 14 22  1  0
 14 15  2  0
 15 16  1  0
 15 38  1  0
 16 17  2  0
 17 22  1  0
 17 18  1  0
 18 19  2  0
 19 20  1  0
 19 39  1  0
 20 21  2  0
 20 40  1  0
 21 22  1  0
 21 41  1  0
 23 24  1  0
 23 25  1  0
 23 42  1  1
 24 43  1  0
 24 44  1  0
 25 45  1  0
 25 46  1  0
M  END
>  <i_m_ct_stereo_status>  (14) 
1

>  <s_m_source_file>  (14) 
/var/tmp/pbs.5076255.sched01/tmpfev35gxg/05fxellcm.sdf

>  <i_m_source_file_index>  (14) 
6

>  <i_lp_mmshare_version>  (14) 
48012

>  <i_f3d_flags>  (14) 
0

>  <s_epik_input>  (14) 
W05IMl1DKD1PKVtDQEBdMTJbQ0gyXVtDQEhdM1tDSDJdW0NAQEhdKFtDSDJdMSlbQ0BIXShbQ0BIXShbQ0gyXTMpW0NIMl0yKVtOSF1DKD1PKWMoW2NIXW40KW4oYzQ1KVtjSF1bY0hdW2NIXW41

>  <s_epik_cmdline>  (14) 
J2VwaWtfcHl0aG9uJywgJy1waHQnLCAnMi4wJywgJy1waCcsICc3LjAnLCAnLXRuJywgJzgnLCAnLW1hJywgJzIwMCcsICctaW1hZScsICc8aW5maWxlLm1hZT4nLCAnLW9tYWUnLCAnPG91dGZpbGUubWFlPic=

>  <r_lp_tautomer_probability>  (14) 
1

>  <r_epik_Ionization_Penalty>  (14) 
1.06878e-05

>  <r_epik_Ionization_Penalty_Charging>  (14) 
8.77544e-06

>  <r_epik_Ionization_Penalty_Neutral>  (14) 
1.91233e-06

>  <r_epik_State_Penalty>  (14) 
-0

>  <r_epik_Charging_Adjusted_Penalty>  (14) 
8.77544e-06

>  <i_epik_Tot_Q>  (14) 
0

>  <i_epik_Tot_abs_Q>  (14) 
0

>  <s_lp_Force_Field>  (14) 
OPLS3e

>  <r_lp_Energy>  (14) 
21.0006

>  <b_lp_Chiralities_Consistent>  (14) 
1

>  <s_lp_Variant>  (14) 
2:0-1

>  <s_i_glide_gridfile>  (14) 
pfpi4k_grid

>  <i_i_glide_lignum>  (14) 
6

>  <i_i_glide_rotatable_bonds>  (14) 
4

>  <r_i_docking_score>  (14) 
-3.86965

>  <r_i_glide_ligand_efficiency>  (14) 
-0.154786

>  <r_i_glide_ligand_efficiency_sa>  (14) 
-0.452597

>  <r_i_glide_ligand_efficiency_ln>  (14) 
-0.917223

>  <r_i_glide_gscore>  (14) 
-3.86965

>  <r_i_glide_lipo>  (14) 
-0.355116

>  <r_i_glide_hbond>  (14) 
-0.151461

>  <r_i_glide_metal>  (14) 
-0

>  <r_i_glide_rewards>  (14) 
-1.36783

>  <r_i_glide_evdw>  (14) 
-29.641

>  <r_i_glide_ecoul>  (14) 
-6.1234

>  <r_i_glide_erotb>  (14) 
0.492872

>  <r_i_glide_esite>  (14) 
-0.0875551

>  <r_i_glide_emodel>  (14) 
-44.4303

>  <r_i_glide_energy>  (14) 
-35.7644

>  <r_i_glide_einternal>  (14) 
2.76034

>  <r_i_glide_intrahb_reward>  (14) 
-0

>  <i_i_glide_confnum>  (14) 
3

>  <i_i_glide_posenum>  (14) 
2

>  <r_i_glide_eff_state_penalty>  (14) 
0

>  <ligand_id>  (14) 
2

>  <original_smiles>  (14) 
NC(=O)C12CC3CC(C1)C(NC(=O)c1cnc4ncccn14)C(C3)C2

>  <smiles>  (14) 
[H]c1nc2nc([H])c(C(=O)N([H])C3([H])C4([H])C([H])([H])C5([H])C([H])([H])C3([H])C([H])([H])C(C(=O)N([H])[H])(C5([H])[H])C4([H])[H])n2c([H])c1[H]

$$$$
2:0:2
     RDKit          3D

 46 50  0  0  1  0  0  0  0  0999 V2000
    2.2140    4.5904    2.4823 N   0  0  0  0  0  0  0  0  0  0  0  0
    2.5431    3.8252    3.5208 C   0  0  0  0  0  0  0  0  0  0  0  0
    3.3981    4.1846    4.3292 O   0  0  0  0  0  0  0  0  0  0  0  0
    1.8087    2.4694    3.6861 C   0  0  1  0  0  0  0  0  0  0  0  0
    0.4784    2.6923    4.4523 C   0  0  0  0  0  0  0  0  0  0  0  0
   -0.2656    1.3511    4.6333 C   0  0  1  0  0  0  0  0  0  0  0  0
   -0.5784    0.7429    3.2525 C   0  0  0  0  0  0  0  0  0  0  0  0
    0.7396    0.4889    2.4897 C   0  0  1  0  0  0  0  0  0  0  0  0
    1.4945    1.8229    2.3050 C   0  0  0  0  0  0  0  0  0  0  0  0
    1.6052   -0.5115    3.2915 C   0  0  1  0  0  0  0  0  0  0  0  0
    2.8429   -0.8013    2.5816 N   0  0  0  0  0  0  0  0  0  0  0  0
    3.1002   -1.8314    1.7691 C   0  0  0  0  0  0  0  0  0  0  0  0
    2.3234   -2.7654    1.5759 O   0  0  0  0  0  0  0  0  0  0  0  0
    4.3922   -1.7144    1.0737 C   0  0  0  0  0  0  0  0  0  0  0  0
    5.5457   -1.0807    1.4503 C   0  0  0  0  0  0  0  0  0  0  0  0
    6.5364   -1.2149    0.4951 N   0  0  0  0  0  0  0  0  0  0  0  0
    6.0036   -1.9523   -0.4704 C   0  0  0  0  0  0  0  0  0  0  0  0
    6.6040   -2.3303   -1.6102 N   0  0  0  0  0  0  0  0  0  0  0  0
    5.8858   -3.0567   -2.4536 C   0  0  0  0  0  0  0  0  0  0  0  0
    4.5439   -3.4366   -2.2263 C   0  0  0  0  0  0  0  0  0  0  0  0
    3.9286   -3.0342   -1.0570 C   0  0  0  0  0  0  0  0  0  0  0  0
    4.6595   -2.2924   -0.1662 N   0  0  0  0  0  0  0  0  0  0  0  0
    1.9262    0.1192    4.6692 C   0  0  2  0  0  0  0  0  0  0  0  0
    0.6127    0.3710    5.4380 C   0  0  0  0  0  0  0  0  0  0  0  0
    2.6764    1.4657    4.5003 C   0  0  0  0  0  0  0  0  0  0  0  0
    2.7057    5.4564    2.3365 H   0  0  0  0  0  0  0  0  0  0  0  0
    1.4783    4.3087    1.8318 H   0  0  0  0  0  0  0  0  0  0  0  0
    0.6710    3.1418    5.4275 H   0  0  0  0  0  0  0  0  0  0  0  0
   -0.1581    3.3941    3.9110 H   0  0  0  0  0  0  0  0  0  0  0  0
   -1.1988    1.5294    5.1673 H   0  0  0  0  0  0  0  0  0  0  0  0
   -1.1163   -0.1954    3.3780 H   0  0  0  0  0  0  0  0  0  0  0  0
   -1.2355    1.4029    2.6839 H   0  0  0  0  0  0  0  0  0  0  0  0
    0.5076    0.0845    1.5039 H   0  0  0  0  0  0  0  0  0  0  0  0
    0.8752    2.4677    1.6835 H   0  0  0  0  0  0  0  0  0  0  0  0
    2.4188    1.6726    1.7460 H   0  0  0  0  0  0  0  0  0  0  0  0
    1.0370   -1.4329    3.4470 H   0  0  0  0  0  0  0  0  0  0  0  0
    3.5402   -0.0741    2.6124 H   0  0  0  0  0  0  0  0  0  0  0  0
    5.7323   -0.5247    2.3580 H   0  0  0  0  0  0  0  0  0  0  0  0
    6.3952   -3.3706   -3.3625 H   0  0  0  0  0  0  0  0  0  0  0  0
    4.0068   -4.0387   -2.9538 H   0  0  0  0  0  0  0  0  0  0  0  0
    2.8931   -3.2744   -0.8185 H   0  0  0  0  0  0  0  0  0  0  0  0
    2.5502   -0.5673    5.2422 H   0  0  0  0  0  0  0  0  0  0  0  0
    0.8286    0.7808    6.4246 H   0  0  0  0  0  0  0  0  0  0  0  0
    0.0869   -0.5700    5.5996 H   0  0  0  0  0  0  0  0  0  0  0  0
    3.6411    1.3162    4.0130 H   0  0  0  0  0  0  0  0  0  0  0  0
    2.9100    1.8632    5.4890 H   0  0  0  0  0  0  0  0  0  0  0  0
  1  2  1  0
  1 26  1  0
  1 27  1  0
  2  3  2  0
  4  2  1  6
  4  9  1  0
  4 25  1  0
  4  5  1  0
  5  6  1  0
  5 28  1  0
  5 29  1  0
  6 24  1  0
  6  7  1  0
  6 30  1  1
  7  8  1  0
  7 31  1  0
  7 32  1  0
  8  9  1  0
  8 10  1  0
  8 33  1  6
  9 34  1  0
  9 35  1  0
 10 11  1  0
 10 23  1  0
 10 36  1  1
 11 12  1  0
 11 37  1  0
 12 13  2  0
 12 14  1  0
 14 22  1  0
 14 15  2  0
 15 16  1  0
 15 38  1  0
 16 17  2  0
 17 22  1  0
 17 18  1  0
 18 19  2  0
 19 20  1  0
 19 39  1  0
 20 21  2  0
 20 40  1  0
 21 22  1  0
 21 41  1  0
 23 24  1  0
 23 25  1  0
 23 42  1  1
 24 43  1  0
 24 44  1  0
 25 45  1  0
 25 46  1  0
M  END
>  <i_m_ct_stereo_status>  (15) 
1

>  <s_m_source_file>  (15) 
/var/tmp/pbs.5076255.sched01/tmpfev35gxg/05fxellcm.sdf

>  <i_m_source_file_index>  (15) 
6

>  <i_lp_mmshare_version>  (15) 
48012

>  <i_f3d_flags>  (15) 
0

>  <s_epik_input>  (15) 
W05IMl1DKD1PKVtDQEBdMTJbQ0gyXVtDQEhdM1tDSDJdW0NAQEhdKFtDSDJdMSlbQ0BIXShbQ0BIXShbQ0gyXTMpW0NIMl0yKVtOSF1DKD1PKWMoW2NIXW40KW4oYzQ1KVtjSF1bY0hdW2NIXW41

>  <s_epik_cmdline>  (15) 
J2VwaWtfcHl0aG9uJywgJy1waHQnLCAnMi4wJywgJy1waCcsICc3LjAnLCAnLXRuJywgJzgnLCAnLW1hJywgJzIwMCcsICctaW1hZScsICc8aW5maWxlLm1hZT4nLCAnLW9tYWUnLCAnPG91dGZpbGUubWFlPic=

>  <r_lp_tautomer_probability>  (15) 
1

>  <r_epik_Ionization_Penalty>  (15) 
1.06878e-05

>  <r_epik_Ionization_Penalty_Charging>  (15) 
8.77544e-06

>  <r_epik_Ionization_Penalty_Neutral>  (15) 
1.91233e-06

>  <r_epik_State_Penalty>  (15) 
-0

>  <r_epik_Charging_Adjusted_Penalty>  (15) 
8.77544e-06

>  <i_epik_Tot_Q>  (15) 
0

>  <i_epik_Tot_abs_Q>  (15) 
0

>  <s_lp_Force_Field>  (15) 
OPLS3e

>  <r_lp_Energy>  (15) 
21.0006

>  <b_lp_Chiralities_Consistent>  (15) 
1

>  <s_lp_Variant>  (15) 
2:0-1

>  <s_i_glide_gridfile>  (15) 
pfpi4k_grid

>  <i_i_glide_lignum>  (15) 
6

>  <i_i_glide_rotatable_bonds>  (15) 
4

>  <r_i_docking_score>  (15) 
-3.75979

>  <r_i_glide_ligand_efficiency>  (15) 
-0.150391

>  <r_i_glide_ligand_efficiency_sa>  (15) 
-0.439747

>  <r_i_glide_ligand_efficiency_ln>  (15) 
-0.891182

>  <r_i_glide_gscore>  (15) 
-3.75979

>  <r_i_glide_lipo>  (15) 
-0.321411

>  <r_i_glide_hbond>  (15) 
-0.305386

>  <r_i_glide_metal>  (15) 
-0

>  <r_i_glide_rewards>  (15) 
-1.09506

>  <r_i_glide_evdw>  (15) 
-29.7264

>  <r_i_glide_ecoul>  (15) 
-5.67033

>  <r_i_glide_erotb>  (15) 
0.492872

>  <r_i_glide_esite>  (15) 
-0.193934

>  <r_i_glide_emodel>  (15) 
-44.6843

>  <r_i_glide_energy>  (15) 
-35.3967

>  <r_i_glide_einternal>  (15) 
1.11347

>  <r_i_glide_intrahb_reward>  (15) 
-0

>  <i_i_glide_confnum>  (15) 
2

>  <i_i_glide_posenum>  (15) 
14

>  <r_i_glide_eff_state_penalty>  (15) 
0

>  <ligand_id>  (15) 
2

>  <original_smiles>  (15) 
NC(=O)C12CC3CC(C1)C(NC(=O)c1cnc4ncccn14)C(C3)C2

>  <smiles>  (15) 
[H]c1nc2nc([H])c(C(=O)N([H])C3([H])C4([H])C([H])([H])C5([H])C([H])([H])C3([H])C([H])([H])C(C(=O)N([H])[H])(C5([H])[H])C4([H])[H])n2c([H])c1[H]

$$$$
3:0:0
     RDKit          3D

 39 42  0  0  1  0  0  0  0  0999 V2000
    5.5924   -5.1914    3.5720 C   0  0  0  0  0  0  0  0  0  0  0  0
    5.1556   -4.4024    2.3176 C   0  0  2  0  0  0  0  0  0  0  0  0
    5.7738   -5.0764    1.0786 C   0  0  0  0  0  0  0  0  0  0  0  0
    5.3246   -4.5295   -0.2887 C   0  0  1  0  0  0  0  0  0  0  0  0
    3.9558   -4.1149   -0.2120 O   0  0  0  0  0  0  0  0  0  0  0  0
    3.8605   -2.6929   -0.3940 C   0  0  2  0  0  0  0  0  0  0  0  0
    3.3693   -2.4474   -1.8316 C   0  0  1  0  0  0  0  0  0  0  0  0
    3.0148   -1.0999   -2.0661 O   0  0  0  0  0  0  0  0  0  0  0  0
    4.5167   -2.8117   -2.7753 C   0  0  0  0  0  0  0  0  0  0  0  0
    5.7281   -3.2065   -2.3262 C   0  0  0  0  0  0  0  0  0  0  0  0
    6.0523   -3.2861   -0.8211 C   0  0  2  0  0  0  0  0  0  0  0  0
    7.5754   -3.2002   -0.5831 C   0  0  0  0  0  0  0  0  0  0  0  0
    5.2614   -2.1859   -0.1670 C   0  0  2  0  0  0  0  0  0  0  0  0
    4.9297   -1.9529    1.3243 C   0  0  2  0  0  0  0  0  0  0  0  0
    5.3213   -0.6519    1.7090 O   0  0  0  0  0  0  0  0  0  0  0  0
    5.4763   -2.8877    2.4314 C   0  0  1  0  0  0  0  0  0  0  0  0
    4.9650   -2.4442    3.6824 O   0  0  0  0  0  0  0  0  0  0  0  0
    3.4271   -2.0534    0.9304 C   0  0  1  0  0  0  0  0  0  0  0  0
    2.6845   -0.8432    0.8843 O   0  0  0  0  0  0  0  0  0  0  0  0
    6.6633   -5.0939    3.7481 H   0  0  0  0  0  0  0  0  0  0  0  0
    5.3680   -6.2551    3.4643 H   0  0  0  0  0  0  0  0  0  0  0  0
    5.0754   -4.8507    4.4719 H   0  0  0  0  0  0  0  0  0  0  0  0
    4.0738   -4.5284    2.2551 H   0  0  0  0  0  0  0  0  0  0  0  0
    6.8590   -5.0989    1.1548 H   0  0  0  0  0  0  0  0  0  0  0  0
    5.4738   -6.1254    1.1069 H   0  0  0  0  0  0  0  0  0  0  0  0
    5.3974   -5.3414   -1.0093 H   0  0  0  0  0  0  0  0  0  0  0  0
    2.5043   -3.0702   -2.0569 H   0  0  0  0  0  0  0  0  0  0  0  0
    2.1432   -0.9558   -1.6882 H   0  0  0  0  0  0  0  0  0  0  0  0
    4.3048   -2.7442   -3.8331 H   0  0  0  0  0  0  0  0  0  0  0  0
    6.5198   -3.4691   -3.0193 H   0  0  0  0  0  0  0  0  0  0  0  0
    7.8272   -3.1355    0.4779 H   0  0  0  0  0  0  0  0  0  0  0  0
    7.9989   -2.3170   -1.0648 H   0  0  0  0  0  0  0  0  0  0  0  0
    8.1079   -4.0607   -0.9944 H   0  0  0  0  0  0  0  0  0  0  0  0
    5.4168   -1.2163   -0.6477 H   0  0  0  0  0  0  0  0  0  0  0  0
    4.7624   -0.0829    1.2034 H   0  0  0  0  0  0  0  0  0  0  0  0
    6.5535   -2.7640    2.4663 H   0  0  0  0  0  0  0  0  0  0  0  0
    4.0242   -2.4912    3.6572 H   0  0  0  0  0  0  0  0  0  0  0  0
    2.8843   -2.7692    1.5531 H   0  0  0  0  0  0  0  0  0  0  0  0
    1.9302   -0.9898    0.3060 H   0  0  0  0  0  0  0  0  0  0  0  0
  1  2  1  0
  1 20  1  0
  1 21  1  0
  1 22  1  0
  2 16  1  0
  2  3  1  0
  2 23  1  6
  3  4  1  0
  3 24  1  0
  3 25  1  0
  4 11  1  0
  4  5  1  0
  4 26  1  6
  6  5  1  1
  6 13  1  0
  6 18  1  0
  6  7  1  0
  7  8  1  0
  7  9  1  0
  7 27  1  6
  8 28  1  0
  9 10  2  0
  9 29  1  0
 10 11  1  0
 10 30  1  0
 11 12  1  6
 11 13  1  0
 12 31  1  0
 12 32  1  0
 12 33  1  0
 13 14  1  0
 13 34  1  6
 14 15  1  1
 14 16  1  0
 14 18  1  0
 15 35  1  0
 16 17  1  0
 16 36  1  1
 17 37  1  0
 18 19  1  0
 18 38  1  1
 19 39  1  0
M  END
>  <i_m_ct_stereo_status>  (16) 
1

>  <s_m_source_file>  (16) 
/var/tmp/pbs.5076255.sched01/tmpfev35gxg/05fxellcm.sdf

>  <i_m_source_file_index>  (16) 
7

>  <i_lp_mmshare_version>  (16) 
48012

>  <i_f3d_flags>  (16) 
0

>  <s_epik_input>  (16) 
W09IXVtDQEBIXTFbQ0BAXTIoW09IXSlbQ0BASF0oW09IXSlbQ0BIXShbQ0gzXSlbQ0gyXVtDQEBIXShPMylbQ0BdKFtDSDNdKShbQ0BIXTJbQ0BdMTM0KVtDSF09W0NIXVtDQEBIXTRbT0hd

>  <s_epik_cmdline>  (16) 
J2VwaWtfcHl0aG9uJywgJy1waHQnLCAnMi4wJywgJy1waCcsICc3LjAnLCAnLXRuJywgJzgnLCAnLW1hJywgJzIwMCcsICctaW1hZScsICc8aW5maWxlLm1hZT4nLCAnLW9tYWUnLCAnPG91dGZpbGUubWFlPic=

>  <r_lp_tautomer_probability>  (16) 
1

>  <r_epik_Ionization_Penalty>  (16) 
3.35657e-07

>  <r_epik_Ionization_Penalty_Charging>  (16) 
0

>  <r_epik_Ionization_Penalty_Neutral>  (16) 
3.35657e-07

>  <r_epik_State_Penalty>  (16) 
-0

>  <r_epik_Charging_Adjusted_Penalty>  (16) 
0

>  <i_epik_Tot_Q>  (16) 
0

>  <i_epik_Tot_abs_Q>  (16) 
0

>  <s_lp_Force_Field>  (16) 
OPLS3e

>  <r_lp_Energy>  (16) 
49.7858

>  <b_lp_Chiralities_Consistent>  (16) 
1

>  <s_lp_Variant>  (16) 
3:0-1

>  <s_i_glide_gridfile>  (16) 
pfpi4k_grid

>  <i_i_glide_lignum>  (16) 
7

>  <i_i_glide_rotatable_bonds>  (16) 
4

>  <r_i_docking_score>  (16) 
-4.52742

>  <r_i_glide_ligand_efficiency>  (16) 
-0.238285

>  <r_i_glide_ligand_efficiency_sa>  (16) 
-0.635841

>  <r_i_glide_ligand_efficiency_ln>  (16) 
-1.1478

>  <r_i_glide_gscore>  (16) 
-4.52742

>  <r_i_glide_lipo>  (16) 
-0.776606

>  <r_i_glide_hbond>  (16) 
0

>  <r_i_glide_metal>  (16) 
-0

>  <r_i_glide_rewards>  (16) 
-1.57973

>  <r_i_glide_evdw>  (16) 
-18.1186

>  <r_i_glide_ecoul>  (16) 
-8.43434

>  <r_i_glide_erotb>  (16) 
0

>  <r_i_glide_esite>  (16) 
0

>  <r_i_glide_emodel>  (16) 
-34.0422

>  <r_i_glide_energy>  (16) 
-26.5529

>  <r_i_glide_einternal>  (16) 
2.24632

>  <r_i_glide_intrahb_reward>  (16) 
-0

>  <i_i_glide_confnum>  (16) 
2

>  <i_i_glide_posenum>  (16) 
39

>  <r_i_glide_eff_state_penalty>  (16) 
0

>  <ligand_id>  (16) 
3

>  <original_smiles>  (16) 
CC1CC2OC34C(O)C=CC2(C)C3C(O)(C1O)C4O

>  <smiles>  (16) 
[H]OC1([H])C([H])=C([H])C2(C([H])([H])[H])C3([H])OC14C([H])(O[H])C(O[H])(C([H])(O[H])C([H])(C([H])([H])[H])C3([H])[H])C42[H]

$$$$
3:0:1
     RDKit          3D

 39 42  0  0  1  0  0  0  0  0999 V2000
    5.9715   -5.0737    2.9411 C   0  0  0  0  0  0  0  0  0  0  0  0
    5.4299   -4.2353    1.7626 C   0  0  2  0  0  0  0  0  0  0  0  0
    5.9080   -4.9116    0.4728 C   0  0  0  0  0  0  0  0  0  0  0  0
    5.3209   -4.3419   -0.8226 C   0  0  1  0  0  0  0  0  0  0  0  0
    3.9705   -3.9317   -0.6016 O   0  0  0  0  0  0  0  0  0  0  0  0
    3.8757   -2.5238   -0.7967 C   0  0  2  0  0  0  0  0  0  0  0  0
    3.2428   -2.3136   -2.1829 C   0  0  1  0  0  0  0  0  0  0  0  0
    2.9567   -0.9702   -2.3802 O   0  0  0  0  0  0  0  0  0  0  0  0
    4.2637   -2.6975   -3.2358 C   0  0  0  0  0  0  0  0  0  0  0  0
    5.5131   -3.0996   -2.9022 C   0  0  0  0  0  0  0  0  0  0  0  0
    6.0001   -3.1253   -1.4544 C   0  0  2  0  0  0  0  0  0  0  0  0
    7.5334   -3.0221   -1.3743 C   0  0  0  0  0  0  0  0  0  0  0  0
    5.2970   -2.0269   -0.7383 C   0  0  2  0  0  0  0  0  0  0  0  0
    5.1318   -1.8073    0.7871 C   0  0  2  0  0  0  0  0  0  0  0  0
    5.5722   -0.5203    1.1520 O   0  0  0  0  0  0  0  0  0  0  0  0
    5.7922   -2.7293    1.8355 C   0  0  1  0  0  0  0  0  0  0  0  0
    5.3805   -2.2500    3.0977 O   0  0  0  0  0  0  0  0  0  0  0  0
    3.5986   -1.8789    0.5615 C   0  0  1  0  0  0  0  0  0  0  0  0
    2.9481   -0.6295    0.5860 O   0  0  0  0  0  0  0  0  0  0  0  0
    7.0643   -5.0830    2.9572 H   0  0  0  0  0  0  0  0  0  0  0  0
    5.6578   -6.1170    2.8704 H   0  0  0  0  0  0  0  0  0  0  0  0
    5.6086   -4.6923    3.8987 H   0  0  0  0  0  0  0  0  0  0  0  0
    4.3453   -4.3366    1.8118 H   0  0  0  0  0  0  0  0  0  0  0  0
    7.0012   -4.9333    0.4284 H   0  0  0  0  0  0  0  0  0  0  0  0
    5.5955   -5.9537    0.5281 H   0  0  0  0  0  0  0  0  0  0  0  0
    5.2990   -5.1573   -1.5369 H   0  0  0  0  0  0  0  0  0  0  0  0
    2.3294   -2.9079   -2.3112 H   0  0  0  0  0  0  0  0  0  0  0  0
    2.1631   -0.7464   -1.9154 H   0  0  0  0  0  0  0  0  0  0  0  0
    3.9270   -2.6257   -4.2582 H   0  0  0  0  0  0  0  0  0  0  0  0
    6.2262   -3.3865   -3.6483 H   0  0  0  0  0  0  0  0  0  0  0  0
    7.9054   -2.9636   -0.3605 H   0  0  0  0  0  0  0  0  0  0  0  0
    7.8927   -2.1531   -1.8992 H   0  0  0  0  0  0  0  0  0  0  0  0
    8.0443   -3.8488   -1.8605 H   0  0  0  0  0  0  0  0  0  0  0  0
    5.3761   -1.0468   -1.2134 H   0  0  0  0  0  0  0  0  0  0  0  0
    5.0634    0.0607    0.5887 H   0  0  0  0  0  0  0  0  0  0  0  0
    6.8802   -2.6194    1.7562 H   0  0  0  0  0  0  0  0  0  0  0  0
    5.5434   -1.3166    3.0606 H   0  0  0  0  0  0  0  0  0  0  0  0
    3.0968   -2.5763    1.2309 H   0  0  0  0  0  0  0  0  0  0  0  0
    2.0797   -0.7714    0.2254 H   0  0  0  0  0  0  0  0  0  0  0  0
  1  2  1  0
  1 20  1  0
  1 21  1  0
  1 22  1  0
  2 16  1  0
  2  3  1  0
  2 23  1  6
  3  4  1  0
  3 24  1  0
  3 25  1  0
  4 11  1  0
  4  5  1  0
  4 26  1  6
  6  5  1  1
  6 13  1  0
  6 18  1  0
  6  7  1  0
  7  8  1  0
  7  9  1  0
  7 27  1  1
  8 28  1  0
  9 10  2  0
  9 29  1  0
 10 11  1  0
 10 30  1  0
 11 12  1  6
 11 13  1  0
 12 31  1  0
 12 32  1  0
 12 33  1  0
 13 14  1  0
 13 34  1  6
 14 15  1  1
 14 16  1  0
 14 18  1  0
 15 35  1  0
 16 17  1  0
 16 36  1  1
 17 37  1  0
 18 19  1  0
 18 38  1  1
 19 39  1  0
M  END
>  <i_m_ct_stereo_status>  (17) 
1

>  <s_m_source_file>  (17) 
/var/tmp/pbs.5076255.sched01/tmpfev35gxg/05fxellcm.sdf

>  <i_m_source_file_index>  (17) 
7

>  <i_lp_mmshare_version>  (17) 
48012

>  <i_f3d_flags>  (17) 
0

>  <s_epik_input>  (17) 
W09IXVtDQEBIXTFbQ0BAXTIoW09IXSlbQ0BASF0oW09IXSlbQ0BIXShbQ0gzXSlbQ0gyXVtDQEBIXShPMylbQ0BdKFtDSDNdKShbQ0BIXTJbQ0BdMTM0KVtDSF09W0NIXVtDQEBIXTRbT0hd

>  <s_epik_cmdline>  (17) 
J2VwaWtfcHl0aG9uJywgJy1waHQnLCAnMi4wJywgJy1waCcsICc3LjAnLCAnLXRuJywgJzgnLCAnLW1hJywgJzIwMCcsICctaW1hZScsICc8aW5maWxlLm1hZT4nLCAnLW9tYWUnLCAnPG91dGZpbGUubWFlPic=

>  <r_lp_tautomer_probability>  (17) 
1

>  <r_epik_Ionization_Penalty>  (17) 
3.35657e-07

>  <r_epik_Ionization_Penalty_Charging>  (17) 
0

>  <r_epik_Ionization_Penalty_Neutral>  (17) 
3.35657e-07

>  <r_epik_State_Penalty>  (17) 
-0

>  <r_epik_Charging_Adjusted_Penalty>  (17) 
0

>  <i_epik_Tot_Q>  (17) 
0

>  <i_epik_Tot_abs_Q>  (17) 
0

>  <s_lp_Force_Field>  (17) 
OPLS3e

>  <r_lp_Energy>  (17) 
49.7858

>  <b_lp_Chiralities_Consistent>  (17) 
1

>  <s_lp_Variant>  (17) 
3:0-1

>  <s_i_glide_gridfile>  (17) 
pfpi4k_grid

>  <i_i_glide_lignum>  (17) 
7

>  <i_i_glide_rotatable_bonds>  (17) 
4

>  <r_i_docking_score>  (17) 
-4.17737

>  <r_i_glide_ligand_efficiency>  (17) 
-0.219862

>  <r_i_glide_ligand_efficiency_sa>  (17) 
-0.586679

>  <r_i_glide_ligand_efficiency_ln>  (17) 
-1.05905

>  <r_i_glide_gscore>  (17) 
-4.17737

>  <r_i_glide_lipo>  (17) 
-0.71373

>  <r_i_glide_hbond>  (17) 
0

>  <r_i_glide_metal>  (17) 
-0

>  <r_i_glide_rewards>  (17) 
-1.57973

>  <r_i_glide_evdw>  (17) 
-19.1081

>  <r_i_glide_ecoul>  (17) 
-6.19003

>  <r_i_glide_erotb>  (17) 
0

>  <r_i_glide_esite>  (17) 
0

>  <r_i_glide_emodel>  (17) 
-31.8493

>  <r_i_glide_energy>  (17) 
-25.2981

>  <r_i_glide_einternal>  (17) 
2.43751

>  <r_i_glide_intrahb_reward>  (17) 
-0

>  <i_i_glide_confnum>  (17) 
1

>  <i_i_glide_posenum>  (17) 
40

>  <r_i_glide_eff_state_penalty>  (17) 
0

>  <ligand_id>  (17) 
3

>  <original_smiles>  (17) 
CC1CC2OC34C(O)C=CC2(C)C3C(O)(C1O)C4O

>  <smiles>  (17) 
[H]OC1([H])C([H])=C([H])C2(C([H])([H])[H])C3([H])OC14C([H])(O[H])C(O[H])(C([H])(O[H])C([H])(C([H])([H])[H])C3([H])[H])C42[H]

$$$$
3:0:2
     RDKit          3D

 39 42  0  0  1  0  0  0  0  0999 V2000
    3.0180   -2.4389   -2.5134 C   0  0  0  0  0  0  0  0  0  0  0  0
    4.0665   -3.0055   -1.5302 C   0  0  2  0  0  0  0  0  0  0  0  0
    3.3420   -3.9032   -0.5097 C   0  0  0  0  0  0  0  0  0  0  0  0
    4.2428   -4.7182    0.4378 C   0  0  1  0  0  0  0  0  0  0  0  0
    5.4472   -5.0942   -0.2392 O   0  0  0  0  0  0  0  0  0  0  0  0
    6.5856   -4.4310    0.3448 C   0  0  2  0  0  0  0  0  0  0  0  0
    7.3217   -5.4750    1.2134 C   0  0  1  0  0  0  0  0  0  0  0  0
    8.5877   -5.0183    1.6548 O   0  0  0  0  0  0  0  0  0  0  0  0
    6.4356   -5.7632    2.4306 C   0  0  0  0  0  0  0  0  0  0  0  0
    5.2602   -5.1173    2.6425 C   0  0  0  0  0  0  0  0  0  0  0  0
    4.7540   -4.0102    1.6982 C   0  0  2  0  0  0  0  0  0  0  0  0
    3.7624   -3.0786    2.4195 C   0  0  0  0  0  0  0  0  0  0  0  0
    5.9772   -3.3196    1.1712 C   0  0  2  0  0  0  0  0  0  0  0  0
    6.1405   -2.3468   -0.0258 C   0  0  2  0  0  0  0  0  0  0  0  0
    6.7334   -1.1364    0.3996 O   0  0  0  0  0  0  0  0  0  0  0  0
    4.9224   -1.8919   -0.8704 C   0  0  1  0  0  0  0  0  0  0  0  0
    5.4090   -1.0746   -1.9267 O   0  0  0  0  0  0  0  0  0  0  0  0
    7.1389   -3.3802   -0.6314 C   0  0  1  0  0  0  0  0  0  0  0  0
    8.5238   -3.0796   -0.5931 O   0  0  0  0  0  0  0  0  0  0  0  0
    2.3495   -1.7527   -1.9979 H   0  0  0  0  0  0  0  0  0  0  0  0
    2.4053   -3.2343   -2.9416 H   0  0  0  0  0  0  0  0  0  0  0  0
    3.4702   -1.9006   -3.3478 H   0  0  0  0  0  0  0  0  0  0  0  0
    4.7106   -3.6420   -2.1331 H   0  0  0  0  0  0  0  0  0  0  0  0
    2.5912   -3.3344    0.0440 H   0  0  0  0  0  0  0  0  0  0  0  0
    2.7651   -4.6276   -1.0800 H   0  0  0  0  0  0  0  0  0  0  0  0
    3.6961   -5.6188    0.7178 H   0  0  0  0  0  0  0  0  0  0  0  0
    7.4774   -6.3991    0.6544 H   0  0  0  0  0  0  0  0  0  0  0  0
    9.0107   -5.6962    2.1609 H   0  0  0  0  0  0  0  0  0  0  0  0
    6.7741   -6.5231    3.1169 H   0  0  0  0  0  0  0  0  0  0  0  0
    4.6481   -5.3535    3.4969 H   0  0  0  0  0  0  0  0  0  0  0  0
    3.4789   -2.2236    1.8096 H   0  0  0  0  0  0  0  0  0  0  0  0
    4.2041   -2.6853    3.3332 H   0  0  0  0  0  0  0  0  0  0  0  0
    2.8514   -3.6097    2.6967 H   0  0  0  0  0  0  0  0  0  0  0  0
    6.6472   -3.0024    1.9758 H   0  0  0  0  0  0  0  0  0  0  0  0
    7.3577   -1.3760    1.0712 H   0  0  0  0  0  0  0  0  0  0  0  0
    4.2716   -1.2707   -0.2501 H   0  0  0  0  0  0  0  0  0  0  0  0
    4.6578   -0.6370   -2.2937 H   0  0  0  0  0  0  0  0  0  0  0  0
    6.8777   -3.6412   -1.6545 H   0  0  0  0  0  0  0  0  0  0  0  0
    8.8403   -3.0554   -1.4881 H   0  0  0  0  0  0  0  0  0  0  0  0
  1  2  1  0
  1 20  1  0
  1 21  1  0
  1 22  1  0
  2 16  1  0
  2  3  1  0
  2 23  1  6
  3  4  1  0
  3 24  1  0
  3 25  1  0
  4 11  1  0
  4  5  1  0
  4 26  1  1
  6  5  1  6
  6 13  1  0
  6 18  1  0
  6  7  1  0
  7  8  1  0
  7  9  1  0
  7 27  1  6
  8 28  1  0
  9 10  2  0
  9 29  1  0
 10 11  1  0
 10 30  1  0
 11 12  1  1
 11 13  1  0
 12 31  1  0
 12 32  1  0
 12 33  1  0
 13 14  1  0
 13 34  1  1
 14 15  1  1
 14 16  1  0
 14 18  1  0
 15 35  1  0
 16 17  1  0
 16 36  1  1
 17 37  1  0
 18 19  1  0
 18 38  1  6
 19 39  1  0
M  END
>  <i_m_ct_stereo_status>  (18) 
1

>  <s_m_source_file>  (18) 
/var/tmp/pbs.5076255.sched01/tmpfev35gxg/05fxellcm.sdf

>  <i_m_source_file_index>  (18) 
7

>  <i_lp_mmshare_version>  (18) 
48012

>  <i_f3d_flags>  (18) 
0

>  <s_epik_input>  (18) 
W09IXVtDQEBIXTFbQ0BAXTIoW09IXSlbQ0BASF0oW09IXSlbQ0BIXShbQ0gzXSlbQ0gyXVtDQEBIXShPMylbQ0BdKFtDSDNdKShbQ0BIXTJbQ0BdMTM0KVtDSF09W0NIXVtDQEBIXTRbT0hd

>  <s_epik_cmdline>  (18) 
J2VwaWtfcHl0aG9uJywgJy1waHQnLCAnMi4wJywgJy1waCcsICc3LjAnLCAnLXRuJywgJzgnLCAnLW1hJywgJzIwMCcsICctaW1hZScsICc8aW5maWxlLm1hZT4nLCAnLW9tYWUnLCAnPG91dGZpbGUubWFlPic=

>  <r_lp_tautomer_probability>  (18) 
1

>  <r_epik_Ionization_Penalty>  (18) 
3.35657e-07

>  <r_epik_Ionization_Penalty_Charging>  (18) 
0

>  <r_epik_Ionization_Penalty_Neutral>  (18) 
3.35657e-07

>  <r_epik_State_Penalty>  (18) 
-0

>  <r_epik_Charging_Adjusted_Penalty>  (18) 
0

>  <i_epik_Tot_Q>  (18) 
0

>  <i_epik_Tot_abs_Q>  (18) 
0

>  <s_lp_Force_Field>  (18) 
OPLS3e

>  <r_lp_Energy>  (18) 
49.7858

>  <b_lp_Chiralities_Consistent>  (18) 
1

>  <s_lp_Variant>  (18) 
3:0-1

>  <s_i_glide_gridfile>  (18) 
pfpi4k_grid

>  <i_i_glide_lignum>  (18) 
7

>  <i_i_glide_rotatable_bonds>  (18) 
4

>  <r_i_docking_score>  (18) 
-3.95854

>  <r_i_glide_ligand_efficiency>  (18) 
-0.208344

>  <r_i_glide_ligand_efficiency_sa>  (18) 
-0.555947

>  <r_i_glide_ligand_efficiency_ln>  (18) 
-1.00358

>  <r_i_glide_gscore>  (18) 
-3.95854

>  <r_i_glide_lipo>  (18) 
-0.568852

>  <r_i_glide_hbond>  (18) 
0

>  <r_i_glide_metal>  (18) 
-0

>  <r_i_glide_rewards>  (18) 
-1.57973

>  <r_i_glide_evdw>  (18) 
-21.5074

>  <r_i_glide_ecoul>  (18) 
-4.89723

>  <r_i_glide_erotb>  (18) 
0

>  <r_i_glide_esite>  (18) 
0

>  <r_i_glide_emodel>  (18) 
-32.9111

>  <r_i_glide_energy>  (18) 
-26.4047

>  <r_i_glide_einternal>  (18) 
2.40622

>  <r_i_glide_intrahb_reward>  (18) 
-0

>  <i_i_glide_confnum>  (18) 
2

>  <i_i_glide_posenum>  (18) 
26

>  <r_i_glide_eff_state_penalty>  (18) 
0

>  <ligand_id>  (18) 
3

>  <original_smiles>  (18) 
CC1CC2OC34C(O)C=CC2(C)C3C(O)(C1O)C4O

>  <smiles>  (18) 
[H]OC1([H])C([H])=C([H])C2(C([H])([H])[H])C3([H])OC14C([H])(O[H])C(O[H])(C([H])(O[H])C([H])(C([H])([H])[H])C3([H])[H])C42[H]

$$$$
4:0:0
     RDKit          3D

 73 79  0  0  1  0  0  0  0  0999 V2000
    4.0047   -0.2744   -3.2306 C   0  0  0  0  0  0  0  0  0  0  0  0
    3.6533   -1.1953   -2.0491 C   0  0  2  0  0  0  0  0  0  0  0  0
    4.5151   -0.8891   -0.8037 C   0  0  0  0  0  0  0  0  0  0  0  0
    4.1583   -1.7346    0.4096 C   0  0  2  0  0  0  0  0  0  0  0  0
    3.0168   -1.2566    1.1052 O   0  0  0  0  0  0  0  0  0  0  0  0
    4.2883   -1.1834    1.7925 C   0  0  1  0  0  0  0  0  0  0  0  0
    4.3835   -2.0492    3.0259 C   0  0  0  0  0  0  0  0  0  0  0  0
    4.2506   -3.5802    2.7833 C   0  0  1  0  0  0  0  0  0  0  0  0
    3.7260   -4.3315    4.0584 C   0  0  1  0  0  0  0  0  0  0  0  0
    2.5801   -3.7100    4.8806 C   0  0  1  0  0  0  0  0  0  0  0  0
    1.4912   -3.5108    4.1312 F   0  0  0  0  0  0  0  0  0  0  0  0
    2.3839   -4.8119    5.9219 C   0  0  1  0  0  0  0  0  0  0  0  0
    1.4029   -4.6455    6.9616 O   0  0  0  0  0  0  0  0  0  0  0  0
    0.9425   -5.8953    7.4915 C   0  0  2  0  0  0  0  0  0  0  0  0
    0.5251   -5.8658    8.9472 C   0  0  0  0  0  0  0  0  0  0  0  0
    0.0032   -4.9043    9.5056 O   0  0  0  0  0  0  0  0  0  0  0  0
    0.8128   -7.0698    9.4755 O   0  0  0  0  0  0  0  0  0  0  0  0
    1.4462   -7.9767    8.5556 C   0  0  1  0  0  0  0  0  0  0  0  0
    0.3626   -8.9416    8.0290 C   0  0  0  0  0  0  0  0  0  0  0  0
    2.0341   -6.9563    7.5542 C   0  0  1  0  0  0  0  0  0  0  0  0
    2.6422   -7.3116    6.1643 C   0  0  1  0  0  0  0  0  0  0  0  0
    2.1999   -8.5465    5.6387 O   0  0  0  0  0  0  0  0  0  0  0  0
    2.3783   -6.1464    5.1429 C   0  0  1  0  0  0  0  0  0  0  0  0
    1.0688   -6.3546    4.6321 O   0  0  0  0  0  0  0  0  0  0  0  0
    3.3750   -5.8597    3.9322 C   0  0  2  0  0  0  0  0  0  0  0  0
    4.6765   -6.6933    4.0286 C   0  0  0  0  0  0  0  0  0  0  0  0
    2.7061   -6.1314    2.5491 C   0  0  0  0  0  0  0  0  0  0  0  0
    3.4483   -5.4968    1.3828 C   0  0  0  0  0  0  0  0  0  0  0  0
    3.9231   -6.1876    0.4799 O   0  0  0  0  0  0  0  0  0  0  0  0
    3.5564   -3.9612    1.4416 C   0  0  2  0  0  0  0  0  0  0  0  0
    4.1784   -3.2328    0.1644 C   0  0  2  0  0  0  0  0  0  0  0  0
    5.6617   -3.6576   -0.0548 C   0  0  0  0  0  0  0  0  0  0  0  0
    3.3806   -3.5478   -1.1436 C   0  0  1  0  0  0  0  0  0  0  0  0
    1.9797   -3.4603   -0.9547 O   0  0  0  0  0  0  0  0  0  0  0  0
    3.7693   -2.6901   -2.3806 C   0  0  1  0  0  0  0  0  0  0  0  0
    3.0069   -3.0825   -3.6595 C   0  0  0  0  0  0  0  0  0  0  0  0
    5.0046   -0.5089   -3.5747 H   0  0  0  0  0  0  0  0  0  0  0  0
    3.9646    0.7743   -2.9415 H   0  0  0  0  0  0  0  0  0  0  0  0
    3.3092   -0.3897   -4.0624 H   0  0  0  0  0  0  0  0  0  0  0  0
    2.6210   -0.9624   -1.8132 H   0  0  0  0  0  0  0  0  0  0  0  0
    5.5799   -0.9760   -1.0287 H   0  0  0  0  0  0  0  0  0  0  0  0
    4.3332    0.1432   -0.5068 H   0  0  0  0  0  0  0  0  0  0  0  0
    4.6481   -0.1663    1.9108 H   0  0  0  0  0  0  0  0  0  0  0  0
    5.3492   -1.8433    3.4900 H   0  0  0  0  0  0  0  0  0  0  0  0
    3.6351   -1.6664    3.7167 H   0  0  0  0  0  0  0  0  0  0  0  0
    5.2734   -3.9327    2.6715 H   0  0  0  0  0  0  0  0  0  0  0  0
    4.5796   -4.2746    4.7353 H   0  0  0  0  0  0  0  0  0  0  0  0
    2.8488   -2.7744    5.3709 H   0  0  0  0  0  0  0  0  0  0  0  0
    3.3111   -4.8075    6.5016 H   0  0  0  0  0  0  0  0  0  0  0  0
    0.0816   -6.2477    6.9226 H   0  0  0  0  0  0  0  0  0  0  0  0
    2.2324   -8.5431    9.0568 H   0  0  0  0  0  0  0  0  0  0  0  0
    0.7792   -9.7590    7.4390 H   0  0  0  0  0  0  0  0  0  0  0  0
   -0.3768   -8.4332    7.4153 H   0  0  0  0  0  0  0  0  0  0  0  0
   -0.1691   -9.3947    8.8659 H   0  0  0  0  0  0  0  0  0  0  0  0
    2.8672   -6.4992    8.0960 H   0  0  0  0  0  0  0  0  0  0  0  0
    3.7098   -7.4121    6.3440 H   0  0  0  0  0  0  0  0  0  0  0  0
    2.4239   -9.2358    6.2519 H   0  0  0  0  0  0  0  0  0  0  0  0
    1.0417   -7.2654    4.3689 H   0  0  0  0  0  0  0  0  0  0  0  0
    4.4659   -7.7625    3.9717 H   0  0  0  0  0  0  0  0  0  0  0  0
    5.2155   -6.5077    4.9604 H   0  0  0  0  0  0  0  0  0  0  0  0
    5.3674   -6.4593    3.2182 H   0  0  0  0  0  0  0  0  0  0  0  0
    2.5975   -7.1982    2.3762 H   0  0  0  0  0  0  0  0  0  0  0  0
    1.7122   -5.6912    2.4959 H   0  0  0  0  0  0  0  0  0  0  0  0
    2.5280   -3.6133    1.5238 H   0  0  0  0  0  0  0  0  0  0  0  0
    5.7554   -4.7274   -0.2635 H   0  0  0  0  0  0  0  0  0  0  0  0
    6.2776   -3.4290    0.8168 H   0  0  0  0  0  0  0  0  0  0  0  0
    6.1376   -3.1421   -0.8946 H   0  0  0  0  0  0  0  0  0  0  0  0
    3.6050   -4.5768   -1.3941 H   0  0  0  0  0  0  0  0  0  0  0  0
    1.7380   -2.5308   -0.9173 H   0  0  0  0  0  0  0  0  0  0  0  0
    4.8124   -2.8843   -2.6090 H   0  0  0  0  0  0  0  0  0  0  0  0
    1.9477   -2.8205   -3.6085 H   0  0  0  0  0  0  0  0  0  0  0  0
    3.0759   -4.1554   -3.8356 H   0  0  0  0  0  0  0  0  0  0  0  0
    3.4257   -2.6010   -4.5454 H   0  0  0  0  0  0  0  0  0  0  0  0
  1  2  1  0
  1 37  1  0
  1 38  1  0
  1 39  1  0
  2 35  1  0
  2  3  1  0
  2 40  1  1
  3  4  1  0
  3 41  1  0
  3 42  1  0
  4  6  1  0
  4 31  1  0
  4  5  1  6
  5  6  1  0
  6  7  1  0
  6 43  1  6
  7  8  1  0
  7 44  1  0
  7 45  1  0
  8 30  1  0
  8  9  1  0
  8 46  1  6
  9 25  1  0
  9 10  1  0
  9 47  1  1
 10 11  1  0
 10 12  1  0
 10 48  1  1
 12 23  1  0
 12 13  1  0
 12 49  1  1
 13 14  1  0
 14 20  1  0
 14 15  1  0
 14 50  1  6
 15 16  2  0
 15 17  1  0
 17 18  1  0
 18 19  1  0
 18 20  1  0
 18 51  1  1
 19 52  1  0
 19 53  1  0
 19 54  1  0
 20 21  1  0
 20 55  1  1
 21 22  1  0
 21 23  1  0
 21 56  1  1
 22 57  1  0
 23 24  1  6
 23 25  1  0
 24 58  1  0
 25 26  1  1
 25 27  1  0
 26 59  1  0
 26 60  1  0
 26 61  1  0
 27 28  1  0
 27 62  1  0
 27 63  1  0
 28 29  2  0
 28 30  1  0
 30 31  1  0
 30 64  1  1
 31 32  1  6
 31 33  1  0
 32 65  1  0
 32 66  1  0
 32 67  1  0
 33 34  1  0
 33 35  1  0
 33 68  1  6
 34 69  1  0
 35 36  1  0
 35 70  1  6
 36 71  1  0
 36 72  1  0
 36 73  1  0
M  END
>  <i_m_ct_stereo_status>  (19) 
1

>  <s_m_source_file>  (19) 
/var/tmp/pbs.5076255.sched01/tmpfev35gxg/05fxellcm.sdf

>  <i_m_source_file_index>  (19) 
8

>  <i_lp_mmshare_version>  (19) 
48012

>  <i_f3d_flags>  (19) 
0

>  <s_epik_input>  (19) 
W0NIM11bQ0BIXShbQ0gyXTEpW0NASF0oW0NIM10pW0NASF0oW09IXSlbQ0BdMihbQ0gzXSlbQ0BIXTNDKD1PKVtDSDJdW0NAQF0oW0NIM10pKFtDQEhdNFtDQEBIXTNbQ0gyXVtDQEBIXShbQ0BAXTEyNSlPNSlbQ0BdNihbT0hdKVtDQEBIXShbQ0BASF00RilPW0NASF03W0NASF0oW0NASF02W09IXSlbQ0BIXShbQ0gzXSlPQzc9Tw==

>  <s_epik_cmdline>  (19) 
J2VwaWtfcHl0aG9uJywgJy1waHQnLCAnMi4wJywgJy1waCcsICc3LjAnLCAnLXRuJywgJzgnLCAnLW1hJywgJzIwMCcsICctaW1hZScsICc8aW5maWxlLm1hZT4nLCAnLW9tYWUnLCAnPG91dGZpbGUubWFlPic=

>  <r_lp_tautomer_probability>  (19) 
1

>  <r_epik_Ionization_Penalty>  (19) 
7.17145e-07

>  <r_epik_Ionization_Penalty_Charging>  (19) 
0

>  <r_epik_Ionization_Penalty_Neutral>  (19) 
7.17145e-07

>  <r_epik_State_Penalty>  (19) 
-0

>  <r_epik_Charging_Adjusted_Penalty>  (19) 
0

>  <i_epik_Tot_Q>  (19) 
0

>  <i_epik_Tot_abs_Q>  (19) 
0

>  <s_epik_Chemistry_Notes>  (19) 
This compound has an ester and may undergo hydrolysis at high or low pH.

>  <s_lp_Force_Field>  (19) 
OPLS3e

>  <r_lp_Energy>  (19) 
77.3155

>  <b_lp_Chiralities_Consistent>  (19) 
1

>  <s_lp_Variant>  (19) 
4:0-1

>  <s_i_glide_gridfile>  (19) 
pfpi4k_grid

>  <i_i_glide_lignum>  (19) 
8

>  <i_i_glide_rotatable_bonds>  (19) 
3

>  <r_i_docking_score>  (19) 
-2.39036

>  <r_i_glide_ligand_efficiency>  (19) 
-0.0663989

>  <r_i_glide_ligand_efficiency_sa>  (19) 
-0.219244

>  <r_i_glide_ligand_efficiency_ln>  (19) 
-0.521512

>  <r_i_glide_gscore>  (19) 
-2.39036

>  <r_i_glide_lipo>  (19) 
-0.595336

>  <r_i_glide_hbond>  (19) 
0

>  <r_i_glide_metal>  (19) 
-0

>  <r_i_glide_rewards>  (19) 
-0.0464598

>  <r_i_glide_evdw>  (19) 
-28.207

>  <r_i_glide_ecoul>  (19) 
-2.17545

>  <r_i_glide_erotb>  (19) 
0

>  <r_i_glide_esite>  (19) 
-0.0118981

>  <r_i_glide_emodel>  (19) 
-34.344

>  <r_i_glide_energy>  (19) 
-30.3824

>  <r_i_glide_einternal>  (19) 
0.608208

>  <r_i_glide_intrahb_reward>  (19) 
-0

>  <i_i_glide_confnum>  (19) 
2

>  <i_i_glide_posenum>  (19) 
34

>  <r_i_glide_eff_state_penalty>  (19) 
0

>  <ligand_id>  (19) 
4

>  <original_smiles>  (19) 
CC1CC23OC2CC2C4C(F)C5OC6C(=O)OC(C)C6C(O)C5(O)C4(C)CC(=O)C2C3(C)C(O)C1C

>  <smiles>  (19) 
[H]OC1([H])C2([H])C([H])(OC3([H])C([H])(F)C4([H])C5([H])C([H])([H])C6([H])OC67C([H])([H])C([H])(C([H])([H])[H])C([H])(C([H])([H])[H])C([H])(O[H])C7(C([H])([H])[H])C5([H])C(=O)C([H])([H])C4(C([H])([H])[H])C31O[H])C(=O)OC2([H])C([H])([H])[H]

$$$$
4:0:1
     RDKit          3D

 73 79  0  0  1  0  0  0  0  0999 V2000
    4.0281   -0.3984   -3.3875 C   0  0  0  0  0  0  0  0  0  0  0  0
    3.6786   -1.2680   -2.1684 C   0  0  2  0  0  0  0  0  0  0  0  0
    4.6324   -0.9846   -0.9926 C   0  0  0  0  0  0  0  0  0  0  0  0
    4.3016   -1.7837    0.2652 C   0  0  2  0  0  0  0  0  0  0  0  0
    3.2366   -1.2196    1.0213 O   0  0  0  0  0  0  0  0  0  0  0  0
    4.5469   -1.2091    1.6245 C   0  0  1  0  0  0  0  0  0  0  0  0
    4.6743   -2.0619    2.8691 C   0  0  0  0  0  0  0  0  0  0  0  0
    4.4353   -3.5878    2.6773 C   0  0  1  0  0  0  0  0  0  0  0  0
    3.9452   -4.2790    4.0011 C   0  0  1  0  0  0  0  0  0  0  0  0
    2.8874   -3.5677    4.8729 C   0  0  1  0  0  0  0  0  0  0  0  0
    1.7729   -3.3218    4.1785 F   0  0  0  0  0  0  0  0  0  0  0  0
    2.6826   -4.6313    5.9498 C   0  0  1  0  0  0  0  0  0  0  0  0
    1.7748   -4.3855    7.0357 O   0  0  0  0  0  0  0  0  0  0  0  0
    1.2729   -5.5950    7.6195 C   0  0  2  0  0  0  0  0  0  0  0  0
    0.9404   -5.5057    9.0981 C   0  0  0  0  0  0  0  0  0  0  0  0
    0.5142   -4.5033    9.6678 O   0  0  0  0  0  0  0  0  0  0  0  0
    1.1925   -6.7157    9.6438 O   0  0  0  0  0  0  0  0  0  0  0  0
    1.7075   -7.6773    8.7131 C   0  0  1  0  0  0  0  0  0  0  0  0
    0.5353   -8.5808    8.2763 C   0  0  0  0  0  0  0  0  0  0  0  0
    2.2953   -6.7185    7.6483 C   0  0  1  0  0  0  0  0  0  0  0  0
    2.7982   -7.1373    6.2300 C   0  0  1  0  0  0  0  0  0  0  0  0
    2.2392   -8.3421    5.7471 O   0  0  0  0  0  0  0  0  0  0  0  0
    2.5505   -5.9781    5.2027 C   0  0  1  0  0  0  0  0  0  0  0  0
    1.2016   -6.1040    4.7707 O   0  0  0  0  0  0  0  0  0  0  0  0
    3.4948   -5.7843    3.9335 C   0  0  2  0  0  0  0  0  0  0  0  0
    4.7477   -6.6955    3.9785 C   0  0  0  0  0  0  0  0  0  0  0  0
    2.7337   -6.0438    2.5955 C   0  0  0  0  0  0  0  0  0  0  0  0
    3.4435   -5.4847    1.3737 C   0  0  0  0  0  0  0  0  0  0  0  0
    3.8209   -6.2285    0.4732 O   0  0  0  0  0  0  0  0  0  0  0  0
    3.6459   -3.9543    1.3844 C   0  0  2  0  0  0  0  0  0  0  0  0
    4.2353   -3.2918    0.0612 C   0  0  2  0  0  0  0  0  0  0  0  0
    5.6759   -3.8133   -0.2279 C   0  0  0  0  0  0  0  0  0  0  0  0
    3.3468   -3.5926   -1.1893 C   0  0  1  0  0  0  0  0  0  0  0  0
    1.9576   -3.4551   -0.9339 O   0  0  0  0  0  0  0  0  0  0  0  0
    3.7061   -2.7780   -2.4692 C   0  0  1  0  0  0  0  0  0  0  0  0
    2.8511   -3.1640   -3.6961 C   0  0  0  0  0  0  0  0  0  0  0  0
    4.9940   -0.6845   -3.7951 H   0  0  0  0  0  0  0  0  0  0  0  0
    4.0744    0.6571   -3.1184 H   0  0  0  0  0  0  0  0  0  0  0  0
    3.2830   -0.4835   -4.1821 H   0  0  0  0  0  0  0  0  0  0  0  0
    2.6646   -0.9824   -1.8840 H   0  0  0  0  0  0  0  0  0  0  0  0
    5.6688   -1.1539   -1.2818 H   0  0  0  0  0  0  0  0  0  0  0  0
    4.5598    0.0680   -0.7298 H   0  0  0  0  0  0  0  0  0  0  0  0
    4.9842   -0.2199    1.6976 H   0  0  0  0  0  0  0  0  0  0  0  0
    5.6774   -1.9067    3.2736 H   0  0  0  0  0  0  0  0  0  0  0  0
    3.9924   -1.6240    3.5893 H   0  0  0  0  0  0  0  0  0  0  0  0
    5.4269   -4.0100    2.5175 H   0  0  0  0  0  0  0  0  0  0  0  0
    4.8402   -4.2581    4.6281 H   0  0  0  0  0  0  0  0  0  0  0  0
    3.2381   -2.6388    5.3198 H   0  0  0  0  0  0  0  0  0  0  0  0
    3.6395   -4.6742    6.4772 H   0  0  0  0  0  0  0  0  0  0  0  0
    0.3605   -5.8998    7.1097 H   0  0  0  0  0  0  0  0  0  0  0  0
    2.4869   -8.2829    9.1802 H   0  0  0  0  0  0  0  0  0  0  0  0
    0.8720   -9.4318    7.6830 H   0  0  0  0  0  0  0  0  0  0  0  0
   -0.1925   -8.0309    7.6811 H   0  0  0  0  0  0  0  0  0  0  0  0
    0.0141   -8.9835    9.1461 H   0  0  0  0  0  0  0  0  0  0  0  0
    3.1856   -6.3056    8.1306 H   0  0  0  0  0  0  0  0  0  0  0  0
    3.8648   -7.3096    6.3589 H   0  0  0  0  0  0  0  0  0  0  0  0
    2.7703   -8.6670    5.0294 H   0  0  0  0  0  0  0  0  0  0  0  0
    1.0895   -7.0085    4.5020 H   0  0  0  0  0  0  0  0  0  0  0  0
    4.4730   -7.7517    3.9571 H   0  0  0  0  0  0  0  0  0  0  0  0
    5.3479   -6.5239    4.8738 H   0  0  0  0  0  0  0  0  0  0  0  0
    5.4048   -6.5210    3.1259 H   0  0  0  0  0  0  0  0  0  0  0  0
    2.5501   -7.1095    2.4573 H   0  0  0  0  0  0  0  0  0  0  0  0
    1.7646   -5.5471    2.5874 H   0  0  0  0  0  0  0  0  0  0  0  0
    2.6444   -3.5477    1.5176 H   0  0  0  0  0  0  0  0  0  0  0  0
    5.6891   -4.8882   -0.4105 H   0  0  0  0  0  0  0  0  0  0  0  0
    6.3535   -3.6083    0.5994 H   0  0  0  0  0  0  0  0  0  0  0  0
    6.1303   -3.3539   -1.1058 H   0  0  0  0  0  0  0  0  0  0  0  0
    3.5268   -4.6337   -1.4132 H   0  0  0  0  0  0  0  0  0  0  0  0
    1.7351   -2.5273   -0.9371 H   0  0  0  0  0  0  0  0  0  0  0  0
    4.7273   -3.0324   -2.7499 H   0  0  0  0  0  0  0  0  0  0  0  0
    1.8160   -2.8355   -3.5935 H   0  0  0  0  0  0  0  0  0  0  0  0
    2.8448   -4.2455   -3.8456 H   0  0  0  0  0  0  0  0  0  0  0  0
    3.2509   -2.7318   -4.6121 H   0  0  0  0  0  0  0  0  0  0  0  0
  1  2  1  0
  1 37  1  0
  1 38  1  0
  1 39  1  0
  2 35  1  0
  2  3  1  0
  2 40  1  1
  3  4  1  0
  3 41  1  0
  3 42  1  0
  4  6  1  0
  4 31  1  0
  4  5  1  1
  5  6  1  0
  6  7  1  0
  6 43  1  6
  7  8  1  0
  7 44  1  0
  7 45  1  0
  8 30  1  0
  8  9  1  0
  8 46  1  6
  9 25  1  0
  9 10  1  0
  9 47  1  1
 10 11  1  0
 10 12  1  0
 10 48  1  1
 12 23  1  0
 12 13  1  0
 12 49  1  1
 13 14  1  0
 14 20  1  0
 14 15  1  0
 14 50  1  6
 15 16  2  0
 15 17  1  0
 17 18  1  0
 18 19  1  0
 18 20  1  0
 18 51  1  1
 19 52  1  0
 19 53  1  0
 19 54  1  0
 20 21  1  0
 20 55  1  1
 21 22  1  0
 21 23  1  0
 21 56  1  1
 22 57  1  0
 23 24  1  6
 23 25  1  0
 24 58  1  0
 25 26  1  1
 25 27  1  0
 26 59  1  0
 26 60  1  0
 26 61  1  0
 27 28  1  0
 27 62  1  0
 27 63  1  0
 28 29  2  0
 28 30  1  0
 30 31  1  0
 30 64  1  1
 31 32  1  6
 31 33  1  0
 32 65  1  0
 32 66  1  0
 32 67  1  0
 33 34  1  0
 33 35  1  0
 33 68  1  6
 34 69  1  0
 35 36  1  0
 35 70  1  6
 36 71  1  0
 36 72  1  0
 36 73  1  0
M  END
>  <i_m_ct_stereo_status>  (20) 
1

>  <s_m_source_file>  (20) 
/var/tmp/pbs.5076255.sched01/tmpfev35gxg/05fxellcm.sdf

>  <i_m_source_file_index>  (20) 
8

>  <i_lp_mmshare_version>  (20) 
48012

>  <i_f3d_flags>  (20) 
0

>  <s_epik_input>  (20) 
W0NIM11bQ0BIXShbQ0gyXTEpW0NASF0oW0NIM10pW0NASF0oW09IXSlbQ0BdMihbQ0gzXSlbQ0BIXTNDKD1PKVtDSDJdW0NAQF0oW0NIM10pKFtDQEhdNFtDQEBIXTNbQ0gyXVtDQEBIXShbQ0BAXTEyNSlPNSlbQ0BdNihbT0hdKVtDQEBIXShbQ0BASF00RilPW0NASF03W0NASF0oW0NASF02W09IXSlbQ0BIXShbQ0gzXSlPQzc9Tw==

>  <s_epik_cmdline>  (20) 
J2VwaWtfcHl0aG9uJywgJy1waHQnLCAnMi4wJywgJy1waCcsICc3LjAnLCAnLXRuJywgJzgnLCAnLW1hJywgJzIwMCcsICctaW1hZScsICc8aW5maWxlLm1hZT4nLCAnLW9tYWUnLCAnPG91dGZpbGUubWFlPic=

>  <r_lp_tautomer_probability>  (20) 
1

>  <r_epik_Ionization_Penalty>  (20) 
7.17145e-07

>  <r_epik_Ionization_Penalty_Charging>  (20) 
0

>  <r_epik_Ionization_Penalty_Neutral>  (20) 
7.17145e-07

>  <r_epik_State_Penalty>  (20) 
-0

>  <r_epik_Charging_Adjusted_Penalty>  (20) 
0

>  <i_epik_Tot_Q>  (20) 
0

>  <i_epik_Tot_abs_Q>  (20) 
0

>  <s_epik_Chemistry_Notes>  (20) 
This compound has an ester and may undergo hydrolysis at high or low pH.

>  <s_lp_Force_Field>  (20) 
OPLS3e

>  <r_lp_Energy>  (20) 
77.3155

>  <b_lp_Chiralities_Consistent>  (20) 
1

>  <s_lp_Variant>  (20) 
4:0-1

>  <s_i_glide_gridfile>  (20) 
pfpi4k_grid

>  <i_i_glide_lignum>  (20) 
8

>  <i_i_glide_rotatable_bonds>  (20) 
3

>  <r_i_docking_score>  (20) 
-2.38568

>  <r_i_glide_ligand_efficiency>  (20) 
-0.0662689

>  <r_i_glide_ligand_efficiency_sa>  (20) 
-0.218815

>  <r_i_glide_ligand_efficiency_ln>  (20) 
-0.520491

>  <r_i_glide_gscore>  (20) 
-2.38568

>  <r_i_glide_lipo>  (20) 
-0.674592

>  <r_i_glide_hbond>  (20) 
0

>  <r_i_glide_metal>  (20) 
-0

>  <r_i_glide_rewards>  (20) 
-0.0370887

>  <r_i_glide_evdw>  (20) 
-27.9509

>  <r_i_glide_ecoul>  (20) 
-1.82942

>  <r_i_glide_erotb>  (20) 
0

>  <r_i_glide_esite>  (20) 
-0.00204308

>  <r_i_glide_emodel>  (20) 
-33.6716

>  <r_i_glide_energy>  (20) 
-29.7803

>  <r_i_glide_einternal>  (20) 
0.687188

>  <r_i_glide_intrahb_reward>  (20) 
-0

>  <i_i_glide_confnum>  (20) 
1

>  <i_i_glide_posenum>  (20) 
40

>  <r_i_glide_eff_state_penalty>  (20) 
0

>  <ligand_id>  (20) 
4

>  <original_smiles>  (20) 
CC1CC23OC2CC2C4C(F)C5OC6C(=O)OC(C)C6C(O)C5(O)C4(C)CC(=O)C2C3(C)C(O)C1C

>  <smiles>  (20) 
[H]OC1([H])C2([H])C([H])(OC3([H])C([H])(F)C4([H])C5([H])C([H])([H])C6([H])OC67C([H])([H])C([H])(C([H])([H])[H])C([H])(C([H])([H])[H])C([H])(O[H])C7(C([H])([H])[H])C5([H])C(=O)C([H])([H])C4(C([H])([H])[H])C31O[H])C(=O)OC2([H])C([H])([H])[H]

$$$$
4:0:2
     RDKit          3D

 73 79  0  0  1  0  0  0  0  0999 V2000
    4.0196   -0.3055   -3.2246 C   0  0  0  0  0  0  0  0  0  0  0  0
    3.6703   -1.2202   -2.0410 C   0  0  2  0  0  0  0  0  0  0  0  0
    4.5988   -0.9667   -0.8382 C   0  0  0  0  0  0  0  0  0  0  0  0
    4.2593   -1.8183    0.3789 C   0  0  2  0  0  0  0  0  0  0  0  0
    3.1724   -1.3050    1.1370 O   0  0  0  0  0  0  0  0  0  0  0  0
    4.4696   -1.2970    1.7668 C   0  0  1  0  0  0  0  0  0  0  0  0
    4.5900   -2.1961    2.9770 C   0  0  0  0  0  0  0  0  0  0  0  0
    4.3770   -3.7163    2.7213 C   0  0  1  0  0  0  0  0  0  0  0  0
    3.8774   -4.4670    4.0090 C   0  0  1  0  0  0  0  0  0  0  0  0
    2.7964   -3.8084    4.8914 C   0  0  1  0  0  0  0  0  0  0  0  0
    1.6862   -3.5505    4.1927 F   0  0  0  0  0  0  0  0  0  0  0  0
    2.5969   -4.9185    5.9248 C   0  0  1  0  0  0  0  0  0  0  0  0
    1.6566   -4.7285    6.9979 O   0  0  0  0  0  0  0  0  0  0  0  0
    1.1709   -5.9632    7.5368 C   0  0  2  0  0  0  0  0  0  0  0  0
    0.8151   -5.9359    9.0083 C   0  0  0  0  0  0  0  0  0  0  0  0
    0.3565   -4.9626    9.6083 O   0  0  0  0  0  0  0  0  0  0  0  0
    1.0725   -7.1626    9.5108 O   0  0  0  0  0  0  0  0  0  0  0  0
    1.6197   -8.0786    8.5504 C   0  0  1  0  0  0  0  0  0  0  0  0
    0.4684   -8.9813    8.0538 C   0  0  0  0  0  0  0  0  0  0  0  0
    2.2147   -7.0690    7.5403 C   0  0  1  0  0  0  0  0  0  0  0  0
    2.7453   -7.4302    6.1196 C   0  0  1  0  0  0  0  0  0  0  0  0
    2.2262   -8.6428    5.6156 O   0  0  0  0  0  0  0  0  0  0  0  0
    2.4928   -6.2367    5.1237 C   0  0  1  0  0  0  0  0  0  0  0  0
    1.1479   -6.3197    4.6650 O   0  0  0  0  0  0  0  0  0  0  0  0
    3.4509   -5.9756    3.8761 C   0  0  2  0  0  0  0  0  0  0  0  0
    4.7165   -6.8684    3.9039 C   0  0  0  0  0  0  0  0  0  0  0  0
    2.7140   -6.1933    2.5180 C   0  0  0  0  0  0  0  0  0  0  0  0
    3.4376   -5.5735    1.3279 C   0  0  0  0  0  0  0  0  0  0  0  0
    3.8504   -6.2675    0.4098 O   0  0  0  0  0  0  0  0  0  0  0  0
    3.6149   -4.0406    1.4046 C   0  0  2  0  0  0  0  0  0  0  0  0
    4.2178   -3.3187    0.1172 C   0  0  2  0  0  0  0  0  0  0  0  0
    5.6693   -3.8093   -0.1707 C   0  0  0  0  0  0  0  0  0  0  0  0
    3.3537   -3.5804   -1.1578 C   0  0  1  0  0  0  0  0  0  0  0  0
    1.9644   -3.4586   -0.9048 O   0  0  0  0  0  0  0  0  0  0  0  0
    3.7197   -2.7141   -2.3984 C   0  0  1  0  0  0  0  0  0  0  0  0
    2.8899   -3.0646   -3.6520 C   0  0  0  0  0  0  0  0  0  0  0  0
    4.9937   -0.5867   -3.6270 H   0  0  0  0  0  0  0  0  0  0  0  0
    4.0528    0.7416   -2.9235 H   0  0  0  0  0  0  0  0  0  0  0  0
    3.2747   -0.3627   -4.0226 H   0  0  0  0  0  0  0  0  0  0  0  0
    2.6467   -0.9628   -1.7591 H   0  0  0  0  0  0  0  0  0  0  0  0
    5.6424   -1.1106   -1.1182 H   0  0  0  0  0  0  0  0  0  0  0  0
    4.5049    0.0751   -0.5333 H   0  0  0  0  0  0  0  0  0  0  0  0
    4.8922   -0.3075    1.8842 H   0  0  0  0  0  0  0  0  0  0  0  0
    5.5840   -2.0429    3.4046 H   0  0  0  0  0  0  0  0  0  0  0  0
    3.8894   -1.7972    3.7049 H   0  0  0  0  0  0  0  0  0  0  0  0
    5.3779   -4.1162    2.5624 H   0  0  0  0  0  0  0  0  0  0  0  0
    4.7621   -4.4593    4.6502 H   0  0  0  0  0  0  0  0  0  0  0  0
    3.1261   -2.8924    5.3789 H   0  0  0  0  0  0  0  0  0  0  0  0
    3.5468   -4.9649    6.4672 H   0  0  0  0  0  0  0  0  0  0  0  0
    0.2665   -6.2662    7.0096 H   0  0  0  0  0  0  0  0  0  0  0  0
    2.3982   -8.6929    9.0069 H   0  0  0  0  0  0  0  0  0  0  0  0
    0.8195   -9.8118    7.4395 H   0  0  0  0  0  0  0  0  0  0  0  0
   -0.2665   -8.4264    7.4711 H   0  0  0  0  0  0  0  0  0  0  0  0
   -0.0551   -9.4222    8.9020 H   0  0  0  0  0  0  0  0  0  0  0  0
    3.0905   -6.6614    8.0516 H   0  0  0  0  0  0  0  0  0  0  0  0
    3.8160   -7.5846    6.2489 H   0  0  0  0  0  0  0  0  0  0  0  0
    2.4643   -9.3503    6.2017 H   0  0  0  0  0  0  0  0  0  0  0  0
    0.6249   -6.6911    5.3578 H   0  0  0  0  0  0  0  0  0  0  0  0
    4.4525   -7.9261    3.8397 H   0  0  0  0  0  0  0  0  0  0  0  0
    5.3003   -6.7235    4.8146 H   0  0  0  0  0  0  0  0  0  0  0  0
    5.3838   -6.6525    3.0681 H   0  0  0  0  0  0  0  0  0  0  0  0
    2.5500   -7.2561    2.3374 H   0  0  0  0  0  0  0  0  0  0  0  0
    1.7352   -5.7173    2.5171 H   0  0  0  0  0  0  0  0  0  0  0  0
    2.6063   -3.6550    1.5374 H   0  0  0  0  0  0  0  0  0  0  0  0
    5.7034   -4.8762   -0.3967 H   0  0  0  0  0  0  0  0  0  0  0  0
    6.3307   -3.6265    0.6746 H   0  0  0  0  0  0  0  0  0  0  0  0
    6.1309   -3.3084   -1.0228 H   0  0  0  0  0  0  0  0  0  0  0  0
    3.5348   -4.6095   -1.4257 H   0  0  0  0  0  0  0  0  0  0  0  0
    1.7506   -2.5310   -0.8644 H   0  0  0  0  0  0  0  0  0  0  0  0
    4.7469   -2.9453   -2.6743 H   0  0  0  0  0  0  0  0  0  0  0  0
    1.8475   -2.7582   -3.5551 H   0  0  0  0  0  0  0  0  0  0  0  0
    2.9032   -4.1380   -3.8410 H   0  0  0  0  0  0  0  0  0  0  0  0
    3.2971   -2.5933   -4.5465 H   0  0  0  0  0  0  0  0  0  0  0  0
  1  2  1  0
  1 37  1  0
  1 38  1  0
  1 39  1  0
  2 35  1  0
  2  3  1  0
  2 40  1  1
  3  4  1  0
  3 41  1  0
  3 42  1  0
  4  6  1  0
  4 31  1  0
  4  5  1  1
  5  6  1  0
  6  7  1  0
  6 43  1  6
  7  8  1  0
  7 44  1  0
  7 45  1  0
  8 30  1  0
  8  9  1  0
  8 46  1  6
  9 25  1  0
  9 10  1  0
  9 47  1  1
 10 11  1  0
 10 12  1  0
 10 48  1  1
 12 23  1  0
 12 13  1  0
 12 49  1  1
 13 14  1  0
 14 20  1  0
 14 15  1  0
 14 50  1  6
 15 16  2  0
 15 17  1  0
 17 18  1  0
 18 19  1  0
 18 20  1  0
 18 51  1  1
 19 52  1  0
 19 53  1  0
 19 54  1  0
 20 21  1  0
 20 55  1  1
 21 22  1  0
 21 23  1  0
 21 56  1  1
 22 57  1  0
 23 24  1  6
 23 25  1  0
 24 58  1  0
 25 26  1  1
 25 27  1  0
 26 59  1  0
 26 60  1  0
 26 61  1  0
 27 28  1  0
 27 62  1  0
 27 63  1  0
 28 29  2  0
 28 30  1  0
 30 31  1  0
 30 64  1  1
 31 32  1  6
 31 33  1  0
 32 65  1  0
 32 66  1  0
 32 67  1  0
 33 34  1  0
 33 35  1  0
 33 68  1  6
 34 69  1  0
 35 36  1  0
 35 70  1  6
 36 71  1  0
 36 72  1  0
 36 73  1  0
M  END
>  <i_m_ct_stereo_status>  (21) 
1

>  <s_m_source_file>  (21) 
/var/tmp/pbs.5076255.sched01/tmpfev35gxg/05fxellcm.sdf

>  <i_m_source_file_index>  (21) 
8

>  <i_lp_mmshare_version>  (21) 
48012

>  <i_f3d_flags>  (21) 
0

>  <s_epik_input>  (21) 
W0NIM11bQ0BIXShbQ0gyXTEpW0NASF0oW0NIM10pW0NASF0oW09IXSlbQ0BdMihbQ0gzXSlbQ0BIXTNDKD1PKVtDSDJdW0NAQF0oW0NIM10pKFtDQEhdNFtDQEBIXTNbQ0gyXVtDQEBIXShbQ0BAXTEyNSlPNSlbQ0BdNihbT0hdKVtDQEBIXShbQ0BASF00RilPW0NASF03W0NASF0oW0NASF02W09IXSlbQ0BIXShbQ0gzXSlPQzc9Tw==

>  <s_epik_cmdline>  (21) 
J2VwaWtfcHl0aG9uJywgJy1waHQnLCAnMi4wJywgJy1waCcsICc3LjAnLCAnLXRuJywgJzgnLCAnLW1hJywgJzIwMCcsICctaW1hZScsICc8aW5maWxlLm1hZT4nLCAnLW9tYWUnLCAnPG91dGZpbGUubWFlPic=

>  <r_lp_tautomer_probability>  (21) 
1

>  <r_epik_Ionization_Penalty>  (21) 
7.17145e-07

>  <r_epik_Ionization_Penalty_Charging>  (21) 
0

>  <r_epik_Ionization_Penalty_Neutral>  (21) 
7.17145e-07

>  <r_epik_State_Penalty>  (21) 
-0

>  <r_epik_Charging_Adjusted_Penalty>  (21) 
0

>  <i_epik_Tot_Q>  (21) 
0

>  <i_epik_Tot_abs_Q>  (21) 
0

>  <s_epik_Chemistry_Notes>  (21) 
This compound has an ester and may undergo hydrolysis at high or low pH.

>  <s_lp_Force_Field>  (21) 
OPLS3e

>  <r_lp_Energy>  (21) 
77.3155

>  <b_lp_Chiralities_Consistent>  (21) 
1

>  <s_lp_Variant>  (21) 
4:0-1

>  <s_i_glide_gridfile>  (21) 
pfpi4k_grid

>  <i_i_glide_lignum>  (21) 
8

>  <i_i_glide_rotatable_bonds>  (21) 
3

>  <r_i_docking_score>  (21) 
-2.37375

>  <r_i_glide_ligand_efficiency>  (21) 
-0.0659374

>  <r_i_glide_ligand_efficiency_sa>  (21) 
-0.21772

>  <r_i_glide_ligand_efficiency_ln>  (21) 
-0.517887

>  <r_i_glide_gscore>  (21) 
-2.37375

>  <r_i_glide_lipo>  (21) 
-0.643171

>  <r_i_glide_hbond>  (21) 
0

>  <r_i_glide_metal>  (21) 
-0

>  <r_i_glide_rewards>  (21) 
-0.0386679

>  <r_i_glide_evdw>  (21) 
-27.5539

>  <r_i_glide_ecoul>  (21) 
-2.04702

>  <r_i_glide_erotb>  (21) 
0

>  <r_i_glide_esite>  (21) 
-0.00715842

>  <r_i_glide_emodel>  (21) 
-33.4751

>  <r_i_glide_energy>  (21) 
-29.6009

>  <r_i_glide_einternal>  (21) 
0.711473

>  <r_i_glide_intrahb_reward>  (21) 
-0

>  <i_i_glide_confnum>  (21) 
1

>  <i_i_glide_posenum>  (21) 
23

>  <r_i_glide_eff_state_penalty>  (21) 
0

>  <ligand_id>  (21) 
4

>  <original_smiles>  (21) 
CC1CC23OC2CC2C4C(F)C5OC6C(=O)OC(C)C6C(O)C5(O)C4(C)CC(=O)C2C3(C)C(O)C1C

>  <smiles>  (21) 
[H]OC1([H])C2([H])C([H])(OC3([H])C([H])(F)C4([H])C5([H])C([H])([H])C6([H])OC67C([H])([H])C([H])(C([H])([H])[H])C([H])(C([H])([H])[H])C([H])(O[H])C7(C([H])([H])[H])C5([H])C(=O)C([H])([H])C4(C([H])([H])[H])C31O[H])C(=O)OC2([H])C([H])([H])[H]

$$$$
6:0:0
     RDKit          3D

 68 72  0  0  1  0  0  0  0  0999 V2000
    2.9780   -3.7259   -0.3151 C   0  0  0  0  0  0  0  0  0  0  0  0
    4.0019   -4.1146    0.4588 C   0  0  0  0  0  0  0  0  0  0  0  0
    4.6668   -5.4594    0.4244 C   0  0  0  0  0  0  0  0  0  0  0  0
    4.9348   -5.8126    1.9130 C   0  0  2  0  0  0  0  0  0  0  0  0
    6.4206   -6.2299    2.1037 C   0  0  0  0  0  0  0  0  0  0  0  0
    3.9400   -6.7442    2.3238 O   0  0  0  0  0  0  0  0  0  0  0  0
    3.9635   -8.1609    2.2998 C   0  0  1  0  0  0  0  0  0  0  0  0
    4.4594   -8.7703    0.9605 C   0  0  0  0  0  0  0  0  0  0  0  0
    4.7922   -8.8075    3.4696 C   0  0  0  0  0  0  0  0  0  0  0  0
    5.0620   -8.0482    4.8040 C   0  0  2  0  0  0  0  0  0  0  0  0
    4.3226   -8.4796    6.0820 C   0  0  0  0  0  0  0  0  0  0  0  0
    3.6030   -7.2131    6.4796 C   0  0  0  0  0  0  0  0  0  0  0  0
    3.0002   -7.0610    7.5380 O   0  0  0  0  0  0  0  0  0  0  0  0
    3.8453   -6.1309    5.4409 C   0  0  1  0  0  0  0  0  0  0  0  0
    4.9045   -6.6486    4.6658 O   0  0  0  0  0  0  0  0  0  0  0  0
    2.6214   -5.5370    4.6156 C   0  0  1  0  0  0  0  0  0  0  0  0
    2.0343   -4.4933    5.6187 C   0  0  0  0  0  0  0  0  0  0  0  0
    3.0805   -4.5876    3.3852 C   0  0  0  0  0  0  0  0  0  0  0  0
    4.5178   -4.5280    2.7312 C   0  0  1  0  0  0  0  0  0  0  0  0
    5.4111   -4.1560    3.7640 O   0  0  0  0  0  0  0  0  0  0  0  0
    4.5123   -3.3885    1.6705 C   0  0  1  0  0  0  0  0  0  0  0  0
    5.8076   -2.8942    1.3831 O   0  0  0  0  0  0  0  0  0  0  0  0
    1.4145   -6.5742    4.2289 C   0  0  2  0  0  0  0  0  0  0  0  0
    0.6150   -5.9999    3.2092 O   0  0  0  0  0  0  0  0  0  0  0  0
    0.3924   -6.8735    5.3891 C   0  0  1  0  0  0  0  0  0  0  0  0
   -0.5690   -5.8640    5.6538 O   0  0  0  0  0  0  0  0  0  0  0  0
   -0.3540   -8.1692    5.0813 C   0  0  0  0  0  0  0  0  0  0  0  0
    0.4431   -8.9097    4.0146 C   0  0  1  0  0  0  0  0  0  0  0  0
   -0.4590   -9.2402    2.8113 C   0  0  0  0  0  0  0  0  0  0  0  0
    1.7169   -8.0513    3.7594 C   0  0  1  0  0  0  0  0  0  0  0  0
    2.4391   -8.4276    2.4278 C   0  0  1  0  0  0  0  0  0  0  0  0
    1.7468   -7.9058    1.3008 O   0  0  0  0  0  0  0  0  0  0  0  0
    2.5013   -2.7679   -0.1567 H   0  0  0  0  0  0  0  0  0  0  0  0
    2.6204   -4.3639   -1.1121 H   0  0  0  0  0  0  0  0  0  0  0  0
    4.0647   -6.1849   -0.1174 H   0  0  0  0  0  0  0  0  0  0  0  0
    5.6057   -5.3394   -0.1154 H   0  0  0  0  0  0  0  0  0  0  0  0
    7.0842   -5.3937    1.8915 H   0  0  0  0  0  0  0  0  0  0  0  0
    6.7291   -7.0250    1.4323 H   0  0  0  0  0  0  0  0  0  0  0  0
    6.6673   -6.5526    3.1111 H   0  0  0  0  0  0  0  0  0  0  0  0
    4.3105   -9.8500    0.9567 H   0  0  0  0  0  0  0  0  0  0  0  0
    5.5170   -8.6117    0.7816 H   0  0  0  0  0  0  0  0  0  0  0  0
    3.9318   -8.3821    0.0963 H   0  0  0  0  0  0  0  0  0  0  0  0
    4.4154   -9.8113    3.6828 H   0  0  0  0  0  0  0  0  0  0  0  0
    5.7885   -8.9930    3.0676 H   0  0  0  0  0  0  0  0  0  0  0  0
    6.1227   -8.1810    5.0161 H   0  0  0  0  0  0  0  0  0  0  0  0
    3.6383   -9.3177    5.9346 H   0  0  0  0  0  0  0  0  0  0  0  0
    5.0127   -8.7596    6.8773 H   0  0  0  0  0  0  0  0  0  0  0  0
    4.2939   -5.3067    5.9925 H   0  0  0  0  0  0  0  0  0  0  0  0
    1.1729   -3.9671    5.2056 H   0  0  0  0  0  0  0  0  0  0  0  0
    2.7653   -3.7257    5.8792 H   0  0  0  0  0  0  0  0  0  0  0  0
    1.7423   -4.9302    6.5698 H   0  0  0  0  0  0  0  0  0  0  0  0
    2.4024   -4.6983    2.5406 H   0  0  0  0  0  0  0  0  0  0  0  0
    2.8923   -3.5506    3.6769 H   0  0  0  0  0  0  0  0  0  0  0  0
    5.4326   -4.8847    4.3678 H   0  0  0  0  0  0  0  0  0  0  0  0
    3.8764   -2.5407    1.9271 H   0  0  0  0  0  0  0  0  0  0  0  0
    6.3522   -3.6388    1.1746 H   0  0  0  0  0  0  0  0  0  0  0  0
    1.1522   -6.0009    2.4286 H   0  0  0  0  0  0  0  0  0  0  0  0
    0.9152   -7.0571    6.3204 H   0  0  0  0  0  0  0  0  0  0  0  0
   -0.1054   -5.1181    6.0006 H   0  0  0  0  0  0  0  0  0  0  0  0
   -0.4461   -8.7777    5.9823 H   0  0  0  0  0  0  0  0  0  0  0  0
   -1.3700   -7.9666    4.7403 H   0  0  0  0  0  0  0  0  0  0  0  0
    0.7605   -9.8649    4.4352 H   0  0  0  0  0  0  0  0  0  0  0  0
   -0.7981   -8.3354    2.3071 H   0  0  0  0  0  0  0  0  0  0  0  0
   -1.3444   -9.7880    3.1393 H   0  0  0  0  0  0  0  0  0  0  0  0
    0.0481   -9.8769    2.0870 H   0  0  0  0  0  0  0  0  0  0  0  0
    2.3665   -8.4461    4.5154 H   0  0  0  0  0  0  0  0  0  0  0  0
    2.3537   -9.5110    2.3443 H   0  0  0  0  0  0  0  0  0  0  0  0
    1.0615   -8.5225    1.0703 H   0  0  0  0  0  0  0  0  0  0  0  0
  1  2  2  0
  1 33  1  0
  1 34  1  0
  2 21  1  0
  2  3  1  0
  3  4  1  0
  3 35  1  0
  3 36  1  0
  4 19  1  0
  4  5  1  6
  4  6  1  0
  5 37  1  0
  5 38  1  0
  5 39  1  0
  6  7  1  0
  7 31  1  0
  7  8  1  6
  7  9  1  0
  8 40  1  0
  8 41  1  0
  8 42  1  0
  9 10  1  0
  9 43  1  0
  9 44  1  0
 10 15  1  0
 10 11  1  0
 10 45  1  1
 11 12  1  0
 11 46  1  0
 11 47  1  0
 12 13  2  0
 12 14  1  0
 14 15  1  0
 14 16  1  0
 14 48  1  1
 16 17  1  1
 16 18  1  0
 16 23  1  0
 17 49  1  0
 17 50  1  0
 17 51  1  0
 18 19  1  0
 18 52  1  0
 18 53  1  0
 19 20  1  1
 19 21  1  0
 20 54  1  0
 21 22  1  0
 21 55  1  1
 22 56  1  0
 23 30  1  0
 23 24  1  6
 23 25  1  0
 24 57  1  0
 25 26  1  0
 25 27  1  0
 25 58  1  1
 26 59  1  0
 27 28  1  0
 27 60  1  0
 27 61  1  0
 28 29  1  0
 28 30  1  0
 28 62  1  1
 29 63  1  0
 29 64  1  0
 29 65  1  0
 30 31  1  0
 30 66  1  1
 31 32  1  0
 31 67  1  6
 32 68  1  0
M  END
>  <i_m_ct_stereo_status>  (22) 
1

>  <s_m_source_file>  (22) 
/var/tmp/pbs.5076255.sched01/tmpfev35gxg/05fxellcm.sdf

>  <i_m_source_file_index>  (22) 
10

>  <i_lp_mmshare_version>  (22) 
48012

>  <i_f3d_flags>  (22) 
0

>  <s_epik_input>  (22) 
W0NIMl09QyhbQ0gyXTEpW0NASF0oW09IXSlbQ0BdKFtPSF0pKFtDQF0xMltDSDNdKVtDSDJdW0NAXTMoW0NIM10pW0NASF00Qyg9TylbQ0gyXVtDQEhdKE80KVtDSDJdW0NAQF0oTzIpKFtDSDNdKVtDQEhdKFtPSF0pW0NASF01W0NAQF0zKFtPSF0pW0NAQEhdKFtPSF0pW0NIMl1bQ0BIXTVbQ0gzXQ==

>  <s_epik_cmdline>  (22) 
J2VwaWtfcHl0aG9uJywgJy1waHQnLCAnMi4wJywgJy1waCcsICc3LjAnLCAnLXRuJywgJzgnLCAnLW1hJywgJzIwMCcsICctaW1hZScsICc8aW5maWxlLm1hZT4nLCAnLW9tYWUnLCAnPG91dGZpbGUubWFlPic=

>  <r_lp_tautomer_probability>  (22) 
1

>  <r_epik_Ionization_Penalty>  (22) 
6.06488e-07

>  <r_epik_Ionization_Penalty_Charging>  (22) 
0

>  <r_epik_Ionization_Penalty_Neutral>  (22) 
6.06488e-07

>  <r_epik_State_Penalty>  (22) 
-0

>  <r_epik_Charging_Adjusted_Penalty>  (22) 
0

>  <i_epik_Tot_Q>  (22) 
0

>  <i_epik_Tot_abs_Q>  (22) 
0

>  <s_lp_Force_Field>  (22) 
OPLS3e

>  <r_lp_Energy>  (22) 
94.336

>  <b_lp_Chiralities_Consistent>  (22) 
1

>  <s_lp_Variant>  (22) 
6:0-1

>  <s_i_glide_gridfile>  (22) 
pfpi4k_grid

>  <i_i_glide_lignum>  (22) 
10

>  <i_i_glide_rotatable_bonds>  (22) 
5

>  <r_i_docking_score>  (22) 
-3.01564

>  <r_i_glide_ligand_efficiency>  (22) 
-0.0942388

>  <r_i_glide_ligand_efficiency_sa>  (22) 
-0.29919

>  <r_i_glide_ligand_efficiency_ln>  (22) 
-0.675285

>  <r_i_glide_gscore>  (22) 
-3.01564

>  <r_i_glide_lipo>  (22) 
-0.196657

>  <r_i_glide_hbond>  (22) 
0

>  <r_i_glide_metal>  (22) 
-0

>  <r_i_glide_rewards>  (22) 
-0.823606

>  <r_i_glide_evdw>  (22) 
-25.7262

>  <r_i_glide_ecoul>  (22) 
-4.72714

>  <r_i_glide_erotb>  (22) 
0

>  <r_i_glide_esite>  (22) 
0

>  <r_i_glide_emodel>  (22) 
-40.9772

>  <r_i_glide_energy>  (22) 
-30.4533

>  <r_i_glide_einternal>  (22) 
1.27581

>  <r_i_glide_intrahb_reward>  (22) 
-0.5

>  <i_i_glide_confnum>  (22) 
1

>  <i_i_glide_posenum>  (22) 
24

>  <r_i_glide_eff_state_penalty>  (22) 
0

>  <ligand_id>  (22) 
6

>  <original_smiles>  (22) 
C=C1CC2(C)OC3(C)CC4CC(=O)C(O4)C(C)(CC2(O)C1O)C1(O)C(O)CC(C)C1C3O

>  <smiles>  (22) 
[H]OC1([H])C(=C([H])[H])C([H])([H])C2(C([H])([H])[H])OC3(C([H])([H])[H])C([H])([H])C4([H])OC([H])(C(=O)C4([H])[H])C(C([H])([H])[H])(C([H])([H])C12O[H])C1(O[H])C([H])(O[H])C([H])([H])C([H])(C([H])([H])[H])C1([H])C3([H])O[H]

$$$$
6:0:1
     RDKit          3D

 68 72  0  0  1  0  0  0  0  0999 V2000
   -1.3981   -8.5770    2.4846 C   0  0  0  0  0  0  0  0  0  0  0  0
   -0.4896   -8.9649    3.3971 C   0  0  0  0  0  0  0  0  0  0  0  0
   -0.1864   -8.2681    4.6867 C   0  0  0  0  0  0  0  0  0  0  0  0
    1.3564   -8.3510    4.8335 C   0  0  2  0  0  0  0  0  0  0  0  0
    1.7257   -8.8921    6.2426 C   0  0  0  0  0  0  0  0  0  0  0  0
    1.8784   -7.0797    4.4601 O   0  0  0  0  0  0  0  0  0  0  0  0
    2.1807   -5.9538    5.2689 C   0  0  1  0  0  0  0  0  0  0  0  0
    1.0332   -5.5499    6.2368 C   0  0  0  0  0  0  0  0  0  0  0  0
    3.5163   -6.0684    6.0973 C   0  0  0  0  0  0  0  0  0  0  0  0
    4.6699   -7.0205    5.6624 C   0  0  2  0  0  0  0  0  0  0  0  0
    5.9605   -6.4390    5.0629 C   0  0  0  0  0  0  0  0  0  0  0  0
    6.0166   -7.1116    3.7114 C   0  0  0  0  0  0  0  0  0  0  0  0
    6.9750   -7.0354    2.9475 O   0  0  0  0  0  0  0  0  0  0  0  0
    4.7795   -7.9700    3.4967 C   0  0  1  0  0  0  0  0  0  0  0  0
    4.1997   -8.0135    4.7785 O   0  0  0  0  0  0  0  0  0  0  0  0
    3.7729   -7.6317    2.3081 C   0  0  1  0  0  0  0  0  0  0  0  0
    4.4981   -8.2877    1.0904 C   0  0  0  0  0  0  0  0  0  0  0  0
    2.4016   -8.4812    2.3794 C   0  0  0  0  0  0  0  0  0  0  0  0
    1.8488   -9.2714    3.6405 C   0  0  1  0  0  0  0  0  0  0  0  0
    2.8160  -10.2563    3.9758 O   0  0  0  0  0  0  0  0  0  0  0  0
    0.5512  -10.0231    3.2074 C   0  0  1  0  0  0  0  0  0  0  0  0
    0.2387  -11.1139    4.0658 O   0  0  0  0  0  0  0  0  0  0  0  0
    3.5351   -6.0461    1.9544 C   0  0  2  0  0  0  0  0  0  0  0  0
    2.4013   -5.8668    1.1138 O   0  0  0  0  0  0  0  0  0  0  0  0
    4.6690   -5.3939    1.0819 C   0  0  1  0  0  0  0  0  0  0  0  0
    4.6662   -5.7234   -0.3022 O   0  0  0  0  0  0  0  0  0  0  0  0
    4.6186   -3.8723    1.2404 C   0  0  0  0  0  0  0  0  0  0  0  0
    3.7931   -3.5764    2.4910 C   0  0  1  0  0  0  0  0  0  0  0  0
    2.6292   -2.6206    2.1521 C   0  0  0  0  0  0  0  0  0  0  0  0
    3.4293   -4.9637    3.1023 C   0  0  1  0  0  0  0  0  0  0  0  0
    2.2735   -4.8781    4.1520 C   0  0  1  0  0  0  0  0  0  0  0  0
    1.0135   -4.7032    3.5348 O   0  0  0  0  0  0  0  0  0  0  0  0
   -1.4779   -9.0935    1.5402 H   0  0  0  0  0  0  0  0  0  0  0  0
   -2.0609   -7.7484    2.6832 H   0  0  0  0  0  0  0  0  0  0  0  0
   -0.5951   -7.2594    4.7006 H   0  0  0  0  0  0  0  0  0  0  0  0
   -0.6791   -8.8386    5.4751 H   0  0  0  0  0  0  0  0  0  0  0  0
    1.3762   -9.9178    6.3635 H   0  0  0  0  0  0  0  0  0  0  0  0
    1.2640   -8.3288    7.0488 H   0  0  0  0  0  0  0  0  0  0  0  0
    2.7934   -8.9196    6.4394 H   0  0  0  0  0  0  0  0  0  0  0  0
    1.2567   -4.5949    6.7100 H   0  0  0  0  0  0  0  0  0  0  0  0
    0.8822   -6.2601    7.0432 H   0  0  0  0  0  0  0  0  0  0  0  0
    0.0747   -5.4308    5.7350 H   0  0  0  0  0  0  0  0  0  0  0  0
    3.9168   -5.0718    6.2964 H   0  0  0  0  0  0  0  0  0  0  0  0
    3.2288   -6.4321    7.0839 H   0  0  0  0  0  0  0  0  0  0  0  0
    4.9748   -7.5619    6.5593 H   0  0  0  0  0  0  0  0  0  0  0  0
    5.9546   -5.3512    4.9810 H   0  0  0  0  0  0  0  0  0  0  0  0
    6.8393   -6.7257    5.6420 H   0  0  0  0  0  0  0  0  0  0  0  0
    5.1537   -8.9818    3.3364 H   0  0  0  0  0  0  0  0  0  0  0  0
    3.9442   -8.1555    0.1652 H   0  0  0  0  0  0  0  0  0  0  0  0
    4.6274   -9.3634    1.2178 H   0  0  0  0  0  0  0  0  0  0  0  0
    5.4993   -7.8991    0.9239 H   0  0  0  0  0  0  0  0  0  0  0  0
    1.5755   -7.8623    2.0421 H   0  0  0  0  0  0  0  0  0  0  0  0
    2.4395   -9.2444    1.5994 H   0  0  0  0  0  0  0  0  0  0  0  0
    2.9076  -10.8553    3.2509 H   0  0  0  0  0  0  0  0  0  0  0  0
    0.5704  -10.3896    2.1789 H   0  0  0  0  0  0  0  0  0  0  0  0
   -0.6563  -11.0271    4.4043 H   0  0  0  0  0  0  0  0  0  0  0  0
    2.5680   -6.3639    0.3283 H   0  0  0  0  0  0  0  0  0  0  0  0
    5.6427   -5.6827    1.4587 H   0  0  0  0  0  0  0  0  0  0  0  0
    3.8991   -5.3626   -0.7276 H   0  0  0  0  0  0  0  0  0  0  0  0
    5.6256   -3.4679    1.3404 H   0  0  0  0  0  0  0  0  0  0  0  0
    4.1801   -3.3961    0.3633 H   0  0  0  0  0  0  0  0  0  0  0  0
    4.4260   -3.0483    3.2068 H   0  0  0  0  0  0  0  0  0  0  0  0
    1.9253   -3.0825    1.4607 H   0  0  0  0  0  0  0  0  0  0  0  0
    3.0028   -1.7145    1.6724 H   0  0  0  0  0  0  0  0  0  0  0  0
    2.0884   -2.2960    3.0420 H   0  0  0  0  0  0  0  0  0  0  0  0
    4.2931   -5.1324    3.7160 H   0  0  0  0  0  0  0  0  0  0  0  0
    2.4383   -3.9432    4.6911 H   0  0  0  0  0  0  0  0  0  0  0  0
    1.0805   -3.9663    2.9520 H   0  0  0  0  0  0  0  0  0  0  0  0
  1  2  2  0
  1 33  1  0
  1 34  1  0
  2 21  1  0
  2  3  1  0
  3  4  1  0
  3 35  1  0
  3 36  1  0
  4 19  1  0
  4  5  1  1
  4  6  1  0
  5 37  1  0
  5 38  1  0
  5 39  1  0
  6  7  1  0
  7 31  1  0
  7  8  1  1
  7  9  1  0
  8 40  1  0
  8 41  1  0
  8 42  1  0
  9 10  1  0
  9 43  1  0
  9 44  1  0
 10 15  1  0
 10 11  1  0
 10 45  1  1
 11 12  1  0
 11 46  1  0
 11 47  1  0
 12 13  2  0
 12 14  1  0
 14 15  1  0
 14 16  1  0
 14 48  1  6
 16 17  1  6
 16 18  1  0
 16 23  1  0
 17 49  1  0
 17 50  1  0
 17 51  1  0
 18 19  1  0
 18 52  1  0
 18 53  1  0
 19 20  1  1
 19 21  1  0
 20 54  1  0
 21 22  1  0
 21 55  1  6
 22 56  1  0
 23 30  1  0
 23 24  1  6
 23 25  1  0
 24 57  1  0
 25 26  1  0
 25 27  1  0
 25 58  1  1
 26 59  1  0
 27 28  1  0
 27 60  1  0
 27 61  1  0
 28 29  1  0
 28 30  1  0
 28 62  1  1
 29 63  1  0
 29 64  1  0
 29 65  1  0
 30 31  1  0
 30 66  1  1
 31 32  1  0
 31 67  1  1
 32 68  1  0
M  END
>  <i_m_ct_stereo_status>  (23) 
1

>  <s_m_source_file>  (23) 
/var/tmp/pbs.5076255.sched01/tmpfev35gxg/05fxellcm.sdf

>  <i_m_source_file_index>  (23) 
10

>  <i_lp_mmshare_version>  (23) 
48012

>  <i_f3d_flags>  (23) 
0

>  <s_epik_input>  (23) 
W0NIMl09QyhbQ0gyXTEpW0NASF0oW09IXSlbQ0BdKFtPSF0pKFtDQF0xMltDSDNdKVtDSDJdW0NAXTMoW0NIM10pW0NASF00Qyg9TylbQ0gyXVtDQEhdKE80KVtDSDJdW0NAQF0oTzIpKFtDSDNdKVtDQEhdKFtPSF0pW0NASF01W0NAQF0zKFtPSF0pW0NAQEhdKFtPSF0pW0NIMl1bQ0BIXTVbQ0gzXQ==

>  <s_epik_cmdline>  (23) 
J2VwaWtfcHl0aG9uJywgJy1waHQnLCAnMi4wJywgJy1waCcsICc3LjAnLCAnLXRuJywgJzgnLCAnLW1hJywgJzIwMCcsICctaW1hZScsICc8aW5maWxlLm1hZT4nLCAnLW9tYWUnLCAnPG91dGZpbGUubWFlPic=

>  <r_lp_tautomer_probability>  (23) 
1

>  <r_epik_Ionization_Penalty>  (23) 
6.06488e-07

>  <r_epik_Ionization_Penalty_Charging>  (23) 
0

>  <r_epik_Ionization_Penalty_Neutral>  (23) 
6.06488e-07

>  <r_epik_State_Penalty>  (23) 
-0

>  <r_epik_Charging_Adjusted_Penalty>  (23) 
0

>  <i_epik_Tot_Q>  (23) 
0

>  <i_epik_Tot_abs_Q>  (23) 
0

>  <s_lp_Force_Field>  (23) 
OPLS3e

>  <r_lp_Energy>  (23) 
94.336

>  <b_lp_Chiralities_Consistent>  (23) 
1

>  <s_lp_Variant>  (23) 
6:0-1

>  <s_i_glide_gridfile>  (23) 
pfpi4k_grid

>  <i_i_glide_lignum>  (23) 
10

>  <i_i_glide_rotatable_bonds>  (23) 
5

>  <r_i_docking_score>  (23) 
-2.70019

>  <r_i_glide_ligand_efficiency>  (23) 
-0.084381

>  <r_i_glide_ligand_efficiency_sa>  (23) 
-0.267893

>  <r_i_glide_ligand_efficiency_ln>  (23) 
-0.604647

>  <r_i_glide_gscore>  (23) 
-2.70019

>  <r_i_glide_lipo>  (23) 
-0.156743

>  <r_i_glide_hbond>  (23) 
0

>  <r_i_glide_metal>  (23) 
-0

>  <r_i_glide_rewards>  (23) 
-0.323606

>  <r_i_glide_evdw>  (23) 
-26.5091

>  <r_i_glide_ecoul>  (23) 
-5.9626

>  <r_i_glide_erotb>  (23) 
0

>  <r_i_glide_esite>  (23) 
0

>  <r_i_glide_emodel>  (23) 
-37.2821

>  <r_i_glide_energy>  (23) 
-32.4717

>  <r_i_glide_einternal>  (23) 
1.63183

>  <r_i_glide_intrahb_reward>  (23) 
-0

>  <i_i_glide_confnum>  (23) 
1

>  <i_i_glide_posenum>  (23) 
16

>  <r_i_glide_eff_state_penalty>  (23) 
0

>  <ligand_id>  (23) 
6

>  <original_smiles>  (23) 
C=C1CC2(C)OC3(C)CC4CC(=O)C(O4)C(C)(CC2(O)C1O)C1(O)C(O)CC(C)C1C3O

>  <smiles>  (23) 
[H]OC1([H])C(=C([H])[H])C([H])([H])C2(C([H])([H])[H])OC3(C([H])([H])[H])C([H])([H])C4([H])OC([H])(C(=O)C4([H])[H])C(C([H])([H])[H])(C([H])([H])C12O[H])C1(O[H])C([H])(O[H])C([H])([H])C([H])(C([H])([H])[H])C1([H])C3([H])O[H]

$$$$
6:0:2
     RDKit          3D

 68 72  0  0  1  0  0  0  0  0999 V2000
    2.9554   -3.7204   -0.3047 C   0  0  0  0  0  0  0  0  0  0  0  0
    3.9748   -4.1152    0.4725 C   0  0  0  0  0  0  0  0  0  0  0  0
    4.6422   -5.4582    0.4284 C   0  0  0  0  0  0  0  0  0  0  0  0
    4.9174   -5.8157    1.9129 C   0  0  2  0  0  0  0  0  0  0  0  0
    6.4021   -6.2378    2.0956 C   0  0  0  0  0  0  0  0  0  0  0  0
    3.9200   -6.7499    2.3159 O   0  0  0  0  0  0  0  0  0  0  0  0
    3.9416   -8.1676    2.2919 C   0  0  1  0  0  0  0  0  0  0  0  0
    4.4288   -8.7733    0.9494 C   0  0  0  0  0  0  0  0  0  0  0  0
    4.7699   -8.8281    3.4566 C   0  0  0  0  0  0  0  0  0  0  0  0
    5.0492   -8.0784    4.7939 C   0  0  2  0  0  0  0  0  0  0  0  0
    4.3100   -8.5033    6.0758 C   0  0  0  0  0  0  0  0  0  0  0  0
    3.6042   -7.2304    6.4729 C   0  0  0  0  0  0  0  0  0  0  0  0
    3.0074   -7.0757    7.5364 O   0  0  0  0  0  0  0  0  0  0  0  0
    3.8430   -6.1490    5.4318 C   0  0  1  0  0  0  0  0  0  0  0  0
    4.8824   -6.6850    4.6436 O   0  0  0  0  0  0  0  0  0  0  0  0
    2.6109   -5.5456    4.6211 C   0  0  1  0  0  0  0  0  0  0  0  0
    2.0378   -4.5017    5.6326 C   0  0  0  0  0  0  0  0  0  0  0  0
    3.0629   -4.5955    3.3958 C   0  0  0  0  0  0  0  0  0  0  0  0
    4.5025   -4.5330    2.7471 C   0  0  1  0  0  0  0  0  0  0  0  0
    5.4151   -4.1283    3.7542 O   0  0  0  0  0  0  0  0  0  0  0  0
    4.4928   -3.4000    1.6840 C   0  0  1  0  0  0  0  0  0  0  0  0
    5.8036   -2.9255    1.4162 O   0  0  0  0  0  0  0  0  0  0  0  0
    1.3915   -6.5705    4.2321 C   0  0  2  0  0  0  0  0  0  0  0  0
    0.5377   -5.9609    3.2729 O   0  0  0  0  0  0  0  0  0  0  0  0
    0.3899   -6.8727    5.4090 C   0  0  1  0  0  0  0  0  0  0  0  0
   -0.5639   -5.8598    5.6912 O   0  0  0  0  0  0  0  0  0  0  0  0
   -0.3652   -8.1659    5.0980 C   0  0  0  0  0  0  0  0  0  0  0  0
    0.4209   -8.9088    4.0217 C   0  0  1  0  0  0  0  0  0  0  0  0
   -0.4872   -9.2322    2.8198 C   0  0  0  0  0  0  0  0  0  0  0  0
    1.6895   -8.0497    3.7522 C   0  0  1  0  0  0  0  0  0  0  0  0
    2.4161   -8.4326    2.4216 C   0  0  1  0  0  0  0  0  0  0  0  0
    1.7310   -7.9331    1.2797 O   0  0  0  0  0  0  0  0  0  0  0  0
    2.4731   -2.7638   -0.1438 H   0  0  0  0  0  0  0  0  0  0  0  0
    2.5894   -4.3549   -1.1009 H   0  0  0  0  0  0  0  0  0  0  0  0
    4.0398   -6.1809   -0.1154 H   0  0  0  0  0  0  0  0  0  0  0  0
    5.5770   -5.3344   -0.1145 H   0  0  0  0  0  0  0  0  0  0  0  0
    7.0677   -5.4077    1.8732 H   0  0  0  0  0  0  0  0  0  0  0  0
    6.6995   -7.0324    1.4199 H   0  0  0  0  0  0  0  0  0  0  0  0
    6.6510   -6.5630    3.0998 H   0  0  0  0  0  0  0  0  0  0  0  0
    4.2750   -9.8515    0.9434 H   0  0  0  0  0  0  0  0  0  0  0  0
    5.4850   -8.6159    0.7631 H   0  0  0  0  0  0  0  0  0  0  0  0
    3.8994   -8.3818    0.0886 H   0  0  0  0  0  0  0  0  0  0  0  0
    4.3893   -9.8311    3.6653 H   0  0  0  0  0  0  0  0  0  0  0  0
    5.7650   -9.0128    3.0527 H   0  0  0  0  0  0  0  0  0  0  0  0
    6.1107   -8.2087    5.0049 H   0  0  0  0  0  0  0  0  0  0  0  0
    3.6180   -9.3347    5.9283 H   0  0  0  0  0  0  0  0  0  0  0  0
    5.0039   -8.7871    6.8676 H   0  0  0  0  0  0  0  0  0  0  0  0
    4.3121   -5.3272    5.9725 H   0  0  0  0  0  0  0  0  0  0  0  0
    1.1706   -3.9716    5.2357 H   0  0  0  0  0  0  0  0  0  0  0  0
    2.7744   -3.7401    5.8939 H   0  0  0  0  0  0  0  0  0  0  0  0
    1.7432   -4.9438    6.5814 H   0  0  0  0  0  0  0  0  0  0  0  0
    2.3842   -4.7214    2.5549 H   0  0  0  0  0  0  0  0  0  0  0  0
    2.8809   -3.5609    3.6867 H   0  0  0  0  0  0  0  0  0  0  0  0
    6.2610   -4.0533    3.3452 H   0  0  0  0  0  0  0  0  0  0  0  0
    3.8671   -2.5436    1.9440 H   0  0  0  0  0  0  0  0  0  0  0  0
    5.7263   -2.2085    0.8033 H   0  0  0  0  0  0  0  0  0  0  0  0
    0.5301   -5.0352    3.4772 H   0  0  0  0  0  0  0  0  0  0  0  0
    0.9257   -7.0596    6.3308 H   0  0  0  0  0  0  0  0  0  0  0  0
   -1.1576   -5.8314    4.9551 H   0  0  0  0  0  0  0  0  0  0  0  0
   -0.4551   -8.7787    5.9954 H   0  0  0  0  0  0  0  0  0  0  0  0
   -1.3842   -7.9694    4.7612 H   0  0  0  0  0  0  0  0  0  0  0  0
    0.7394   -9.8671    4.4363 H   0  0  0  0  0  0  0  0  0  0  0  0
   -0.8227   -8.3234    2.3202 H   0  0  0  0  0  0  0  0  0  0  0  0
   -1.3714   -9.7810    3.1460 H   0  0  0  0  0  0  0  0  0  0  0  0
    0.0169   -9.8679    2.0925 H   0  0  0  0  0  0  0  0  0  0  0  0
    2.3434   -8.4441    4.5056 H   0  0  0  0  0  0  0  0  0  0  0  0
    2.3321   -9.5184    2.3487 H   0  0  0  0  0  0  0  0  0  0  0  0
    1.0183   -8.5274    1.0785 H   0  0  0  0  0  0  0  0  0  0  0  0
  1  2  2  0
  1 33  1  0
  1 34  1  0
  2 21  1  0
  2  3  1  0
  3  4  1  0
  3 35  1  0
  3 36  1  0
  4 19  1  0
  4  5  1  6
  4  6  1  0
  5 37  1  0
  5 38  1  0
  5 39  1  0
  6  7  1  0
  7 31  1  0
  7  8  1  6
  7  9  1  0
  8 40  1  0
  8 41  1  0
  8 42  1  0
  9 10  1  0
  9 43  1  0
  9 44  1  0
 10 15  1  0
 10 11  1  0
 10 45  1  1
 11 12  1  0
 11 46  1  0
 11 47  1  0
 12 13  2  0
 12 14  1  0
 14 15  1  0
 14 16  1  0
 14 48  1  1
 16 17  1  1
 16 18  1  0
 16 23  1  0
 17 49  1  0
 17 50  1  0
 17 51  1  0
 18 19  1  0
 18 52  1  0
 18 53  1  0
 19 20  1  1
 19 21  1  0
 20 54  1  0
 21 22  1  0
 21 55  1  1
 22 56  1  0
 23 30  1  0
 23 24  1  6
 23 25  1  0
 24 57  1  0
 25 26  1  0
 25 27  1  0
 25 58  1  1
 26 59  1  0
 27 28  1  0
 27 60  1  0
 27 61  1  0
 28 29  1  0
 28 30  1  0
 28 62  1  1
 29 63  1  0
 29 64  1  0
 29 65  1  0
 30 31  1  0
 30 66  1  1
 31 32  1  0
 31 67  1  6
 32 68  1  0
M  END
>  <i_m_ct_stereo_status>  (24) 
1

>  <s_m_source_file>  (24) 
/var/tmp/pbs.5076255.sched01/tmpfev35gxg/05fxellcm.sdf

>  <i_m_source_file_index>  (24) 
10

>  <i_lp_mmshare_version>  (24) 
48012

>  <i_f3d_flags>  (24) 
0

>  <s_epik_input>  (24) 
W0NIMl09QyhbQ0gyXTEpW0NASF0oW09IXSlbQ0BdKFtPSF0pKFtDQF0xMltDSDNdKVtDSDJdW0NAXTMoW0NIM10pW0NASF00Qyg9TylbQ0gyXVtDQEhdKE80KVtDSDJdW0NAQF0oTzIpKFtDSDNdKVtDQEhdKFtPSF0pW0NASF01W0NAQF0zKFtPSF0pW0NAQEhdKFtPSF0pW0NIMl1bQ0BIXTVbQ0gzXQ==

>  <s_epik_cmdline>  (24) 
J2VwaWtfcHl0aG9uJywgJy1waHQnLCAnMi4wJywgJy1waCcsICc3LjAnLCAnLXRuJywgJzgnLCAnLW1hJywgJzIwMCcsICctaW1hZScsICc8aW5maWxlLm1hZT4nLCAnLW9tYWUnLCAnPG91dGZpbGUubWFlPic=

>  <r_lp_tautomer_probability>  (24) 
1

>  <r_epik_Ionization_Penalty>  (24) 
6.06488e-07

>  <r_epik_Ionization_Penalty_Charging>  (24) 
0

>  <r_epik_Ionization_Penalty_Neutral>  (24) 
6.06488e-07

>  <r_epik_State_Penalty>  (24) 
-0

>  <r_epik_Charging_Adjusted_Penalty>  (24) 
0

>  <i_epik_Tot_Q>  (24) 
0

>  <i_epik_Tot_abs_Q>  (24) 
0

>  <s_lp_Force_Field>  (24) 
OPLS3e

>  <r_lp_Energy>  (24) 
94.336

>  <b_lp_Chiralities_Consistent>  (24) 
1

>  <s_lp_Variant>  (24) 
6:0-1

>  <s_i_glide_gridfile>  (24) 
pfpi4k_grid

>  <i_i_glide_lignum>  (24) 
10

>  <i_i_glide_rotatable_bonds>  (24) 
5

>  <r_i_docking_score>  (24) 
-2.68674

>  <r_i_glide_ligand_efficiency>  (24) 
-0.0839607

>  <r_i_glide_ligand_efficiency_sa>  (24) 
-0.266558

>  <r_i_glide_ligand_efficiency_ln>  (24) 
-0.601635

>  <r_i_glide_gscore>  (24) 
-2.68674

>  <r_i_glide_lipo>  (24) 
-0.192824

>  <r_i_glide_hbond>  (24) 
0

>  <r_i_glide_metal>  (24) 
-0

>  <r_i_glide_rewards>  (24) 
-0.323606

>  <r_i_glide_evdw>  (24) 
-25.3925

>  <r_i_glide_ecoul>  (24) 
-6.00459

>  <r_i_glide_erotb>  (24) 
0

>  <r_i_glide_esite>  (24) 
0

>  <r_i_glide_emodel>  (24) 
-35.9419

>  <r_i_glide_energy>  (24) 
-31.3971

>  <r_i_glide_einternal>  (24) 
1.55209

>  <r_i_glide_intrahb_reward>  (24) 
-0

>  <i_i_glide_confnum>  (24) 
2

>  <i_i_glide_posenum>  (24) 
7

>  <r_i_glide_eff_state_penalty>  (24) 
0

>  <ligand_id>  (24) 
6

>  <original_smiles>  (24) 
C=C1CC2(C)OC3(C)CC4CC(=O)C(O4)C(C)(CC2(O)C1O)C1(O)C(O)CC(C)C1C3O

>  <smiles>  (24) 
[H]OC1([H])C(=C([H])[H])C([H])([H])C2(C([H])([H])[H])OC3(C([H])([H])[H])C([H])([H])C4([H])OC([H])(C(=O)C4([H])[H])C(C([H])([H])[H])(C([H])([H])C12O[H])C1(O[H])C([H])(O[H])C([H])([H])C([H])(C([H])([H])[H])C1([H])C3([H])O[H]

$$$$
7:0:0
     RDKit          3D

 78 83  0  0  1  0  0  0  0  0999 V2000
    7.3761   -4.6110    0.7765 C   0  0  0  0  0  0  0  0  0  0  0  0
    6.7128   -3.4077    0.0583 C   0  0  0  0  0  0  0  0  0  0  0  0
    7.7838   -2.7372   -0.8254 C   0  0  0  0  0  0  0  0  0  0  0  0
    5.5224   -3.8559   -0.8293 C   0  0  0  0  0  0  0  0  0  0  0  0
    4.3089   -4.3410   -0.0193 C   0  0  0  0  0  0  0  0  0  0  0  0
    3.7930   -3.2674    0.9651 C   0  0  1  0  0  0  0  0  0  0  0  0
    3.2071   -2.1161    0.1197 C   0  0  0  0  0  0  0  0  0  0  0  0
    2.6783   -3.8726    1.8407 C   0  0  0  0  0  0  0  0  0  0  0  0
    2.2330   -2.9441    2.9913 C   0  0  0  0  0  0  0  0  0  0  0  0
    3.3799   -2.5178    3.9624 C   0  0  1  0  0  0  0  0  0  0  0  0
    3.8698   -3.8009    4.7028 C   0  0  0  0  0  0  0  0  0  0  0  0
    4.5728   -1.9514    3.1053 C   0  0  2  0  0  0  0  0  0  0  0  0
    4.4780   -0.4530    2.7158 C   0  0  0  0  0  0  0  0  0  0  0  0
    3.4886    0.4104    3.5131 C   0  0  1  0  0  0  0  0  0  0  0  0
    2.2472    0.3927    2.8384 O   0  0  0  0  0  0  0  0  0  0  0  0
    3.3485    0.0101    5.0012 C   0  0  1  0  0  0  0  0  0  0  0  0
    4.7429    0.1211    5.6863 C   0  0  0  0  0  0  0  0  0  0  0  0
    2.3933    0.9878    5.7927 C   0  0  1  0  0  0  0  0  0  0  0  0
    2.7862    2.4895    5.8054 C   0  0  0  0  0  0  0  0  0  0  0  0
    2.0681    3.3318    4.7437 C   0  0  0  0  0  0  0  0  0  0  0  0
    0.5449    3.2054    4.8720 C   0  0  1  0  0  0  0  0  0  0  0  0
   -0.1594    3.8776    3.6769 C   0  0  0  0  0  0  0  0  0  0  0  0
   -1.6709    3.6683    3.6986 C   0  0  0  0  0  0  0  0  0  0  0  0
   -2.4082    4.5506    3.2816 O   0  0  0  0  0  0  0  0  0  0  0  0
   -2.1712    2.3877    4.2201 C   0  0  0  0  0  0  0  0  0  0  0  0
   -1.3525    1.5032    4.8245 C   0  0  0  0  0  0  0  0  0  0  0  0
    0.0743    1.7597    5.0525 C   0  0  0  0  0  0  0  0  0  0  0  0
    0.9128    0.7733    5.4764 C   0  0  0  0  0  0  0  0  0  0  0  0
    0.4257   -0.6343    5.7690 C   0  0  0  0  0  0  0  0  0  0  0  0
    1.4630   -1.7461    5.6285 C   0  0  0  0  0  0  0  0  0  0  0  0
    1.1241   -2.8722    5.9929 O   0  0  0  0  0  0  0  0  0  0  0  0
    2.8985   -1.4983    5.1003 C   0  0  1  0  0  0  0  0  0  0  0  0
    4.9700   -2.8557    1.8929 C   0  0  2  0  0  0  0  0  0  0  0  0
    6.1988   -2.3649    1.0842 C   0  0  0  0  0  0  0  0  0  0  0  0
    7.8318   -5.3057    0.0724 H   0  0  0  0  0  0  0  0  0  0  0  0
    6.6651   -5.1931    1.3610 H   0  0  0  0  0  0  0  0  0  0  0  0
    8.1643   -4.2846    1.4574 H   0  0  0  0  0  0  0  0  0  0  0  0
    7.3529   -1.8928   -1.3590 H   0  0  0  0  0  0  0  0  0  0  0  0
    8.1849   -3.4209   -1.5744 H   0  0  0  0  0  0  0  0  0  0  0  0
    8.6242   -2.3652   -0.2371 H   0  0  0  0  0  0  0  0  0  0  0  0
    5.2289   -3.0380   -1.4866 H   0  0  0  0  0  0  0  0  0  0  0  0
    5.8099   -4.6579   -1.5032 H   0  0  0  0  0  0  0  0  0  0  0  0
    3.5235   -4.6394   -0.7109 H   0  0  0  0  0  0  0  0  0  0  0  0
    4.5758   -5.2503    0.5150 H   0  0  0  0  0  0  0  0  0  0  0  0
    2.6481   -1.3978    0.7140 H   0  0  0  0  0  0  0  0  0  0  0  0
    2.5105   -2.5120   -0.6203 H   0  0  0  0  0  0  0  0  0  0  0  0
    3.9607   -1.5569   -0.4308 H   0  0  0  0  0  0  0  0  0  0  0  0
    1.8194   -4.1212    1.2179 H   0  0  0  0  0  0  0  0  0  0  0  0
    3.0109   -4.8267    2.2501 H   0  0  0  0  0  0  0  0  0  0  0  0
    1.7465   -2.0664    2.5761 H   0  0  0  0  0  0  0  0  0  0  0  0
    1.4463   -3.4757    3.5228 H   0  0  0  0  0  0  0  0  0  0  0  0
    4.6663   -3.5732    5.4118 H   0  0  0  0  0  0  0  0  0  0  0  0
    4.2665   -4.5652    4.0399 H   0  0  0  0  0  0  0  0  0  0  0  0
    3.0713   -4.2849    5.2643 H   0  0  0  0  0  0  0  0  0  0  0  0
    5.4425   -2.0124    3.7603 H   0  0  0  0  0  0  0  0  0  0  0  0
    5.4679   -0.0368    2.8746 H   0  0  0  0  0  0  0  0  0  0  0  0
    4.3106   -0.3092    1.6509 H   0  0  0  0  0  0  0  0  0  0  0  0
    3.8537    1.4338    3.4614 H   0  0  0  0  0  0  0  0  0  0  0  0
    2.3803    0.7506    1.9744 H   0  0  0  0  0  0  0  0  0  0  0  0
    4.6618    0.1120    6.7738 H   0  0  0  0  0  0  0  0  0  0  0  0
    5.2701    1.0312    5.4052 H   0  0  0  0  0  0  0  0  0  0  0  0
    5.4091   -0.7002    5.4362 H   0  0  0  0  0  0  0  0  0  0  0  0
    2.4675    0.6873    6.8361 H   0  0  0  0  0  0  0  0  0  0  0  0
    2.5198    2.9029    6.7800 H   0  0  0  0  0  0  0  0  0  0  0  0
    3.8612    2.6413    5.7216 H   0  0  0  0  0  0  0  0  0  0  0  0
    2.3597    4.3789    4.8469 H   0  0  0  0  0  0  0  0  0  0  0  0
    2.3771    3.0352    3.7437 H   0  0  0  0  0  0  0  0  0  0  0  0
    0.2489    3.7299    5.7816 H   0  0  0  0  0  0  0  0  0  0  0  0
    0.0513    4.9460    3.6362 H   0  0  0  0  0  0  0  0  0  0  0  0
    0.2014    3.4347    2.7489 H   0  0  0  0  0  0  0  0  0  0  0  0
   -3.2170    2.1666    4.0753 H   0  0  0  0  0  0  0  0  0  0  0  0
   -1.8015    0.5846    5.1670 H   0  0  0  0  0  0  0  0  0  0  0  0
    0.0836   -0.6496    6.8045 H   0  0  0  0  0  0  0  0  0  0  0  0
   -0.4212   -0.9057    5.1445 H   0  0  0  0  0  0  0  0  0  0  0  0
    3.4416   -1.8336    5.9825 H   0  0  0  0  0  0  0  0  0  0  0  0
    5.3071   -3.7783    2.3518 H   0  0  0  0  0  0  0  0  0  0  0  0
    7.0084   -2.0862    1.7555 H   0  0  0  0  0  0  0  0  0  0  0  0
    5.9450   -1.4505    0.5478 H   0  0  0  0  0  0  0  0  0  0  0  0
  1  2  1  0
  1 35  1  0
  1 36  1  0
  1 37  1  0
  2 34  1  0
  2  3  1  0
  2  4  1  0
  3 38  1  0
  3 39  1  0
  3 40  1  0
  4  5  1  0
  4 41  1  0
  4 42  1  0
  5  6  1  0
  5 43  1  0
  5 44  1  0
  6 33  1  0
  6  7  1  6
  6  8  1  0
  7 45  1  0
  7 46  1  0
  7 47  1  0
  8  9  1  0
  8 48  1  0
  8 49  1  0
  9 10  1  0
  9 50  1  0
  9 51  1  0
 10 32  1  0
 10 11  1  1
 10 12  1  0
 11 52  1  0
 11 53  1  0
 11 54  1  0
 12 13  1  0
 12 33  1  0
 12 55  1  1
 13 14  1  0
 13 56  1  0
 13 57  1  0
 14 15  1  0
 14 16  1  0
 14 58  1  1
 15 59  1  0
 16 32  1  0
 16 17  1  1
 16 18  1  0
 17 60  1  0
 17 61  1  0
 17 62  1  0
 18 28  1  0
 18 19  1  0
 18 63  1  1
 19 20  1  0
 19 64  1  0
 19 65  1  0
 20 21  1  0
 20 66  1  0
 20 67  1  0
 21 27  1  0
 21 22  1  0
 21 68  1  1
 22 23  1  0
 22 69  1  0
 22 70  1  0
 23 24  2  0
 23 25  1  0
 25 26  2  0
 25 71  1  0
 26 27  1  0
 26 72  1  0
 27 28  2  0
 28 29  1  0
 29 30  1  0
 29 73  1  0
 29 74  1  0
 30 31  2  0
 30 32  1  0
 32 75  1  1
 33 34  1  0
 33 76  1  1
 34 77  1  0
 34 78  1  0
M  END
>  <i_m_ct_stereo_status>  (25) 
1

>  <s_m_source_file>  (25) 
/var/tmp/pbs.5076255.sched01/tmpfev35gxg/05fxellcm.sdf

>  <i_m_source_file_index>  (25) 
11

>  <i_lp_mmshare_version>  (25) 
48012

>  <i_f3d_flags>  (25) 
0

>  <s_epik_input>  (25) 
W0NIMl0xW0NIMl1DKFtDSDNdKShbQ0gzXSlbQ0gyXVtDQEhdKFtDQEBdMTJbQ0gzXSlbQ0BASF0zW0NAXShbQ0gzXSkoW0NIMl1bQ0gyXTIpW0NASF00W0NAQF0oW0NIM10pKFtDQEBIXShbQ0gyXTMpW09IXSlbQ0BASF01QyhbQ0gyXUM0PU8pPUM2W0NAQEhdKFtDSDJdW0NIMl01KVtDSDJdQyg9TylbQ0hdPVtDSF02

>  <s_epik_cmdline>  (25) 
J2VwaWtfcHl0aG9uJywgJy1waHQnLCAnMi4wJywgJy1waCcsICc3LjAnLCAnLXRuJywgJzgnLCAnLW1hJywgJzIwMCcsICctaW1hZScsICc8aW5maWxlLm1hZT4nLCAnLW9tYWUnLCAnPG91dGZpbGUubWFlPic=

>  <r_lp_tautomer_probability>  (25) 
1

>  <r_epik_Ionization_Penalty>  (25) 
4.28165e-07

>  <r_epik_Ionization_Penalty_Charging>  (25) 
0

>  <r_epik_Ionization_Penalty_Neutral>  (25) 
4.28165e-07

>  <r_epik_State_Penalty>  (25) 
-0

>  <r_epik_Charging_Adjusted_Penalty>  (25) 
0

>  <i_epik_Tot_Q>  (25) 
0

>  <i_epik_Tot_abs_Q>  (25) 
0

>  <s_lp_Force_Field>  (25) 
OPLS3e

>  <r_lp_Energy>  (25) 
93.1837

>  <b_lp_Chiralities_Consistent>  (25) 
1

>  <s_lp_Variant>  (25) 
7:0-1

>  <s_i_glide_gridfile>  (25) 
pfpi4k_grid

>  <i_i_glide_lignum>  (25) 
11

>  <i_i_glide_rotatable_bonds>  (25) 
1

>  <r_i_docking_score>  (25) 
-2.93454

>  <r_i_glide_ligand_efficiency>  (25) 
-0.0863099

>  <r_i_glide_ligand_efficiency_sa>  (25) 
-0.279611

>  <r_i_glide_ligand_efficiency_ln>  (25) 
-0.648322

>  <r_i_glide_gscore>  (25) 
-2.93454

>  <r_i_glide_lipo>  (25) 
-0.577022

>  <r_i_glide_hbond>  (25) 
-0.16

>  <r_i_glide_metal>  (25) 
-0

>  <r_i_glide_rewards>  (25) 
-0.240823

>  <r_i_glide_evdw>  (25) 
-28.8361

>  <r_i_glide_ecoul>  (25) 
-2.96852

>  <r_i_glide_erotb>  (25) 
0

>  <r_i_glide_esite>  (25) 
-0.069611

>  <r_i_glide_emodel>  (25) 
-37.2072

>  <r_i_glide_energy>  (25) 
-31.8046

>  <r_i_glide_einternal>  (25) 
0.33122

>  <r_i_glide_intrahb_reward>  (25) 
-0

>  <i_i_glide_confnum>  (25) 
2

>  <i_i_glide_posenum>  (25) 
2

>  <r_i_glide_eff_state_penalty>  (25) 
0

>  <ligand_id>  (25) 
7

>  <original_smiles>  (25) 
CC1(C)CCC2(C)CCC3(C)C(CC(O)C4(C)C5CCC6CC(=O)C=CC6=C5CC(=O)C34)C2C1

>  <smiles>  (25) 
[H]OC1([H])C([H])([H])C2([H])C3([H])C([H])([H])C(C([H])([H])[H])(C([H])([H])[H])C([H])([H])C([H])([H])C3(C([H])([H])[H])C([H])([H])C([H])([H])C2(C([H])([H])[H])C2([H])C(=O)C([H])([H])C3=C4C([H])=C([H])C(=O)C([H])([H])C4([H])C([H])([H])C([H])([H])C3([H])C12C([H])([H])[H]

$$$$
7:0:1
     RDKit          3D

 78 83  0  0  1  0  0  0  0  0999 V2000
    2.5219   -8.8828    4.7229 C   0  0  0  0  0  0  0  0  0  0  0  0
    1.1961   -8.1105    4.5122 C   0  0  0  0  0  0  0  0  0  0  0  0
    0.3132   -8.9246    3.5425 C   0  0  0  0  0  0  0  0  0  0  0  0
    0.4438   -7.9497    5.8555 C   0  0  0  0  0  0  0  0  0  0  0  0
    1.1167   -6.9490    6.8176 C   0  0  0  0  0  0  0  0  0  0  0  0
    1.3136   -5.5432    6.1914 C   0  0  1  0  0  0  0  0  0  0  0  0
   -0.0857   -4.9024    6.0096 C   0  0  0  0  0  0  0  0  0  0  0  0
    2.1453   -4.6599    7.1448 C   0  0  0  0  0  0  0  0  0  0  0  0
    2.5835   -3.3153    6.5174 C   0  0  0  0  0  0  0  0  0  0  0  0
    3.4209   -3.4448    5.2030 C   0  0  1  0  0  0  0  0  0  0  0  0
    4.7784   -4.1220    5.5705 C   0  0  0  0  0  0  0  0  0  0  0  0
    2.6416   -4.3944    4.2184 C   0  0  2  0  0  0  0  0  0  0  0  0
    1.5613   -3.7167    3.3399 C   0  0  0  0  0  0  0  0  0  0  0  0
    1.6134   -2.1854    3.2196 C   0  0  1  0  0  0  0  0  0  0  0  0
    0.7964   -1.6343    4.2316 O   0  0  0  0  0  0  0  0  0  0  0  0
    3.0467   -1.5990    3.2218 C   0  0  1  0  0  0  0  0  0  0  0  0
    3.8410   -2.2069    2.0262 C   0  0  0  0  0  0  0  0  0  0  0  0
    3.0464   -0.0346    2.9980 C   0  0  1  0  0  0  0  0  0  0  0  0
    2.3893    0.4844    1.6911 C   0  0  0  0  0  0  0  0  0  0  0  0
    0.9346    0.9380    1.8612 C   0  0  0  0  0  0  0  0  0  0  0  0
    0.8015    2.0032    2.9540 C   0  0  1  0  0  0  0  0  0  0  0  0
   -0.6830    2.3085    3.2663 C   0  0  0  0  0  0  0  0  0  0  0  0
   -0.8269    3.3059    4.4166 C   0  0  0  0  0  0  0  0  0  0  0  0
   -1.7570    4.1159    4.4151 O   0  0  0  0  0  0  0  0  0  0  0  0
    0.1529    3.2162    5.5123 C   0  0  0  0  0  0  0  0  0  0  0  0
    1.2459    2.4346    5.4190 C   0  0  0  0  0  0  0  0  0  0  0  0
    1.5832    1.6592    4.2234 C   0  0  0  0  0  0  0  0  0  0  0  0
    2.5964    0.7470    4.2291 C   0  0  0  0  0  0  0  0  0  0  0  0
    3.4519    0.4859    5.4565 C   0  0  0  0  0  0  0  0  0  0  0  0
    4.0928   -0.9003    5.5572 C   0  0  0  0  0  0  0  0  0  0  0  0
    4.8955   -1.0876    6.4688 O   0  0  0  0  0  0  0  0  0  0  0  0
    3.7889   -2.0322    4.5422 C   0  0  1  0  0  0  0  0  0  0  0  0
    2.1329   -5.7210    4.8759 C   0  0  2  0  0  0  0  0  0  0  0  0
    1.4538   -6.7107    3.8952 C   0  0  0  0  0  0  0  0  0  0  0  0
    2.3345   -9.9010    5.0736 H   0  0  0  0  0  0  0  0  0  0  0  0
    3.1689   -8.4090    5.4636 H   0  0  0  0  0  0  0  0  0  0  0  0
    3.0906   -8.9514    3.7929 H   0  0  0  0  0  0  0  0  0  0  0  0
   -0.6437   -8.4322    3.3679 H   0  0  0  0  0  0  0  0  0  0  0  0
    0.0963   -9.9177    3.9386 H   0  0  0  0  0  0  0  0  0  0  0  0
    0.7992   -9.0533    2.5749 H   0  0  0  0  0  0  0  0  0  0  0  0
   -0.5776   -7.6268    5.6606 H   0  0  0  0  0  0  0  0  0  0  0  0
    0.3467   -8.9193    6.3435 H   0  0  0  0  0  0  0  0  0  0  0  0
    0.5279   -6.8762    7.7314 H   0  0  0  0  0  0  0  0  0  0  0  0
    2.0766   -7.3531    7.1328 H   0  0  0  0  0  0  0  0  0  0  0  0
   -0.0359   -3.8548    5.7234 H   0  0  0  0  0  0  0  0  0  0  0  0
   -0.6578   -4.9439    6.9382 H   0  0  0  0  0  0  0  0  0  0  0  0
   -0.6706   -5.4173    5.2513 H   0  0  0  0  0  0  0  0  0  0  0  0
    1.5788   -4.4669    8.0568 H   0  0  0  0  0  0  0  0  0  0  0  0
    3.0276   -5.2072    7.4734 H   0  0  0  0  0  0  0  0  0  0  0  0
    1.7084   -2.6962    6.3417 H   0  0  0  0  0  0  0  0  0  0  0  0
    3.1486   -2.7896    7.2846 H   0  0  0  0  0  0  0  0  0  0  0  0
    5.4206   -4.2327    4.6954 H   0  0  0  0  0  0  0  0  0  0  0  0
    4.6703   -5.1184    5.9944 H   0  0  0  0  0  0  0  0  0  0  0  0
    5.3386   -3.5489    6.3089 H   0  0  0  0  0  0  0  0  0  0  0  0
    3.3923   -4.7355    3.5072 H   0  0  0  0  0  0  0  0  0  0  0  0
    1.6823   -4.1257    2.3387 H   0  0  0  0  0  0  0  0  0  0  0  0
    0.5598   -4.0199    3.6240 H   0  0  0  0  0  0  0  0  0  0  0  0
    1.1398   -1.9346    2.2719 H   0  0  0  0  0  0  0  0  0  0  0  0
   -0.0969   -1.8759    4.0372 H   0  0  0  0  0  0  0  0  0  0  0  0
    4.7519   -1.6450    1.8185 H   0  0  0  0  0  0  0  0  0  0  0  0
    3.2536   -2.2315    1.1089 H   0  0  0  0  0  0  0  0  0  0  0  0
    4.1616   -3.2299    2.2038 H   0  0  0  0  0  0  0  0  0  0  0  0
    4.0954    0.2448    2.8936 H   0  0  0  0  0  0  0  0  0  0  0  0
    2.9630    1.3450    1.3428 H   0  0  0  0  0  0  0  0  0  0  0  0
    2.4450   -0.2409    0.8802 H   0  0  0  0  0  0  0  0  0  0  0  0
    0.5636    1.3336    0.9138 H   0  0  0  0  0  0  0  0  0  0  0  0
    0.2936    0.0917    2.0976 H   0  0  0  0  0  0  0  0  0  0  0  0
    1.2531    2.9194    2.5617 H   0  0  0  0  0  0  0  0  0  0  0  0
   -1.1825    2.7068    2.3834 H   0  0  0  0  0  0  0  0  0  0  0  0
   -1.2060    1.3939    3.5459 H   0  0  0  0  0  0  0  0  0  0  0  0
   -0.0387    3.7867    6.4100 H   0  0  0  0  0  0  0  0  0  0  0  0
    1.9078    2.4295    6.2728 H   0  0  0  0  0  0  0  0  0  0  0  0
    4.2666    1.2093    5.4480 H   0  0  0  0  0  0  0  0  0  0  0  0
    2.8969    0.6528    6.3751 H   0  0  0  0  0  0  0  0  0  0  0  0
    4.8056   -2.1790    4.1844 H   0  0  0  0  0  0  0  0  0  0  0  0
    3.0462   -6.2292    5.1715 H   0  0  0  0  0  0  0  0  0  0  0  0
    2.0621   -6.8131    2.9960 H   0  0  0  0  0  0  0  0  0  0  0  0
    0.5005   -6.3035    3.5601 H   0  0  0  0  0  0  0  0  0  0  0  0
  1  2  1  0
  1 35  1  0
  1 36  1  0
  1 37  1  0
  2 34  1  0
  2  3  1  0
  2  4  1  0
  3 38  1  0
  3 39  1  0
  3 40  1  0
  4  5  1  0
  4 41  1  0
  4 42  1  0
  5  6  1  0
  5 43  1  0
  5 44  1  0
  6 33  1  0
  6  7  1  6
  6  8  1  0
  7 45  1  0
  7 46  1  0
  7 47  1  0
  8  9  1  0
  8 48  1  0
  8 49  1  0
  9 10  1  0
  9 50  1  0
  9 51  1  0
 10 32  1  0
 10 11  1  1
 10 12  1  0
 11 52  1  0
 11 53  1  0
 11 54  1  0
 12 13  1  0
 12 33  1  0
 12 55  1  6
 13 14  1  0
 13 56  1  0
 13 57  1  0
 14 15  1  0
 14 16  1  0
 14 58  1  6
 15 59  1  0
 16 32  1  0
 16 17  1  6
 16 18  1  0
 17 60  1  0
 17 61  1  0
 17 62  1  0
 18 28  1  0
 18 19  1  0
 18 63  1  6
 19 20  1  0
 19 64  1  0
 19 65  1  0
 20 21  1  0
 20 66  1  0
 20 67  1  0
 21 27  1  0
 21 22  1  0
 21 68  1  6
 22 23  1  0
 22 69  1  0
 22 70  1  0
 23 24  2  0
 23 25  1  0
 25 26  2  0
 25 71  1  0
 26 27  1  0
 26 72  1  0
 27 28  2  0
 28 29  1  0
 29 30  1  0
 29 73  1  0
 29 74  1  0
 30 31  2  0
 30 32  1  0
 32 75  1  6
 33 34  1  0
 33 76  1  1
 34 77  1  0
 34 78  1  0
M  END
>  <i_m_ct_stereo_status>  (26) 
1

>  <s_m_source_file>  (26) 
/var/tmp/pbs.5076255.sched01/tmpfev35gxg/05fxellcm.sdf

>  <i_m_source_file_index>  (26) 
11

>  <i_lp_mmshare_version>  (26) 
48012

>  <i_f3d_flags>  (26) 
0

>  <s_epik_input>  (26) 
W0NIMl0xW0NIMl1DKFtDSDNdKShbQ0gzXSlbQ0gyXVtDQEhdKFtDQEBdMTJbQ0gzXSlbQ0BASF0zW0NAXShbQ0gzXSkoW0NIMl1bQ0gyXTIpW0NASF00W0NAQF0oW0NIM10pKFtDQEBIXShbQ0gyXTMpW09IXSlbQ0BASF01QyhbQ0gyXUM0PU8pPUM2W0NAQEhdKFtDSDJdW0NIMl01KVtDSDJdQyg9TylbQ0hdPVtDSF02

>  <s_epik_cmdline>  (26) 
J2VwaWtfcHl0aG9uJywgJy1waHQnLCAnMi4wJywgJy1waCcsICc3LjAnLCAnLXRuJywgJzgnLCAnLW1hJywgJzIwMCcsICctaW1hZScsICc8aW5maWxlLm1hZT4nLCAnLW9tYWUnLCAnPG91dGZpbGUubWFlPic=

>  <r_lp_tautomer_probability>  (26) 
1

>  <r_epik_Ionization_Penalty>  (26) 
4.28165e-07

>  <r_epik_Ionization_Penalty_Charging>  (26) 
0

>  <r_epik_Ionization_Penalty_Neutral>  (26) 
4.28165e-07

>  <r_epik_State_Penalty>  (26) 
-0

>  <r_epik_Charging_Adjusted_Penalty>  (26) 
0

>  <i_epik_Tot_Q>  (26) 
0

>  <i_epik_Tot_abs_Q>  (26) 
0

>  <s_lp_Force_Field>  (26) 
OPLS3e

>  <r_lp_Energy>  (26) 
93.1837

>  <b_lp_Chiralities_Consistent>  (26) 
1

>  <s_lp_Variant>  (26) 
7:0-1

>  <s_i_glide_gridfile>  (26) 
pfpi4k_grid

>  <i_i_glide_lignum>  (26) 
11

>  <i_i_glide_rotatable_bonds>  (26) 
1

>  <r_i_docking_score>  (26) 
-2.36799

>  <r_i_glide_ligand_efficiency>  (26) 
-0.0696467

>  <r_i_glide_ligand_efficiency_sa>  (26) 
-0.225628

>  <r_i_glide_ligand_efficiency_ln>  (26) 
-0.523155

>  <r_i_glide_gscore>  (26) 
-2.36799

>  <r_i_glide_lipo>  (26) 
-0.0310736

>  <r_i_glide_hbond>  (26) 
-0.0177717

>  <r_i_glide_metal>  (26) 
-0

>  <r_i_glide_rewards>  (26) 
-0.240823

>  <r_i_glide_evdw>  (26) 
-27.9088

>  <r_i_glide_ecoul>  (26) 
-4.3341

>  <r_i_glide_erotb>  (26) 
0

>  <r_i_glide_esite>  (26) 
-0.0327634

>  <r_i_glide_emodel>  (26) 
-36.5125

>  <r_i_glide_energy>  (26) 
-32.2429

>  <r_i_glide_einternal>  (26) 
0.384735

>  <r_i_glide_intrahb_reward>  (26) 
-0

>  <i_i_glide_confnum>  (26) 
1

>  <i_i_glide_posenum>  (26) 
5

>  <r_i_glide_eff_state_penalty>  (26) 
0

>  <ligand_id>  (26) 
7

>  <original_smiles>  (26) 
CC1(C)CCC2(C)CCC3(C)C(CC(O)C4(C)C5CCC6CC(=O)C=CC6=C5CC(=O)C34)C2C1

>  <smiles>  (26) 
[H]OC1([H])C([H])([H])C2([H])C3([H])C([H])([H])C(C([H])([H])[H])(C([H])([H])[H])C([H])([H])C([H])([H])C3(C([H])([H])[H])C([H])([H])C([H])([H])C2(C([H])([H])[H])C2([H])C(=O)C([H])([H])C3=C4C([H])=C([H])C(=O)C([H])([H])C4([H])C([H])([H])C([H])([H])C3([H])C12C([H])([H])[H]

$$$$
7:0:2
     RDKit          3D

 78 83  0  0  1  0  0  0  0  0999 V2000
   -0.4090    2.7752    8.5685 C   0  0  0  0  0  0  0  0  0  0  0  0
   -1.0176    2.4406    7.1863 C   0  0  0  0  0  0  0  0  0  0  0  0
   -2.4962    2.0822    7.4001 C   0  0  0  0  0  0  0  0  0  0  0  0
   -0.9362    3.6603    6.2397 C   0  0  0  0  0  0  0  0  0  0  0  0
    0.4950    3.9640    5.7587 C   0  0  0  0  0  0  0  0  0  0  0  0
    1.1674    2.7519    5.0643 C   0  0  1  0  0  0  0  0  0  0  0  0
    0.4406    2.5060    3.7158 C   0  0  0  0  0  0  0  0  0  0  0  0
    2.6452    3.0814    4.7802 C   0  0  0  0  0  0  0  0  0  0  0  0
    3.4520    1.8605    4.2939 C   0  0  0  0  0  0  0  0  0  0  0  0
    3.4664    0.6392    5.2652 C   0  0  1  0  0  0  0  0  0  0  0  0
    4.2250    1.0727    6.5584 C   0  0  0  0  0  0  0  0  0  0  0  0
    1.9779    0.3026    5.6424 C   0  0  2  0  0  0  0  0  0  0  0  0
    1.2222   -0.6125    4.6445 C   0  0  0  0  0  0  0  0  0  0  0  0
    2.0693   -1.4127    3.6422 C   0  0  1  0  0  0  0  0  0  0  0  0
    2.1968   -0.6586    2.4584 O   0  0  0  0  0  0  0  0  0  0  0  0
    3.4394   -1.8761    4.2019 C   0  0  1  0  0  0  0  0  0  0  0  0
    3.2032   -2.7765    5.4530 C   0  0  0  0  0  0  0  0  0  0  0  0
    4.2301   -2.7692    3.1647 C   0  0  1  0  0  0  0  0  0  0  0  0
    3.5259   -4.0647    2.6785 C   0  0  0  0  0  0  0  0  0  0  0  0
    2.7968   -3.9086    1.3403 C   0  0  0  0  0  0  0  0  0  0  0  0
    3.7448   -3.4083    0.2428 C   0  0  1  0  0  0  0  0  0  0  0  0
    2.9725   -3.0635   -1.0503 C   0  0  0  0  0  0  0  0  0  0  0  0
    3.8759   -2.4520   -2.1204 C   0  0  0  0  0  0  0  0  0  0  0  0
    3.6575   -2.6743   -3.3106 O   0  0  0  0  0  0  0  0  0  0  0  0
    4.9596   -1.5710   -1.6607 C   0  0  0  0  0  0  0  0  0  0  0  0
    5.2789   -1.4703   -0.3567 C   0  0  0  0  0  0  0  0  0  0  0  0
    4.6145   -2.2340    0.6983 C   0  0  0  0  0  0  0  0  0  0  0  0
    4.8276   -1.9608    2.0144 C   0  0  0  0  0  0  0  0  0  0  0  0
    5.7789   -0.8698    2.4684 C   0  0  0  0  0  0  0  0  0  0  0  0
    5.5098   -0.2564    3.8471 C   0  0  0  0  0  0  0  0  0  0  0  0
    6.3403    0.5280    4.3018 O   0  0  0  0  0  0  0  0  0  0  0  0
    4.2588   -0.6223    4.6848 C   0  0  1  0  0  0  0  0  0  0  0  0
    1.1350    1.5526    6.0622 C   0  0  2  0  0  0  0  0  0  0  0  0
   -0.3013    1.2285    6.5371 C   0  0  0  0  0  0  0  0  0  0  0  0
   -0.9782    3.5642    9.0675 H   0  0  0  0  0  0  0  0  0  0  0  0
    0.6233    3.1238    8.4942 H   0  0  0  0  0  0  0  0  0  0  0  0
   -0.4113    1.8996    9.2231 H   0  0  0  0  0  0  0  0  0  0  0  0
   -2.9880    1.8345    6.4618 H   0  0  0  0  0  0  0  0  0  0  0  0
   -3.0523    2.9030    7.8522 H   0  0  0  0  0  0  0  0  0  0  0  0
   -2.5748    1.2230    8.0613 H   0  0  0  0  0  0  0  0  0  0  0  0
   -1.5731    3.4903    5.3724 H   0  0  0  0  0  0  0  0  0  0  0  0
   -1.3462    4.5379    6.7364 H   0  0  0  0  0  0  0  0  0  0  0  0
    0.4758    4.8217    5.0852 H   0  0  0  0  0  0  0  0  0  0  0  0
    1.0919    4.2842    6.6105 H   0  0  0  0  0  0  0  0  0  0  0  0
    0.9525    1.7822    3.0861 H   0  0  0  0  0  0  0  0  0  0  0  0
    0.3803    3.4284    3.1323 H   0  0  0  0  0  0  0  0  0  0  0  0
   -0.5779    2.1469    3.8524 H   0  0  0  0  0  0  0  0  0  0  0  0
    2.7111    3.8750    4.0342 H   0  0  0  0  0  0  0  0  0  0  0  0
    3.1122    3.4932    5.6739 H   0  0  0  0  0  0  0  0  0  0  0  0
    3.1048    1.5728    3.3068 H   0  0  0  0  0  0  0  0  0  0  0  0
    4.4647    2.2163    4.1325 H   0  0  0  0  0  0  0  0  0  0  0  0
    4.2835    0.2580    7.2817 H   0  0  0  0  0  0  0  0  0  0  0  0
    3.7626    1.9098    7.0769 H   0  0  0  0  0  0  0  0  0  0  0  0
    5.2477    1.3892    6.3513 H   0  0  0  0  0  0  0  0  0  0  0  0
    2.0479   -0.2820    6.5596 H   0  0  0  0  0  0  0  0  0  0  0  0
    0.6840   -1.3347    5.2537 H   0  0  0  0  0  0  0  0  0  0  0  0
    0.4357   -0.0860    4.1112 H   0  0  0  0  0  0  0  0  0  0  0  0
    1.4862   -2.2942    3.3881 H   0  0  0  0  0  0  0  0  0  0  0  0
    2.6289    0.1575    2.6794 H   0  0  0  0  0  0  0  0  0  0  0  0
    4.0976   -3.3406    5.7244 H   0  0  0  0  0  0  0  0  0  0  0  0
    2.3966   -3.4913    5.2986 H   0  0  0  0  0  0  0  0  0  0  0  0
    2.9352   -2.2085    6.3403 H   0  0  0  0  0  0  0  0  0  0  0  0
    5.1080   -3.1355    3.7001 H   0  0  0  0  0  0  0  0  0  0  0  0
    4.2858   -4.8375    2.5461 H   0  0  0  0  0  0  0  0  0  0  0  0
    2.8395   -4.4700    3.4207 H   0  0  0  0  0  0  0  0  0  0  0  0
    2.3659   -4.8669    1.0425 H   0  0  0  0  0  0  0  0  0  0  0  0
    1.9635   -3.2157    1.4442 H   0  0  0  0  0  0  0  0  0  0  0  0
    4.4311   -4.2211    0.0043 H   0  0  0  0  0  0  0  0  0  0  0  0
    2.4636   -3.9401   -1.4609 H   0  0  0  0  0  0  0  0  0  0  0  0
    2.2174   -2.3210   -0.8264 H   0  0  0  0  0  0  0  0  0  0  0  0
    5.4809   -0.9998   -2.4095 H   0  0  0  0  0  0  0  0  0  0  0  0
    6.0951   -0.8057   -0.1074 H   0  0  0  0  0  0  0  0  0  0  0  0
    6.7726   -1.3132    2.4763 H   0  0  0  0  0  0  0  0  0  0  0  0
    5.8291   -0.0582    1.7493 H   0  0  0  0  0  0  0  0  0  0  0  0
    4.7777   -1.0170    5.5561 H   0  0  0  0  0  0  0  0  0  0  0  0
    1.6350    1.9101    6.9570 H   0  0  0  0  0  0  0  0  0  0  0  0
   -0.2695    0.3915    7.2355 H   0  0  0  0  0  0  0  0  0  0  0  0
   -0.8971    0.8899    5.6898 H   0  0  0  0  0  0  0  0  0  0  0  0
  1  2  1  0
  1 35  1  0
  1 36  1  0
  1 37  1  0
  2 34  1  0
  2  3  1  0
  2  4  1  0
  3 38  1  0
  3 39  1  0
  3 40  1  0
  4  5  1  0
  4 41  1  0
  4 42  1  0
  5  6  1  0
  5 43  1  0
  5 44  1  0
  6 33  1  0
  6  7  1  6
  6  8  1  0
  7 45  1  0
  7 46  1  0
  7 47  1  0
  8  9  1  0
  8 48  1  0
  8 49  1  0
  9 10  1  0
  9 50  1  0
  9 51  1  0
 10 32  1  0
 10 11  1  1
 10 12  1  0
 11 52  1  0
 11 53  1  0
 11 54  1  0
 12 13  1  0
 12 33  1  0
 12 55  1  1
 13 14  1  0
 13 56  1  0
 13 57  1  0
 14 15  1  0
 14 16  1  0
 14 58  1  6
 15 59  1  0
 16 32  1  0
 16 17  1  1
 16 18  1  0
 17 60  1  0
 17 61  1  0
 17 62  1  0
 18 28  1  0
 18 19  1  0
 18 63  1  1
 19 20  1  0
 19 64  1  0
 19 65  1  0
 20 21  1  0
 20 66  1  0
 20 67  1  0
 21 27  1  0
 21 22  1  0
 21 68  1  6
 22 23  1  0
 22 69  1  0
 22 70  1  0
 23 24  2  0
 23 25  1  0
 25 26  2  0
 25 71  1  0
 26 27  1  0
 26 72  1  0
 27 28  2  0
 28 29  1  0
 29 30  1  0
 29 73  1  0
 29 74  1  0
 30 31  2  0
 30 32  1  0
 32 75  1  1
 33 34  1  0
 33 76  1  1
 34 77  1  0
 34 78  1  0
M  END
>  <i_m_ct_stereo_status>  (27) 
1

>  <s_m_source_file>  (27) 
/var/tmp/pbs.5076255.sched01/tmpfev35gxg/05fxellcm.sdf

>  <i_m_source_file_index>  (27) 
11

>  <i_lp_mmshare_version>  (27) 
48012

>  <i_f3d_flags>  (27) 
0

>  <s_epik_input>  (27) 
W0NIMl0xW0NIMl1DKFtDSDNdKShbQ0gzXSlbQ0gyXVtDQEhdKFtDQEBdMTJbQ0gzXSlbQ0BASF0zW0NAXShbQ0gzXSkoW0NIMl1bQ0gyXTIpW0NASF00W0NAQF0oW0NIM10pKFtDQEBIXShbQ0gyXTMpW09IXSlbQ0BASF01QyhbQ0gyXUM0PU8pPUM2W0NAQEhdKFtDSDJdW0NIMl01KVtDSDJdQyg9TylbQ0hdPVtDSF02

>  <s_epik_cmdline>  (27) 
J2VwaWtfcHl0aG9uJywgJy1waHQnLCAnMi4wJywgJy1waCcsICc3LjAnLCAnLXRuJywgJzgnLCAnLW1hJywgJzIwMCcsICctaW1hZScsICc8aW5maWxlLm1hZT4nLCAnLW9tYWUnLCAnPG91dGZpbGUubWFlPic=

>  <r_lp_tautomer_probability>  (27) 
1

>  <r_epik_Ionization_Penalty>  (27) 
4.28165e-07

>  <r_epik_Ionization_Penalty_Charging>  (27) 
0

>  <r_epik_Ionization_Penalty_Neutral>  (27) 
4.28165e-07

>  <r_epik_State_Penalty>  (27) 
-0

>  <r_epik_Charging_Adjusted_Penalty>  (27) 
0

>  <i_epik_Tot_Q>  (27) 
0

>  <i_epik_Tot_abs_Q>  (27) 
0

>  <s_lp_Force_Field>  (27) 
OPLS3e

>  <r_lp_Energy>  (27) 
93.1837

>  <b_lp_Chiralities_Consistent>  (27) 
1

>  <s_lp_Variant>  (27) 
7:0-1

>  <s_i_glide_gridfile>  (27) 
pfpi4k_grid

>  <i_i_glide_lignum>  (27) 
11

>  <i_i_glide_rotatable_bonds>  (27) 
1

>  <r_i_docking_score>  (27) 
-2.06037

>  <r_i_glide_ligand_efficiency>  (27) 
-0.0605991

>  <r_i_glide_ligand_efficiency_sa>  (27) 
-0.196318

>  <r_i_glide_ligand_efficiency_ln>  (27) 
-0.455194

>  <r_i_glide_gscore>  (27) 
-2.06037

>  <r_i_glide_lipo>  (27) 
-0.160328

>  <r_i_glide_hbond>  (27) 
0

>  <r_i_glide_metal>  (27) 
-0

>  <r_i_glide_rewards>  (27) 
-0.384855

>  <r_i_glide_evdw>  (27) 
-29.7991

>  <r_i_glide_ecoul>  (27) 
-0.100531

>  <r_i_glide_erotb>  (27) 
0

>  <r_i_glide_esite>  (27) 
-0.0101526

>  <r_i_glide_emodel>  (27) 
-33.7147

>  <r_i_glide_energy>  (27) 
-29.8996

>  <r_i_glide_einternal>  (27) 
0.0062388

>  <r_i_glide_intrahb_reward>  (27) 
-0

>  <i_i_glide_confnum>  (27) 
1

>  <i_i_glide_posenum>  (27) 
3

>  <r_i_glide_eff_state_penalty>  (27) 
0

>  <ligand_id>  (27) 
7

>  <original_smiles>  (27) 
CC1(C)CCC2(C)CCC3(C)C(CC(O)C4(C)C5CCC6CC(=O)C=CC6=C5CC(=O)C34)C2C1

>  <smiles>  (27) 
[H]OC1([H])C([H])([H])C2([H])C3([H])C([H])([H])C(C([H])([H])[H])(C([H])([H])[H])C([H])([H])C([H])([H])C3(C([H])([H])[H])C([H])([H])C([H])([H])C2(C([H])([H])[H])C2([H])C(=O)C([H])([H])C3=C4C([H])=C([H])C(=O)C([H])([H])C4([H])C([H])([H])C([H])([H])C3([H])C12C([H])([H])[H]

$$$$
8:0:0
     RDKit          3D

 14 15  0  0  1  0  0  0  0  0999 V2000
    3.1283   -0.6792   -3.5431 C   0  0  0  0  0  0  0  0  0  0  0  0
    2.6389   -1.9834   -3.7931 C   0  0  0  0  0  0  0  0  0  0  0  0
    3.1884   -3.0929   -3.3192 N   0  0  0  0  0  0  0  0  0  0  0  0
    4.2541   -2.9514   -2.5162 C   0  0  0  0  0  0  0  0  0  0  0  0
    5.0511   -3.8362   -1.8455 C   0  0  0  0  0  0  0  0  0  0  0  0
    6.0164   -3.0363   -1.1888 C   0  0  0  0  0  0  0  0  0  0  0  0
    5.8726   -1.7468   -1.4010 N   0  0  0  0  0  0  0  0  0  0  0  0
    4.7785   -1.6754   -2.2164 N   0  0  0  0  0  0  0  0  0  0  0  0
    4.2184   -0.5442   -2.7226 C   0  0  0  0  0  0  0  0  0  0  0  0
    2.6305    0.1993   -3.9446 H   0  0  0  0  0  0  0  0  0  0  0  0
    1.7392   -2.1127   -4.3797 H   0  0  0  0  0  0  0  0  0  0  0  0
    4.9530   -4.9125   -1.8368 H   0  0  0  0  0  0  0  0  0  0  0  0
    6.8279   -3.3825   -0.5617 H   0  0  0  0  0  0  0  0  0  0  0  0
    4.6505    0.4105   -2.4485 H   0  0  0  0  0  0  0  0  0  0  0  0
  1  9  2  0
  1  2  1  0
  1 10  1  0
  2  3  2  0
  2 11  1  0
  3  4  1  0
  4  8  1  0
  4  5  2  0
  5  6  1  0
  5 12  1  0
  6  7  2  0
  6 13  1  0
  7  8  1  0
  8  9  1  0
  9 14  1  0
M  END
>  <i_m_ct_stereo_status>  (28) 
1

>  <s_m_source_file>  (28) 
/var/tmp/pbs.5076255.sched01/tmpfev35gxg/05fxellcm.sdf

>  <i_m_source_file_index>  (28) 
12

>  <i_lp_mmshare_version>  (28) 
48012

>  <i_f3d_flags>  (28) 
0

>  <s_epik_input>  (28) 
bjFbY0hdW2NIXVtjSF1uKGMxMiluW2NIXVtjSF0y

>  <s_epik_cmdline>  (28) 
J2VwaWtfcHl0aG9uJywgJy1waHQnLCAnMi4wJywgJy1waCcsICc3LjAnLCAnLXRuJywgJzgnLCAnLW1hJywgJzIwMCcsICctaW1hZScsICc8aW5maWxlLm1hZT4nLCAnLW9tYWUnLCAnPG91dGZpbGUubWFlPic=

>  <r_lp_tautomer_probability>  (28) 
1

>  <r_epik_Ionization_Penalty>  (28) 
5.01424e-08

>  <r_epik_Ionization_Penalty_Charging>  (28) 
0

>  <r_epik_Ionization_Penalty_Neutral>  (28) 
5.01424e-08

>  <r_epik_State_Penalty>  (28) 
-0

>  <r_epik_Charging_Adjusted_Penalty>  (28) 
0

>  <i_epik_Tot_Q>  (28) 
0

>  <i_epik_Tot_abs_Q>  (28) 
0

>  <s_lp_Force_Field>  (28) 
OPLS3e

>  <r_lp_Energy>  (28) 
12.4622

>  <b_lp_Chiralities_Consistent>  (28) 
1

>  <s_lp_Variant>  (28) 
8:0-1

>  <s_i_glide_gridfile>  (28) 
pfpi4k_grid

>  <i_i_glide_lignum>  (28) 
12

>  <i_i_glide_rotatable_bonds>  (28) 
0

>  <r_i_docking_score>  (28) 
-4.0551

>  <r_i_glide_ligand_efficiency>  (28) 
-0.450566

>  <r_i_glide_ligand_efficiency_sa>  (28) 
-0.937216

>  <r_i_glide_ligand_efficiency_ln>  (28) 
-1.26832

>  <r_i_glide_gscore>  (28) 
-4.0551

>  <r_i_glide_lipo>  (28) 
-0.566882

>  <r_i_glide_hbond>  (28) 
-0.0664887

>  <r_i_glide_metal>  (28) 
-0

>  <r_i_glide_rewards>  (28) 
-2.25

>  <r_i_glide_evdw>  (28) 
-15.6262

>  <r_i_glide_ecoul>  (28) 
-2.42951

>  <r_i_glide_erotb>  (28) 
0

>  <r_i_glide_esite>  (28) 
-0.025987

>  <r_i_glide_emodel>  (28) 
-22.8961

>  <r_i_glide_energy>  (28) 
-18.0558

>  <r_i_glide_einternal>  (28) 
0

>  <r_i_glide_intrahb_reward>  (28) 
-0

>  <i_i_glide_confnum>  (28) 
1

>  <i_i_glide_posenum>  (28) 
6

>  <r_i_glide_eff_state_penalty>  (28) 
0

>  <ligand_id>  (28) 
8

>  <original_smiles>  (28) 
c1cnc2ccnn2c1

>  <smiles>  (28) 
[H]c1nc2c([H])c([H])nn2c([H])c1[H]

$$$$
8:0:1
     RDKit          3D

 14 15  0  0  1  0  0  0  0  0999 V2000
    6.8597   -2.5437   -1.1076 C   0  0  0  0  0  0  0  0  0  0  0  0
    5.9825   -1.7354   -0.3460 C   0  0  0  0  0  0  0  0  0  0  0  0
    4.7532   -1.4026   -0.7254 N   0  0  0  0  0  0  0  0  0  0  0  0
    4.3186   -1.9024   -1.8981 C   0  0  0  0  0  0  0  0  0  0  0  0
    3.1513   -1.7937   -2.5977 C   0  0  0  0  0  0  0  0  0  0  0  0
    3.3339   -2.5707   -3.7627 C   0  0  0  0  0  0  0  0  0  0  0  0
    4.5197   -3.1270   -3.8479 N   0  0  0  0  0  0  0  0  0  0  0  0
    5.1419   -2.7332   -2.6905 N   0  0  0  0  0  0  0  0  0  0  0  0
    6.4041   -3.0554   -2.3009 C   0  0  0  0  0  0  0  0  0  0  0  0
    7.8618   -2.7790   -0.7591 H   0  0  0  0  0  0  0  0  0  0  0  0
    6.3227   -1.3225    0.5995 H   0  0  0  0  0  0  0  0  0  0  0  0
    2.2648   -1.2506   -2.3053 H   0  0  0  0  0  0  0  0  0  0  0  0
    2.6156   -2.7307   -4.5541 H   0  0  0  0  0  0  0  0  0  0  0  0
    6.9884   -3.6884   -2.9575 H   0  0  0  0  0  0  0  0  0  0  0  0
  1  9  2  0
  1  2  1  0
  1 10  1  0
  2  3  2  0
  2 11  1  0
  3  4  1  0
  4  8  1  0
  4  5  2  0
  5  6  1  0
  5 12  1  0
  6  7  2  0
  6 13  1  0
  7  8  1  0
  8  9  1  0
  9 14  1  0
M  END
>  <i_m_ct_stereo_status>  (29) 
1

>  <s_m_source_file>  (29) 
/var/tmp/pbs.5076255.sched01/tmpfev35gxg/05fxellcm.sdf

>  <i_m_source_file_index>  (29) 
12

>  <i_lp_mmshare_version>  (29) 
48012

>  <i_f3d_flags>  (29) 
0

>  <s_epik_input>  (29) 
bjFbY0hdW2NIXVtjSF1uKGMxMiluW2NIXVtjSF0y

>  <s_epik_cmdline>  (29) 
J2VwaWtfcHl0aG9uJywgJy1waHQnLCAnMi4wJywgJy1waCcsICc3LjAnLCAnLXRuJywgJzgnLCAnLW1hJywgJzIwMCcsICctaW1hZScsICc8aW5maWxlLm1hZT4nLCAnLW9tYWUnLCAnPG91dGZpbGUubWFlPic=

>  <r_lp_tautomer_probability>  (29) 
1

>  <r_epik_Ionization_Penalty>  (29) 
5.01424e-08

>  <r_epik_Ionization_Penalty_Charging>  (29) 
0

>  <r_epik_Ionization_Penalty_Neutral>  (29) 
5.01424e-08

>  <r_epik_State_Penalty>  (29) 
-0

>  <r_epik_Charging_Adjusted_Penalty>  (29) 
0

>  <i_epik_Tot_Q>  (29) 
0

>  <i_epik_Tot_abs_Q>  (29) 
0

>  <s_lp_Force_Field>  (29) 
OPLS3e

>  <r_lp_Energy>  (29) 
12.4622

>  <b_lp_Chiralities_Consistent>  (29) 
1

>  <s_lp_Variant>  (29) 
8:0-1

>  <s_i_glide_gridfile>  (29) 
pfpi4k_grid

>  <i_i_glide_lignum>  (29) 
12

>  <i_i_glide_rotatable_bonds>  (29) 
0

>  <r_i_docking_score>  (29) 
-4.04928

>  <r_i_glide_ligand_efficiency>  (29) 
-0.44992

>  <r_i_glide_ligand_efficiency_sa>  (29) 
-0.935872

>  <r_i_glide_ligand_efficiency_ln>  (29) 
-1.2665

>  <r_i_glide_gscore>  (29) 
-4.04928

>  <r_i_glide_lipo>  (29) 
-0.246358

>  <r_i_glide_hbond>  (29) 
-0.0140903

>  <r_i_glide_metal>  (29) 
-0

>  <r_i_glide_rewards>  (29) 
-2.49649

>  <r_i_glide_evdw>  (29) 
-16.5251

>  <r_i_glide_ecoul>  (29) 
-2.94355

>  <r_i_glide_erotb>  (29) 
0

>  <r_i_glide_esite>  (29) 
-0.0245602

>  <r_i_glide_emodel>  (29) 
-24.3064

>  <r_i_glide_energy>  (29) 
-19.4687

>  <r_i_glide_einternal>  (29) 
0

>  <r_i_glide_intrahb_reward>  (29) 
-0

>  <i_i_glide_confnum>  (29) 
1

>  <i_i_glide_posenum>  (29) 
1

>  <r_i_glide_eff_state_penalty>  (29) 
0

>  <ligand_id>  (29) 
8

>  <original_smiles>  (29) 
c1cnc2ccnn2c1

>  <smiles>  (29) 
[H]c1nc2c([H])c([H])nn2c([H])c1[H]

$$$$
8:0:2
     RDKit          3D

 14 15  0  0  1  0  0  0  0  0999 V2000
   -0.4464   -9.0716    2.7990 C   0  0  0  0  0  0  0  0  0  0  0  0
   -0.4774   -7.8456    2.0961 C   0  0  0  0  0  0  0  0  0  0  0  0
   -0.2798   -6.6576    2.6585 N   0  0  0  0  0  0  0  0  0  0  0  0
   -0.0227   -6.6530    3.9820 C   0  0  0  0  0  0  0  0  0  0  0  0
    0.2216   -5.6528    4.8805 C   0  0  0  0  0  0  0  0  0  0  0  0
    0.4055   -6.3101    6.1225 C   0  0  0  0  0  0  0  0  0  0  0  0
    0.2786   -7.6145    6.0568 N   0  0  0  0  0  0  0  0  0  0  0  0
    0.0209   -7.8489    4.7328 N   0  0  0  0  0  0  0  0  0  0  0  0
   -0.1866   -9.0571    4.1493 C   0  0  0  0  0  0  0  0  0  0  0  0
   -0.6217  -10.0102    2.2819 H   0  0  0  0  0  0  0  0  0  0  0  0
   -0.6781   -7.8445    1.0294 H   0  0  0  0  0  0  0  0  0  0  0  0
    0.2776   -4.5938    4.6865 H   0  0  0  0  0  0  0  0  0  0  0  0
    0.6282   -5.8551    7.0764 H   0  0  0  0  0  0  0  0  0  0  0  0
   -0.1574   -9.9439    4.7775 H   0  0  0  0  0  0  0  0  0  0  0  0
  1  9  2  0
  1  2  1  0
  1 10  1  0
  2  3  2  0
  2 11  1  0
  3  4  1  0
  4  8  1  0
  4  5  2  0
  5  6  1  0
  5 12  1  0
  6  7  2  0
  6 13  1  0
  7  8  1  0
  8  9  1  0
  9 14  1  0
M  END
>  <i_m_ct_stereo_status>  (30) 
1

>  <s_m_source_file>  (30) 
/var/tmp/pbs.5076255.sched01/tmpfev35gxg/05fxellcm.sdf

>  <i_m_source_file_index>  (30) 
12

>  <i_lp_mmshare_version>  (30) 
48012

>  <i_f3d_flags>  (30) 
0

>  <s_epik_input>  (30) 
bjFbY0hdW2NIXVtjSF1uKGMxMiluW2NIXVtjSF0y

>  <s_epik_cmdline>  (30) 
J2VwaWtfcHl0aG9uJywgJy1waHQnLCAnMi4wJywgJy1waCcsICc3LjAnLCAnLXRuJywgJzgnLCAnLW1hJywgJzIwMCcsICctaW1hZScsICc8aW5maWxlLm1hZT4nLCAnLW9tYWUnLCAnPG91dGZpbGUubWFlPic=

>  <r_lp_tautomer_probability>  (30) 
1

>  <r_epik_Ionization_Penalty>  (30) 
5.01424e-08

>  <r_epik_Ionization_Penalty_Charging>  (30) 
0

>  <r_epik_Ionization_Penalty_Neutral>  (30) 
5.01424e-08

>  <r_epik_State_Penalty>  (30) 
-0

>  <r_epik_Charging_Adjusted_Penalty>  (30) 
0

>  <i_epik_Tot_Q>  (30) 
0

>  <i_epik_Tot_abs_Q>  (30) 
0

>  <s_lp_Force_Field>  (30) 
OPLS3e

>  <r_lp_Energy>  (30) 
12.4622

>  <b_lp_Chiralities_Consistent>  (30) 
1

>  <s_lp_Variant>  (30) 
8:0-1

>  <s_i_glide_gridfile>  (30) 
pfpi4k_grid

>  <i_i_glide_lignum>  (30) 
12

>  <i_i_glide_rotatable_bonds>  (30) 
0

>  <r_i_docking_score>  (30) 
-3.73499

>  <r_i_glide_ligand_efficiency>  (30) 
-0.414999

>  <r_i_glide_ligand_efficiency_sa>  (30) 
-0.863232

>  <r_i_glide_ligand_efficiency_ln>  (30) 
-1.1682

>  <r_i_glide_gscore>  (30) 
-3.73499

>  <r_i_glide_lipo>  (30) 
0

>  <r_i_glide_hbond>  (30) 
-0.16

>  <r_i_glide_metal>  (30) 
-0

>  <r_i_glide_rewards>  (30) 
-2.25

>  <r_i_glide_evdw>  (30) 
-10.8388

>  <r_i_glide_ecoul>  (30) 
-4.70672

>  <r_i_glide_erotb>  (30) 
0

>  <r_i_glide_esite>  (30) 
-0.0770376

>  <r_i_glide_emodel>  (30) 
-20.0085

>  <r_i_glide_energy>  (30) 
-15.5456

>  <r_i_glide_einternal>  (30) 
0

>  <r_i_glide_intrahb_reward>  (30) 
-0

>  <i_i_glide_confnum>  (30) 
1

>  <i_i_glide_posenum>  (30) 
2

>  <r_i_glide_eff_state_penalty>  (30) 
0

>  <ligand_id>  (30) 
8

>  <original_smiles>  (30) 
c1cnc2ccnn2c1

>  <smiles>  (30) 
[H]c1nc2c([H])c([H])nn2c([H])c1[H]

$$$$
9:0:0
     RDKit          3D

 65 68  0  0  1  0  0  0  0  0999 V2000
    1.7940   -1.0014    7.6844 C   0  0  0  0  0  0  0  0  0  0  0  0
    1.7726    0.5352    7.5347 C   0  0  0  0  0  0  0  0  0  0  0  0
    1.0403    1.1030    8.7768 C   0  0  0  0  0  0  0  0  0  0  0  0
    3.1949    1.1153    7.6614 C   0  0  0  0  0  0  0  0  0  0  0  0
    4.0701    0.8321    6.4535 C   0  0  0  0  0  0  0  0  0  0  0  0
    3.4609    1.2485    5.1003 C   0  0  2  0  0  0  0  0  0  0  0  0
    4.5102    0.6986    4.0947 C   0  0  0  0  0  0  0  0  0  0  0  0
    3.3313    2.7957    4.9341 C   0  0  0  0  0  0  0  0  0  0  0  0
    2.2789    3.0399    3.8309 C   0  0  2  0  0  0  0  0  0  0  0  0
    2.9972    3.4535    2.6839 O   0  0  0  0  0  0  0  0  0  0  0  0
    1.3432    4.2462    4.0462 C   0  0  0  0  0  0  0  0  0  0  0  0
    0.2583    4.2338    5.1528 C   0  0  1  0  0  0  0  0  0  0  0  0
   -0.1740    5.5822    5.2570 O   0  0  0  0  0  0  0  0  0  0  0  0
   -1.0208    3.3221    5.0210 C   0  0  2  0  0  0  0  0  0  0  0  0
   -1.1730    2.2660    6.1617 C   0  0  1  0  0  0  0  0  0  0  0  0
   -2.5224    2.0172    6.4948 O   0  0  0  0  0  0  0  0  0  0  0  0
   -0.4074    0.9104    6.1553 C   0  0  1  0  0  0  0  0  0  0  0  0
   -0.9537   -0.0999    5.3479 O   0  0  0  0  0  0  0  0  0  0  0  0
    1.1410    1.0303    6.1760 C   0  0  2  0  0  0  0  0  0  0  0  0
    1.9826    0.7405    4.8505 C   0  0  2  0  0  0  0  0  0  0  0  0
    1.9889   -0.7556    4.4181 C   0  0  0  0  0  0  0  0  0  0  0  0
    1.6243    1.6560    3.6111 C   0  0  1  0  0  0  0  0  0  0  0  0
    0.4539    1.4883    2.5918 C   0  0  0  0  0  0  0  0  0  0  0  0
   -1.0364    1.7013    2.8892 C   0  0  0  0  0  0  0  0  0  0  0  0
   -1.5182    2.9922    3.5828 C   0  0  1  0  0  0  0  0  0  0  0  0
   -3.0180    2.9064    3.5085 C   0  0  0  0  0  0  0  0  0  0  0  0
   -1.4121    4.1994    2.8996 O   0  0  0  0  0  0  0  0  0  0  0  0
    1.9324   -1.3010    8.7293 H   0  0  0  0  0  0  0  0  0  0  0  0
    2.6140   -1.4648    7.1409 H   0  0  0  0  0  0  0  0  0  0  0  0
    0.8663   -1.4539    7.3218 H   0  0  0  0  0  0  0  0  0  0  0  0
    0.8211    2.1625    8.6549 H   0  0  0  0  0  0  0  0  0  0  0  0
    1.6537    1.0063    9.6727 H   0  0  0  0  0  0  0  0  0  0  0  0
    0.1106    0.5806    9.0005 H   0  0  0  0  0  0  0  0  0  0  0  0
    3.1380    2.1946    7.7987 H   0  0  0  0  0  0  0  0  0  0  0  0
    3.6966    0.7241    8.5505 H   0  0  0  0  0  0  0  0  0  0  0  0
    5.0343    1.3331    6.5934 H   0  0  0  0  0  0  0  0  0  0  0  0
    4.2971   -0.2325    6.4233 H   0  0  0  0  0  0  0  0  0  0  0  0
    4.2808    0.9531    3.0696 H   0  0  0  0  0  0  0  0  0  0  0  0
    4.6260   -0.3866    4.1124 H   0  0  0  0  0  0  0  0  0  0  0  0
    5.4913    1.1199    4.3249 H   0  0  0  0  0  0  0  0  0  0  0  0
    2.9963    3.2667    5.8595 H   0  0  0  0  0  0  0  0  0  0  0  0
    4.2884    3.2779    4.7059 H   0  0  0  0  0  0  0  0  0  0  0  0
    3.8761    3.0507    2.6608 H   0  0  0  0  0  0  0  0  0  0  0  0
    2.0045    5.0812    4.2643 H   0  0  0  0  0  0  0  0  0  0  0  0
    0.9225    4.5267    3.0837 H   0  0  0  0  0  0  0  0  0  0  0  0
    0.7477    4.0714    6.1084 H   0  0  0  0  0  0  0  0  0  0  0  0
    0.5969    6.1347    5.2300 H   0  0  0  0  0  0  0  0  0  0  0  0
   -1.7854    4.0252    5.3521 H   0  0  0  0  0  0  0  0  0  0  0  0
   -0.8367    2.7807    7.0612 H   0  0  0  0  0  0  0  0  0  0  0  0
   -2.9445    1.7175    5.7062 H   0  0  0  0  0  0  0  0  0  0  0  0
   -0.6976    0.4731    7.0999 H   0  0  0  0  0  0  0  0  0  0  0  0
   -0.7195    0.0993    4.4498 H   0  0  0  0  0  0  0  0  0  0  0  0
    1.2510    2.0910    6.3188 H   0  0  0  0  0  0  0  0  0  0  0  0
    1.0150   -1.2372    4.4728 H   0  0  0  0  0  0  0  0  0  0  0  0
    2.6713   -1.3435    5.0275 H   0  0  0  0  0  0  0  0  0  0  0  0
    2.3383   -0.8872    3.3894 H   0  0  0  0  0  0  0  0  0  0  0  0
    2.3122    1.2485    2.8787 H   0  0  0  0  0  0  0  0  0  0  0  0
    0.6832    2.1559    1.7581 H   0  0  0  0  0  0  0  0  0  0  0  0
    0.5330    0.4879    2.1491 H   0  0  0  0  0  0  0  0  0  0  0  0
   -1.5117    1.6854    1.9038 H   0  0  0  0  0  0  0  0  0  0  0  0
   -1.4978    0.8011    3.2957 H   0  0  0  0  0  0  0  0  0  0  0  0
   -3.2979    2.0480    4.0789 H   0  0  0  0  0  0  0  0  0  0  0  0
   -3.4530    2.8318    2.5003 H   0  0  0  0  0  0  0  0  0  0  0  0
   -3.4481    3.7457    3.9966 H   0  0  0  0  0  0  0  0  0  0  0  0
   -0.8711    4.0407    2.1021 H   0  0  0  0  0  0  0  0  0  0  0  0
  1  2  1  0
  1 28  1  0
  1 29  1  0
  1 30  1  0
  2 19  1  0
  2  3  1  0
  2  4  1  0
  3 31  1  0
  3 32  1  0
  3 33  1  0
  4  5  1  0
  4 34  1  0
  4 35  1  0
  5  6  1  0
  5 36  1  0
  5 37  1  0
  6 20  1  0
  6  7  1  6
  6  8  1  0
  7 38  1  0
  7 39  1  0
  7 40  1  0
  8  9  1  0
  8 41  1  0
  8 42  1  0
  9 22  1  0
  9 10  1  6
  9 11  1  0
 10 43  1  0
 11 12  1  0
 11 44  1  0
 11 45  1  0
 12 13  1  0
 12 14  1  0
 12 46  1  1
 13 47  1  0
 14 25  1  0
 14 15  1  0
 14 48  1  1
 15 16  1  0
 15 17  1  0
 15 49  1  1
 16 50  1  0
 17 18  1  0
 17 19  1  0
 17 51  1  1
 18 52  1  0
 19 20  1  0
 19 53  1  1
 20 21  1  6
 20 22  1  0
 21 54  1  0
 21 55  1  0
 21 56  1  0
 22 23  1  0
 22 57  1  6
 23 24  1  0
 23 58  1  0
 23 59  1  0
 24 25  1  0
 24 60  1  0
 24 61  1  0
 25 26  1  0
 25 27  1  6
 26 62  1  0
 26 63  1  0
 26 64  1  0
 27 65  1  0
M  END
>  <i_m_ct_stereo_status>  (31) 
1

>  <s_m_source_file>  (31) 
/var/tmp/pbs.5076255.sched01/tmpfev35gxg/05fxellcm.sdf

>  <i_m_source_file_index>  (31) 
13

>  <i_lp_mmshare_version>  (31) 
48012

>  <i_f3d_flags>  (31) 
0

>  <s_epik_input>  (31) 
W0NIMl0xW0NIMl1DKFtDSDNdKShbQ0gzXSlbQ0BASF0oW0NAXTIoW0NIM10pW0NAXTEzW0NIM10pW0NASF0oW09IXSlbQ0BIXShbT0hdKVtDQEhdNFtDQEhdKFtPSF0pW0NIMl1bQ0BdKFtDSDJdMykoW09IXSlbQ0BASF0yW0NIMl1bQ0gyXVtDQF00KFtDSDNdKVtPSF0=

>  <s_epik_cmdline>  (31) 
J2VwaWtfcHl0aG9uJywgJy1waHQnLCAnMi4wJywgJy1waCcsICc3LjAnLCAnLXRuJywgJzgnLCAnLW1hJywgJzIwMCcsICctaW1hZScsICc8aW5maWxlLm1hZT4nLCAnLW9tYWUnLCAnPG91dGZpbGUubWFlPic=

>  <r_lp_tautomer_probability>  (31) 
1

>  <r_epik_Ionization_Penalty>  (31) 
5.11094e-06

>  <r_epik_Ionization_Penalty_Charging>  (31) 
0

>  <r_epik_Ionization_Penalty_Neutral>  (31) 
5.11094e-06

>  <r_epik_State_Penalty>  (31) 
-0

>  <r_epik_Charging_Adjusted_Penalty>  (31) 
0

>  <i_epik_Tot_Q>  (31) 
0

>  <i_epik_Tot_abs_Q>  (31) 
0

>  <s_lp_Force_Field>  (31) 
OPLS3e

>  <r_lp_Energy>  (31) 
109.488

>  <b_lp_Chiralities_Consistent>  (31) 
1

>  <s_lp_Variant>  (31) 
9:0-1

>  <s_i_glide_gridfile>  (31) 
pfpi4k_grid

>  <i_i_glide_lignum>  (31) 
13

>  <i_i_glide_rotatable_bonds>  (31) 
5

>  <r_i_docking_score>  (31) 
-3.77801

>  <r_i_glide_ligand_efficiency>  (31) 
-0.139926

>  <r_i_glide_ligand_efficiency_sa>  (31) 
-0.419779

>  <r_i_glide_ligand_efficiency_ln>  (31) 
-0.879458

>  <r_i_glide_gscore>  (31) 
-3.77801

>  <r_i_glide_lipo>  (31) 
-0.0241985

>  <r_i_glide_hbond>  (31) 
-0.304

>  <r_i_glide_metal>  (31) 
-0

>  <r_i_glide_rewards>  (31) 
-0.800904

>  <r_i_glide_evdw>  (31) 
-16.6957

>  <r_i_glide_ecoul>  (31) 
-12.0941

>  <r_i_glide_erotb>  (31) 
0

>  <r_i_glide_esite>  (31) 
0

>  <r_i_glide_emodel>  (31) 
-33.7735

>  <r_i_glide_energy>  (31) 
-28.7899

>  <r_i_glide_einternal>  (31) 
2.38548

>  <r_i_glide_intrahb_reward>  (31) 
-0

>  <i_i_glide_confnum>  (31) 
2

>  <i_i_glide_posenum>  (31) 
23

>  <r_i_glide_eff_state_penalty>  (31) 
0

>  <ligand_id>  (31) 
9

>  <original_smiles>  (31) 
CC1(C)CCC2(C)CC3(O)CC(O)C4C(O)C(O)C1C2(C)C3CCC4(C)O

>  <smiles>  (31) 
[H]OC1([H])C([H])([H])C2(O[H])C([H])([H])C3(C([H])([H])[H])C([H])([H])C([H])([H])C(C([H])([H])[H])(C([H])([H])[H])C4([H])C([H])(O[H])C([H])(O[H])C1([H])C(O[H])(C([H])([H])[H])C([H])([H])C([H])([H])C2([H])C43C([H])([H])[H]

$$$$
9:0:1
     RDKit          3D

 65 68  0  0  1  0  0  0  0  0999 V2000
    1.8135   -1.1836    8.0157 C   0  0  0  0  0  0  0  0  0  0  0  0
    1.7155    0.3617    8.0627 C   0  0  0  0  0  0  0  0  0  0  0  0
    0.7738    0.7247    9.2410 C   0  0  0  0  0  0  0  0  0  0  0  0
    3.0628    0.9875    8.4558 C   0  0  0  0  0  0  0  0  0  0  0  0
    4.1137    0.9098    7.3592 C   0  0  0  0  0  0  0  0  0  0  0  0
    3.6743    1.4768    5.9888 C   0  0  2  0  0  0  0  0  0  0  0  0
    4.8974    1.1549    5.0820 C   0  0  0  0  0  0  0  0  0  0  0  0
    3.4673    3.0183    5.9941 C   0  0  0  0  0  0  0  0  0  0  0  0
    2.5567    3.3524    4.7866 C   0  0  2  0  0  0  0  0  0  0  0  0
    3.3988    3.9075    3.7908 O   0  0  0  0  0  0  0  0  0  0  0  0
    1.5269    4.4768    5.0159 C   0  0  0  0  0  0  0  0  0  0  0  0
    0.2968    4.2617    5.9314 C   0  0  1  0  0  0  0  0  0  0  0  0
   -0.2097    5.5702    6.1535 O   0  0  0  0  0  0  0  0  0  0  0  0
   -0.9040    3.3318    5.4935 C   0  0  2  0  0  0  0  0  0  0  0  0
   -1.1313    2.1106    6.4657 C   0  0  1  0  0  0  0  0  0  0  0  0
   -2.4909    1.7481    6.6020 O   0  0  0  0  0  0  0  0  0  0  0  0
   -0.2756    0.8094    6.4266 C   0  0  1  0  0  0  0  0  0  0  0  0
   -0.6073   -0.1242    5.4348 O   0  0  0  0  0  0  0  0  0  0  0  0
    1.2472    1.0001    6.6958 C   0  0  2  0  0  0  0  0  0  0  0  0
    2.2758    0.9325    5.4689 C   0  0  2  0  0  0  0  0  0  0  0  0
    2.4465   -0.4978    4.8735 C   0  0  0  0  0  0  0  0  0  0  0  0
    2.0236    1.9825    4.3174 C   0  0  1  0  0  0  0  0  0  0  0  0
    1.0120    1.9026    3.1332 C   0  0  0  0  0  0  0  0  0  0  0  0
   -0.5194    1.9974    3.2207 C   0  0  0  0  0  0  0  0  0  0  0  0
   -1.2138    3.1604    3.9563 C   0  0  1  0  0  0  0  0  0  0  0  0
   -2.7202    2.9651    3.7133 C   0  0  0  0  0  0  0  0  0  0  0  0
   -0.9971    4.3828    3.2786 O   0  0  0  0  0  0  0  0  0  0  0  0
    1.8234   -1.6100    9.0219 H   0  0  0  0  0  0  0  0  0  0  0  0
    2.7310   -1.5320    7.5466 H   0  0  0  0  0  0  0  0  0  0  0  0
    0.9780   -1.6275    7.4727 H   0  0  0  0  0  0  0  0  0  0  0  0
    0.5030    1.7782    9.2221 H   0  0  0  0  0  0  0  0  0  0  0  0
    1.2605    0.5399   10.1997 H   0  0  0  0  0  0  0  0  0  0  0  0
   -0.1400    0.1348    9.2638 H   0  0  0  0  0  0  0  0  0  0  0  0
    2.9135    2.0335    8.7206 H   0  0  0  0  0  0  0  0  0  0  0  0
    3.4551    0.5110    9.3549 H   0  0  0  0  0  0  0  0  0  0  0  0
    5.0094    1.4265    7.7053 H   0  0  0  0  0  0  0  0  0  0  0  0
    4.4131   -0.1310    7.2370 H   0  0  0  0  0  0  0  0  0  0  0  0
    4.8350    1.5902    4.0885 H   0  0  0  0  0  0  0  0  0  0  0  0
    5.0723    0.0863    4.9537 H   0  0  0  0  0  0  0  0  0  0  0  0
    5.8072    1.5633    5.5216 H   0  0  0  0  0  0  0  0  0  0  0  0
    2.9791    3.3412    6.9102 H   0  0  0  0  0  0  0  0  0  0  0  0
    4.4080    3.5687    5.9667 H   0  0  0  0  0  0  0  0  0  0  0  0
    3.9377    3.2260    3.4026 H   0  0  0  0  0  0  0  0  0  0  0  0
    2.1009    5.3007    5.4426 H   0  0  0  0  0  0  0  0  0  0  0  0
    1.2125    4.8645    4.0510 H   0  0  0  0  0  0  0  0  0  0  0  0
    0.6466    3.9925    6.9244 H   0  0  0  0  0  0  0  0  0  0  0  0
    0.4991    6.1162    6.4494 H   0  0  0  0  0  0  0  0  0  0  0  0
   -1.7485    3.9523    5.8005 H   0  0  0  0  0  0  0  0  0  0  0  0
   -0.9483    2.5323    7.4535 H   0  0  0  0  0  0  0  0  0  0  0  0
   -3.0013    2.5386    6.6742 H   0  0  0  0  0  0  0  0  0  0  0  0
   -0.6664    0.2433    7.2604 H   0  0  0  0  0  0  0  0  0  0  0  0
   -0.3088    0.2145    4.6080 H   0  0  0  0  0  0  0  0  0  0  0  0
    1.2689    2.0351    6.9797 H   0  0  0  0  0  0  0  0  0  0  0  0
    1.5117   -1.0311    4.7228 H   0  0  0  0  0  0  0  0  0  0  0  0
    3.0743   -1.1304    5.4981 H   0  0  0  0  0  0  0  0  0  0  0  0
    2.9402   -0.4801    3.8990 H   0  0  0  0  0  0  0  0  0  0  0  0
    2.8320    1.6812    3.6588 H   0  0  0  0  0  0  0  0  0  0  0  0
    1.3108    2.6889    2.4379 H   0  0  0  0  0  0  0  0  0  0  0  0
    1.2166    0.9778    2.5882 H   0  0  0  0  0  0  0  0  0  0  0  0
   -0.8397    2.0733    2.1814 H   0  0  0  0  0  0  0  0  0  0  0  0
   -0.9673    1.0467    3.4774 H   0  0  0  0  0  0  0  0  0  0  0  0
   -3.0455    1.9945    4.0750 H   0  0  0  0  0  0  0  0  0  0  0  0
   -2.9777    3.0063    2.6527 H   0  0  0  0  0  0  0  0  0  0  0  0
   -3.3004    3.7310    4.2179 H   0  0  0  0  0  0  0  0  0  0  0  0
   -0.6428    4.2112    2.3951 H   0  0  0  0  0  0  0  0  0  0  0  0
  1  2  1  0
  1 28  1  0
  1 29  1  0
  1 30  1  0
  2 19  1  0
  2  3  1  0
  2  4  1  0
  3 31  1  0
  3 32  1  0
  3 33  1  0
  4  5  1  0
  4 34  1  0
  4 35  1  0
  5  6  1  0
  5 36  1  0
  5 37  1  0
  6 20  1  0
  6  7  1  6
  6  8  1  0
  7 38  1  0
  7 39  1  0
  7 40  1  0
  8  9  1  0
  8 41  1  0
  8 42  1  0
  9 22  1  0
  9 10  1  6
  9 11  1  0
 10 43  1  0
 11 12  1  0
 11 44  1  0
 11 45  1  0
 12 13  1  0
 12 14  1  0
 12 46  1  1
 13 47  1  0
 14 25  1  0
 14 15  1  0
 14 48  1  1
 15 16  1  0
 15 17  1  0
 15 49  1  1
 16 50  1  0
 17 18  1  0
 17 19  1  0
 17 51  1  1
 18 52  1  0
 19 20  1  0
 19 53  1  1
 20 21  1  6
 20 22  1  0
 21 54  1  0
 21 55  1  0
 21 56  1  0
 22 23  1  0
 22 57  1  6
 23 24  1  0
 23 58  1  0
 23 59  1  0
 24 25  1  0
 24 60  1  0
 24 61  1  0
 25 26  1  0
 25 27  1  6
 26 62  1  0
 26 63  1  0
 26 64  1  0
 27 65  1  0
M  END
>  <i_m_ct_stereo_status>  (32) 
1

>  <s_m_source_file>  (32) 
/var/tmp/pbs.5076255.sched01/tmpfev35gxg/05fxellcm.sdf

>  <i_m_source_file_index>  (32) 
13

>  <i_lp_mmshare_version>  (32) 
48012

>  <i_f3d_flags>  (32) 
0

>  <s_epik_input>  (32) 
W0NIMl0xW0NIMl1DKFtDSDNdKShbQ0gzXSlbQ0BASF0oW0NAXTIoW0NIM10pW0NAXTEzW0NIM10pW0NASF0oW09IXSlbQ0BIXShbT0hdKVtDQEhdNFtDQEhdKFtPSF0pW0NIMl1bQ0BdKFtDSDJdMykoW09IXSlbQ0BASF0yW0NIMl1bQ0gyXVtDQF00KFtDSDNdKVtPSF0=

>  <s_epik_cmdline>  (32) 
J2VwaWtfcHl0aG9uJywgJy1waHQnLCAnMi4wJywgJy1waCcsICc3LjAnLCAnLXRuJywgJzgnLCAnLW1hJywgJzIwMCcsICctaW1hZScsICc8aW5maWxlLm1hZT4nLCAnLW9tYWUnLCAnPG91dGZpbGUubWFlPic=

>  <r_lp_tautomer_probability>  (32) 
1

>  <r_epik_Ionization_Penalty>  (32) 
5.11094e-06

>  <r_epik_Ionization_Penalty_Charging>  (32) 
0

>  <r_epik_Ionization_Penalty_Neutral>  (32) 
5.11094e-06

>  <r_epik_State_Penalty>  (32) 
-0

>  <r_epik_Charging_Adjusted_Penalty>  (32) 
0

>  <i_epik_Tot_Q>  (32) 
0

>  <i_epik_Tot_abs_Q>  (32) 
0

>  <s_lp_Force_Field>  (32) 
OPLS3e

>  <r_lp_Energy>  (32) 
109.488

>  <b_lp_Chiralities_Consistent>  (32) 
1

>  <s_lp_Variant>  (32) 
9:0-1

>  <s_i_glide_gridfile>  (32) 
pfpi4k_grid

>  <i_i_glide_lignum>  (32) 
13

>  <i_i_glide_rotatable_bonds>  (32) 
5

>  <r_i_docking_score>  (32) 
-3.37712

>  <r_i_glide_ligand_efficiency>  (32) 
-0.125079

>  <r_i_glide_ligand_efficiency_sa>  (32) 
-0.375236

>  <r_i_glide_ligand_efficiency_ln>  (32) 
-0.786138

>  <r_i_glide_gscore>  (32) 
-3.37712

>  <r_i_glide_lipo>  (32) 
-0.0240728

>  <r_i_glide_hbond>  (32) 
-0.240728

>  <r_i_glide_metal>  (32) 
-0

>  <r_i_glide_rewards>  (32) 
-0.800904

>  <r_i_glide_evdw>  (32) 
-17.8901

>  <r_i_glide_ecoul>  (32) 
-9.44608

>  <r_i_glide_erotb>  (32) 
0

>  <r_i_glide_esite>  (32) 
0

>  <r_i_glide_emodel>  (32) 
-33.7439

>  <r_i_glide_energy>  (32) 
-27.3362

>  <r_i_glide_einternal>  (32) 
1.81087

>  <r_i_glide_intrahb_reward>  (32) 
-0

>  <i_i_glide_confnum>  (32) 
2

>  <i_i_glide_posenum>  (32) 
33

>  <r_i_glide_eff_state_penalty>  (32) 
0

>  <ligand_id>  (32) 
9

>  <original_smiles>  (32) 
CC1(C)CCC2(C)CC3(O)CC(O)C4C(O)C(O)C1C2(C)C3CCC4(C)O

>  <smiles>  (32) 
[H]OC1([H])C([H])([H])C2(O[H])C([H])([H])C3(C([H])([H])[H])C([H])([H])C([H])([H])C(C([H])([H])[H])(C([H])([H])[H])C4([H])C([H])(O[H])C([H])(O[H])C1([H])C(O[H])(C([H])([H])[H])C([H])([H])C([H])([H])C2([H])C43C([H])([H])[H]

$$$$
9:0:2
     RDKit          3D

 65 68  0  0  1  0  0  0  0  0999 V2000
    3.0382    6.6965    6.6430 C   0  0  0  0  0  0  0  0  0  0  0  0
    3.1253    5.5728    5.5849 C   0  0  0  0  0  0  0  0  0  0  0  0
    3.2769    6.2483    4.1930 C   0  0  0  0  0  0  0  0  0  0  0  0
    4.4304    4.7665    5.7456 C   0  0  0  0  0  0  0  0  0  0  0  0
    4.4417    3.8680    6.9736 C   0  0  0  0  0  0  0  0  0  0  0  0
    3.2442    2.8952    7.0820 C   0  0  2  0  0  0  0  0  0  0  0  0
    3.4872    2.1896    8.4550 C   0  0  0  0  0  0  0  0  0  0  0  0
    3.2285    1.8013    5.9764 C   0  0  0  0  0  0  0  0  0  0  0  0
    1.7760    1.2795    5.8951 C   0  0  2  0  0  0  0  0  0  0  0  0
    1.7657    0.0383    6.5882 O   0  0  0  0  0  0  0  0  0  0  0  0
    1.2712    0.9229    4.4768 C   0  0  0  0  0  0  0  0  0  0  0  0
    0.9706    2.0317    3.4350 C   0  0  1  0  0  0  0  0  0  0  0  0
    0.8435    1.3316    2.2075 O   0  0  0  0  0  0  0  0  0  0  0  0
   -0.2815    2.9791    3.5900 C   0  0  2  0  0  0  0  0  0  0  0  0
    0.0848    4.5013    3.7297 C   0  0  1  0  0  0  0  0  0  0  0  0
   -0.8979    5.3366    3.1485 O   0  0  0  0  0  0  0  0  0  0  0  0
    0.5945    5.1631    5.0475 C   0  0  1  0  0  0  0  0  0  0  0  0
   -0.3886    5.5029    5.9903 O   0  0  0  0  0  0  0  0  0  0  0  0
    1.9057    4.5640    5.6375 C   0  0  2  0  0  0  0  0  0  0  0  0
    1.8264    3.5963    6.9112 C   0  0  2  0  0  0  0  0  0  0  0  0
    1.4231    4.3242    8.2290 C   0  0  0  0  0  0  0  0  0  0  0  0
    0.9484    2.2983    6.7084 C   0  0  1  0  0  0  0  0  0  0  0  0
   -0.5995    2.1423    6.8068 C   0  0  0  0  0  0  0  0  0  0  0  0
   -1.6509    2.7139    5.8352 C   0  0  0  0  0  0  0  0  0  0  0  0
   -1.5730    2.4643    4.3198 C   0  0  1  0  0  0  0  0  0  0  0  0
   -2.8467    3.0663    3.6784 C   0  0  0  0  0  0  0  0  0  0  0  0
   -1.7813    1.0804    4.1046 O   0  0  0  0  0  0  0  0  0  0  0  0
    3.6908    7.5335    6.3836 H   0  0  0  0  0  0  0  0  0  0  0  0
    3.3575    6.3750    7.6328 H   0  0  0  0  0  0  0  0  0  0  0  0
    2.0229    7.0927    6.7315 H   0  0  0  0  0  0  0  0  0  0  0  0
    3.1523    5.5316    3.3813 H   0  0  0  0  0  0  0  0  0  0  0  0
    4.2654    6.6941    4.0784 H   0  0  0  0  0  0  0  0  0  0  0  0
    2.5737    7.0679    4.0356 H   0  0  0  0  0  0  0  0  0  0  0  0
    4.5896    4.1482    4.8651 H   0  0  0  0  0  0  0  0  0  0  0  0
    5.2861    5.4399    5.7914 H   0  0  0  0  0  0  0  0  0  0  0  0
    5.3772    3.2992    6.9683 H   0  0  0  0  0  0  0  0  0  0  0  0
    4.4890    4.4887    7.8678 H   0  0  0  0  0  0  0  0  0  0  0  0
    2.8198    1.3586    8.6695 H   0  0  0  0  0  0  0  0  0  0  0  0
    3.4280    2.8789    9.2977 H   0  0  0  0  0  0  0  0  0  0  0  0
    4.4904    1.7588    8.4859 H   0  0  0  0  0  0  0  0  0  0  0  0
    3.5242    2.2095    5.0103 H   0  0  0  0  0  0  0  0  0  0  0  0
    3.9547    1.0075    6.1782 H   0  0  0  0  0  0  0  0  0  0  0  0
    2.2868   -0.5780    6.0939 H   0  0  0  0  0  0  0  0  0  0  0  0
    2.0438    0.2905    4.0378 H   0  0  0  0  0  0  0  0  0  0  0  0
    0.4175    0.2599    4.5641 H   0  0  0  0  0  0  0  0  0  0  0  0
    1.8720    2.6160    3.2682 H   0  0  0  0  0  0  0  0  0  0  0  0
    0.6535    1.9602    1.5195 H   0  0  0  0  0  0  0  0  0  0  0  0
   -0.6375    2.9971    2.5576 H   0  0  0  0  0  0  0  0  0  0  0  0
    0.9034    4.6523    3.0305 H   0  0  0  0  0  0  0  0  0  0  0  0
   -0.7749    5.2309    2.2054 H   0  0  0  0  0  0  0  0  0  0  0  0
    0.8267    6.1723    4.7277 H   0  0  0  0  0  0  0  0  0  0  0  0
    0.0466    5.9259    6.7197 H   0  0  0  0  0  0  0  0  0  0  0  0
    2.2059    3.9040    4.8419 H   0  0  0  0  0  0  0  0  0  0  0  0
    0.5887    5.0097    8.1219 H   0  0  0  0  0  0  0  0  0  0  0  0
    2.2504    4.8894    8.6519 H   0  0  0  0  0  0  0  0  0  0  0  0
    1.1261    3.6220    9.0080 H   0  0  0  0  0  0  0  0  0  0  0  0
    1.0646    1.8836    7.7063 H   0  0  0  0  0  0  0  0  0  0  0  0
   -0.7898    1.0684    6.8502 H   0  0  0  0  0  0  0  0  0  0  0  0
   -0.8950    2.5072    7.7912 H   0  0  0  0  0  0  0  0  0  0  0  0
   -2.5872    2.2622    6.1609 H   0  0  0  0  0  0  0  0  0  0  0  0
   -1.8573    3.7526    6.0454 H   0  0  0  0  0  0  0  0  0  0  0  0
   -2.9478    4.1343    3.8887 H   0  0  0  0  0  0  0  0  0  0  0  0
   -3.7520    2.6023    4.0718 H   0  0  0  0  0  0  0  0  0  0  0  0
   -2.8596    2.9410    2.5925 H   0  0  0  0  0  0  0  0  0  0  0  0
   -2.3581    0.9717    3.3563 H   0  0  0  0  0  0  0  0  0  0  0  0
  1  2  1  0
  1 28  1  0
  1 29  1  0
  1 30  1  0
  2 19  1  0
  2  3  1  0
  2  4  1  0
  3 31  1  0
  3 32  1  0
  3 33  1  0
  4  5  1  0
  4 34  1  0
  4 35  1  0
  5  6  1  0
  5 36  1  0
  5 37  1  0
  6 20  1  0
  6  7  1  1
  6  8  1  0
  7 38  1  0
  7 39  1  0
  7 40  1  0
  8  9  1  0
  8 41  1  0
  8 42  1  0
  9 22  1  0
  9 10  1  1
  9 11  1  0
 10 43  1  0
 11 12  1  0
 11 44  1  0
 11 45  1  0
 12 13  1  0
 12 14  1  0
 12 46  1  6
 13 47  1  0
 14 25  1  0
 14 15  1  0
 14 48  1  6
 15 16  1  0
 15 17  1  0
 15 49  1  6
 16 50  1  0
 17 18  1  0
 17 19  1  0
 17 51  1  6
 18 52  1  0
 19 20  1  0
 19 53  1  6
 20 21  1  1
 20 22  1  0
 21 54  1  0
 21 55  1  0
 21 56  1  0
 22 23  1  0
 22 57  1  1
 23 24  1  0
 23 58  1  0
 23 59  1  0
 24 25  1  0
 24 60  1  0
 24 61  1  0
 25 26  1  0
 25 27  1  1
 26 62  1  0
 26 63  1  0
 26 64  1  0
 27 65  1  0
M  END
>  <i_m_ct_stereo_status>  (33) 
1

>  <s_m_source_file>  (33) 
/var/tmp/pbs.5076255.sched01/tmpfev35gxg/05fxellcm.sdf

>  <i_m_source_file_index>  (33) 
13

>  <i_lp_mmshare_version>  (33) 
48012

>  <i_f3d_flags>  (33) 
0

>  <s_epik_input>  (33) 
W0NIMl0xW0NIMl1DKFtDSDNdKShbQ0gzXSlbQ0BASF0oW0NAXTIoW0NIM10pW0NAXTEzW0NIM10pW0NASF0oW09IXSlbQ0BIXShbT0hdKVtDQEhdNFtDQEhdKFtPSF0pW0NIMl1bQ0BdKFtDSDJdMykoW09IXSlbQ0BASF0yW0NIMl1bQ0gyXVtDQF00KFtDSDNdKVtPSF0=

>  <s_epik_cmdline>  (33) 
J2VwaWtfcHl0aG9uJywgJy1waHQnLCAnMi4wJywgJy1waCcsICc3LjAnLCAnLXRuJywgJzgnLCAnLW1hJywgJzIwMCcsICctaW1hZScsICc8aW5maWxlLm1hZT4nLCAnLW9tYWUnLCAnPG91dGZpbGUubWFlPic=

>  <r_lp_tautomer_probability>  (33) 
1

>  <r_epik_Ionization_Penalty>  (33) 
5.11094e-06

>  <r_epik_Ionization_Penalty_Charging>  (33) 
0

>  <r_epik_Ionization_Penalty_Neutral>  (33) 
5.11094e-06

>  <r_epik_State_Penalty>  (33) 
-0

>  <r_epik_Charging_Adjusted_Penalty>  (33) 
0

>  <i_epik_Tot_Q>  (33) 
0

>  <i_epik_Tot_abs_Q>  (33) 
0

>  <s_lp_Force_Field>  (33) 
OPLS3e

>  <r_lp_Energy>  (33) 
109.488

>  <b_lp_Chiralities_Consistent>  (33) 
1

>  <s_lp_Variant>  (33) 
9:0-1

>  <s_i_glide_gridfile>  (33) 
pfpi4k_grid

>  <i_i_glide_lignum>  (33) 
13

>  <i_i_glide_rotatable_bonds>  (33) 
5

>  <r_i_docking_score>  (33) 
-3.34611

>  <r_i_glide_ligand_efficiency>  (33) 
-0.12393

>  <r_i_glide_ligand_efficiency_sa>  (33) 
-0.37179

>  <r_i_glide_ligand_efficiency_ln>  (33) 
-0.77892

>  <r_i_glide_gscore>  (33) 
-3.34611

>  <r_i_glide_lipo>  (33) 
-0.0525638

>  <r_i_glide_hbond>  (33) 
0

>  <r_i_glide_metal>  (33) 
-0

>  <r_i_glide_rewards>  (33) 
-0.800904

>  <r_i_glide_evdw>  (33) 
-18.5215

>  <r_i_glide_ecoul>  (33) 
-10.4438

>  <r_i_glide_erotb>  (33) 
0

>  <r_i_glide_esite>  (33) 
0

>  <r_i_glide_emodel>  (33) 
-34.985

>  <r_i_glide_energy>  (33) 
-28.9653

>  <r_i_glide_einternal>  (33) 
2.4243

>  <r_i_glide_intrahb_reward>  (33) 
-0

>  <i_i_glide_confnum>  (33) 
2

>  <i_i_glide_posenum>  (33) 
18

>  <r_i_glide_eff_state_penalty>  (33) 
0

>  <ligand_id>  (33) 
9

>  <original_smiles>  (33) 
CC1(C)CCC2(C)CC3(O)CC(O)C4C(O)C(O)C1C2(C)C3CCC4(C)O

>  <smiles>  (33) 
[H]OC1([H])C([H])([H])C2(O[H])C([H])([H])C3(C([H])([H])[H])C([H])([H])C([H])([H])C(C([H])([H])[H])(C([H])([H])[H])C4([H])C([H])(O[H])C([H])(O[H])C1([H])C(O[H])(C([H])([H])[H])C([H])([H])C([H])([H])C2([H])C43C([H])([H])[H]

$$$$
11:0:0
     RDKit          3D

 67 72  0  0  1  0  0  0  0  0999 V2000
    5.7279   -5.3171    0.7284 C   0  0  0  0  0  0  0  0  0  0  0  0
    5.4125   -6.5223    1.6434 C   0  0  2  0  0  0  0  0  0  0  0  0
    6.6237   -7.4650    1.7308 C   0  0  0  0  0  0  0  0  0  0  0  0
    7.7232   -7.1673    1.2763 O   0  0  0  0  0  0  0  0  0  0  0  0
    6.4117   -8.7879    2.4510 C   0  0  0  0  0  0  0  0  0  0  0  0
    5.1513   -9.4726    1.9154 C   0  0  0  0  0  0  0  0  0  0  0  0
    3.8651   -8.6106    2.0438 C   0  0  2  0  0  0  0  0  0  0  0  0
    2.7446   -9.4535    1.3846 C   0  0  0  0  0  0  0  0  0  0  0  0
    4.1002   -7.2815    1.2479 C   0  0  1  0  0  0  0  0  0  0  0  0
    2.8467   -6.3797    1.3626 C   0  0  0  0  0  0  0  0  0  0  0  0
    2.4761   -6.0686    2.8234 C   0  0  0  0  0  0  0  0  0  0  0  0
    2.2620   -7.3429    3.6749 C   0  0  1  0  0  0  0  0  0  0  0  0
    3.5110   -8.2615    3.5371 C   0  0  1  0  0  0  0  0  0  0  0  0
    3.3950   -9.4863    4.4654 C   0  0  0  0  0  0  0  0  0  0  0  0
    3.1922   -9.0526    5.9257 C   0  0  0  0  0  0  0  0  0  0  0  0
    1.9003   -8.2212    6.1534 C   0  0  2  0  0  0  0  0  0  0  0  0
    0.6903   -9.1235    5.7528 C   0  0  0  0  0  0  0  0  0  0  0  0
    1.9269   -7.0006    5.1681 C   0  0  2  0  0  0  0  0  0  0  0  0
    0.6105   -6.1960    5.3029 C   0  0  0  0  0  0  0  0  0  0  0  0
    0.1767   -5.9939    6.7396 C   0  0  0  0  0  0  0  0  0  0  0  0
    0.7020   -6.6174    7.8085 C   0  0  0  0  0  0  0  0  0  0  0  0
    0.3473   -6.0912    9.2011 C   0  0  0  0  0  0  0  0  0  0  0  0
    0.6454   -7.0204   10.3473 C   0  0  1  0  0  0  0  0  0  0  0  0
   -0.1832   -8.1753   10.3796 O   0  0  0  0  0  0  0  0  0  0  0  0
    1.2278   -8.3935   10.1370 C   0  0  1  0  0  0  0  0  0  0  0  0
    1.5944   -8.8698    8.7404 C   0  0  1  0  0  0  0  0  0  0  0  0
    0.6192   -9.8429    8.4768 O   0  0  0  0  0  0  0  0  0  0  0  0
    1.7922   -7.7046    7.6785 C   0  0  1  0  0  0  0  0  0  0  0  0
    3.1122   -6.9963    8.1199 C   0  0  0  0  0  0  0  0  0  0  0  0
    6.6464   -4.8166    1.0388 H   0  0  0  0  0  0  0  0  0  0  0  0
    4.9481   -4.5589    0.7588 H   0  0  0  0  0  0  0  0  0  0  0  0
    5.8538   -5.6253   -0.3104 H   0  0  0  0  0  0  0  0  0  0  0  0
    5.2922   -6.1305    2.6514 H   0  0  0  0  0  0  0  0  0  0  0  0
    7.2819   -9.4283    2.3093 H   0  0  0  0  0  0  0  0  0  0  0  0
    6.3231   -8.6072    3.5214 H   0  0  0  0  0  0  0  0  0  0  0  0
    5.3207   -9.6988    0.8588 H   0  0  0  0  0  0  0  0  0  0  0  0
    5.0247  -10.4519    2.3804 H   0  0  0  0  0  0  0  0  0  0  0  0
    1.7615   -8.9892    1.4225 H   0  0  0  0  0  0  0  0  0  0  0  0
    2.6516  -10.4309    1.8571 H   0  0  0  0  0  0  0  0  0  0  0  0
    2.9640   -9.6437    0.3336 H   0  0  0  0  0  0  0  0  0  0  0  0
    4.2126   -7.5383    0.1913 H   0  0  0  0  0  0  0  0  0  0  0  0
    2.9726   -5.4538    0.7998 H   0  0  0  0  0  0  0  0  0  0  0  0
    1.9983   -6.8675    0.8825 H   0  0  0  0  0  0  0  0  0  0  0  0
    3.2563   -5.4521    3.2705 H   0  0  0  0  0  0  0  0  0  0  0  0
    1.5721   -5.4616    2.8122 H   0  0  0  0  0  0  0  0  0  0  0  0
    1.4021   -7.8580    3.2523 H   0  0  0  0  0  0  0  0  0  0  0  0
    4.3479   -7.6860    3.9317 H   0  0  0  0  0  0  0  0  0  0  0  0
    2.5881  -10.1464    4.1465 H   0  0  0  0  0  0  0  0  0  0  0  0
    4.3094  -10.0778    4.4280 H   0  0  0  0  0  0  0  0  0  0  0  0
    3.1976   -9.9346    6.5661 H   0  0  0  0  0  0  0  0  0  0  0  0
    4.0752   -8.4730    6.1914 H   0  0  0  0  0  0  0  0  0  0  0  0
   -0.2468   -8.7834    6.1943 H   0  0  0  0  0  0  0  0  0  0  0  0
    0.8398  -10.1614    6.0527 H   0  0  0  0  0  0  0  0  0  0  0  0
    0.5205   -9.1743    4.6792 H   0  0  0  0  0  0  0  0  0  0  0  0
    2.7307   -6.3400    5.4838 H   0  0  0  0  0  0  0  0  0  0  0  0
    0.7492   -5.2000    4.8821 H   0  0  0  0  0  0  0  0  0  0  0  0
   -0.2081   -6.6642    4.7547 H   0  0  0  0  0  0  0  0  0  0  0  0
   -0.5661   -5.2200    6.8862 H   0  0  0  0  0  0  0  0  0  0  0  0
    0.9327   -5.1865    9.3643 H   0  0  0  0  0  0  0  0  0  0  0  0
   -0.7024   -5.7959    9.2431 H   0  0  0  0  0  0  0  0  0  0  0  0
    0.7544   -6.5540   11.3277 H   0  0  0  0  0  0  0  0  0  0  0  0
    1.7534   -8.8613   10.9700 H   0  0  0  0  0  0  0  0  0  0  0  0
    2.5395   -9.4127    8.8332 H   0  0  0  0  0  0  0  0  0  0  0  0
    1.0165  -10.6156    8.0691 H   0  0  0  0  0  0  0  0  0  0  0  0
    3.9580   -7.6832    8.1844 H   0  0  0  0  0  0  0  0  0  0  0  0
    3.0304   -6.5565    9.1155 H   0  0  0  0  0  0  0  0  0  0  0  0
    3.4001   -6.1741    7.4672 H   0  0  0  0  0  0  0  0  0  0  0  0
  1  2  1  0
  1 30  1  0
  1 31  1  0
  1 32  1  0
  2  9  1  0
  2  3  1  0
  2 33  1  1
  3  4  2  0
  3  5  1  0
  5  6  1  0
  5 34  1  0
  5 35  1  0
  6  7  1  0
  6 36  1  0
  6 37  1  0
  7 13  1  0
  7  8  1  6
  7  9  1  0
  8 38  1  0
  8 39  1  0
  8 40  1  0
  9 10  1  0
  9 41  1  6
 10 11  1  0
 10 42  1  0
 10 43  1  0
 11 12  1  0
 11 44  1  0
 11 45  1  0
 12 18  1  0
 12 13  1  0
 12 46  1  6
 13 14  1  0
 13 47  1  1
 14 15  1  0
 14 48  1  0
 14 49  1  0
 15 16  1  0
 15 50  1  0
 15 51  1  0
 16 28  1  0
 16 17  1  6
 16 18  1  0
 17 52  1  0
 17 53  1  0
 17 54  1  0
 18 19  1  0
 18 55  1  1
 19 20  1  0
 19 56  1  0
 19 57  1  0
 20 21  2  0
 20 58  1  0
 21 28  1  0
 21 22  1  0
 22 23  1  0
 22 59  1  0
 22 60  1  0
 23 25  1  0
 23 24  1  0
 23 61  1  1
 24 25  1  0
 25 26  1  0
 25 62  1  1
 26 27  1  0
 26 28  1  0
 26 63  1  1
 27 64  1  0
 28 29  1  1
 29 65  1  0
 29 66  1  0
 29 67  1  0
M  END
>  <i_m_ct_stereo_status>  (34) 
1

>  <s_m_source_file>  (34) 
/var/tmp/pbs.5076255.sched01/tmpfev35gxg/05fxellcm.sdf

>  <i_m_source_file_index>  (34) 
15

>  <i_lp_mmshare_version>  (34) 
48012

>  <i_f3d_flags>  (34) 
0

>  <s_epik_input>  (34) 
W0NIMl0xW0NIMl1DKD1PKVtDQEBIXShbQ0gzXSlbQ0BASF0oW0NAQF0xMltDSDNdKVtDSDJdW0NIMl1bQ0BIXTNbQ0BIXTJbQ0gyXVtDSDJdW0NAXTQoW0NIM10pW0NAQEhdM1tDSDJdW0NIXT1DNVtDQEBdNChbQ0gzXSlbQ0BIXShbT0hdKVtDQEhdNltDQEhdKE82KVtDSDJdNQ==

>  <s_epik_cmdline>  (34) 
J2VwaWtfcHl0aG9uJywgJy1waHQnLCAnMi4wJywgJy1waCcsICc3LjAnLCAnLXRuJywgJzgnLCAnLW1hJywgJzIwMCcsICctaW1hZScsICc8aW5maWxlLm1hZT4nLCAnLW9tYWUnLCAnPG91dGZpbGUubWFlPic=

>  <r_lp_tautomer_probability>  (34) 
1

>  <r_epik_Ionization_Penalty>  (34) 
7.98535e-08

>  <r_epik_Ionization_Penalty_Charging>  (34) 
0

>  <r_epik_Ionization_Penalty_Neutral>  (34) 
7.98535e-08

>  <r_epik_State_Penalty>  (34) 
-0

>  <r_epik_Charging_Adjusted_Penalty>  (34) 
0

>  <i_epik_Tot_Q>  (34) 
0

>  <i_epik_Tot_abs_Q>  (34) 
0

>  <s_lp_Force_Field>  (34) 
OPLS3e

>  <r_lp_Energy>  (34) 
63.2954

>  <b_lp_Chiralities_Consistent>  (34) 
1

>  <s_lp_Variant>  (34) 
11:0-1

>  <s_i_glide_gridfile>  (34) 
pfpi4k_grid

>  <i_i_glide_lignum>  (34) 
15

>  <i_i_glide_rotatable_bonds>  (34) 
1

>  <r_i_docking_score>  (34) 
-3.50446

>  <r_i_glide_ligand_efficiency>  (34) 
-0.120843

>  <r_i_glide_ligand_efficiency_sa>  (34) 
-0.371269

>  <r_i_glide_ligand_efficiency_ln>  (34) 
-0.802432

>  <r_i_glide_gscore>  (34) 
-3.50446

>  <r_i_glide_lipo>  (34) 
-0.317782

>  <r_i_glide_hbond>  (34) 
-0.251348

>  <r_i_glide_metal>  (34) 
-0

>  <r_i_glide_rewards>  (34) 
-0.800575

>  <r_i_glide_evdw>  (34) 
-24.2939

>  <r_i_glide_ecoul>  (34) 
-6.13373

>  <r_i_glide_erotb>  (34) 
0

>  <r_i_glide_esite>  (34) 
0

>  <r_i_glide_emodel>  (34) 
-36.7477

>  <r_i_glide_energy>  (34) 
-30.4276

>  <r_i_glide_einternal>  (34) 
1.08923

>  <r_i_glide_intrahb_reward>  (34) 
-0

>  <i_i_glide_confnum>  (34) 
1

>  <i_i_glide_posenum>  (34) 
6

>  <r_i_glide_eff_state_penalty>  (34) 
0

>  <ligand_id>  (34) 
11

>  <original_smiles>  (34) 
CC1C(=O)CCC2(C)C1CCC1C2CCC2(C)C1CC=C1CC3OC3C(O)C12C

>  <smiles>  (34) 
[H]OC1([H])C2([H])OC2([H])C([H])([H])C2=C([H])C([H])([H])C3([H])C4([H])C([H])([H])C([H])([H])C5([H])C([H])(C([H])([H])[H])C(=O)C([H])([H])C([H])([H])C5(C([H])([H])[H])C4([H])C([H])([H])C([H])([H])C3(C([H])([H])[H])C21C([H])([H])[H]

$$$$
11:0:1
     RDKit          3D

 67 72  0  0  1  0  0  0  0  0999 V2000
   -1.6026   -7.3215    3.6117 C   0  0  0  0  0  0  0  0  0  0  0  0
   -0.1591   -7.8382    3.4408 C   0  0  2  0  0  0  0  0  0  0  0  0
   -0.1779   -9.2739    2.8969 C   0  0  0  0  0  0  0  0  0  0  0  0
   -1.2044   -9.7971    2.4745 O   0  0  0  0  0  0  0  0  0  0  0  0
    1.1544  -10.0048    2.8532 C   0  0  0  0  0  0  0  0  0  0  0  0
    1.8704   -9.8738    4.2001 C   0  0  0  0  0  0  0  0  0  0  0  0
    2.1061   -8.3996    4.6429 C   0  0  2  0  0  0  0  0  0  0  0  0
    2.7549   -8.5002    6.0489 C   0  0  0  0  0  0  0  0  0  0  0  0
    0.7054   -7.6994    4.7361 C   0  0  1  0  0  0  0  0  0  0  0  0
    0.8916   -6.2199    5.1564 C   0  0  0  0  0  0  0  0  0  0  0  0
    1.8166   -5.4464    4.2001 C   0  0  0  0  0  0  0  0  0  0  0  0
    3.2069   -6.1053    4.0376 C   0  0  1  0  0  0  0  0  0  0  0  0
    3.0185   -7.5992    3.6382 C   0  0  1  0  0  0  0  0  0  0  0  0
    4.3784   -8.2626    3.3455 C   0  0  0  0  0  0  0  0  0  0  0  0
    5.1422   -7.4966    2.2547 C   0  0  0  0  0  0  0  0  0  0  0  0
    5.4638   -6.0248    2.6373 C   0  0  2  0  0  0  0  0  0  0  0  0
    6.3577   -6.0646    3.9154 C   0  0  0  0  0  0  0  0  0  0  0  0
    4.1152   -5.3213    3.0251 C   0  0  2  0  0  0  0  0  0  0  0  0
    4.4057   -3.8753    3.4981 C   0  0  0  0  0  0  0  0  0  0  0  0
    5.4050   -3.1483    2.6255 C   0  0  0  0  0  0  0  0  0  0  0  0
    6.1778   -3.7159    1.6790 C   0  0  0  0  0  0  0  0  0  0  0  0
    6.9244   -2.8030    0.7050 C   0  0  0  0  0  0  0  0  0  0  0  0
    8.0475   -3.4462   -0.0698 C   0  0  1  0  0  0  0  0  0  0  0  0
    9.1579   -3.8116    0.7331 O   0  0  0  0  0  0  0  0  0  0  0  0
    8.4365   -4.8937    0.1260 C   0  0  1  0  0  0  0  0  0  0  0  0
    7.6354   -5.7796    1.0686 C   0  0  1  0  0  0  0  0  0  0  0  0
    8.5434   -6.0458    2.1222 O   0  0  0  0  0  0  0  0  0  0  0  0
    6.1800   -5.2400    1.4204 C   0  0  1  0  0  0  0  0  0  0  0  0
    5.3568   -5.4032    0.1058 C   0  0  0  0  0  0  0  0  0  0  0  0
   -2.1726   -7.4301    2.6865 H   0  0  0  0  0  0  0  0  0  0  0  0
   -1.6286   -6.2674    3.8682 H   0  0  0  0  0  0  0  0  0  0  0  0
   -2.1406   -7.8744    4.3840 H   0  0  0  0  0  0  0  0  0  0  0  0
    0.3038   -7.2542    2.6508 H   0  0  0  0  0  0  0  0  0  0  0  0
    0.9898  -11.0557    2.6115 H   0  0  0  0  0  0  0  0  0  0  0  0
    1.7617   -9.5868    2.0516 H   0  0  0  0  0  0  0  0  0  0  0  0
    1.2526  -10.3730    4.9509 H   0  0  0  0  0  0  0  0  0  0  0  0
    2.8029  -10.4421    4.1873 H   0  0  0  0  0  0  0  0  0  0  0  0
    3.0146   -7.5339    6.4800 H   0  0  0  0  0  0  0  0  0  0  0  0
    3.6727   -9.0902    6.0201 H   0  0  0  0  0  0  0  0  0  0  0  0
    2.0861   -8.9943    6.7580 H   0  0  0  0  0  0  0  0  0  0  0  0
    0.1408   -8.1888    5.5329 H   0  0  0  0  0  0  0  0  0  0  0  0
   -0.0650   -5.7074    5.2479 H   0  0  0  0  0  0  0  0  0  0  0  0
    1.3078   -6.1755    6.1622 H   0  0  0  0  0  0  0  0  0  0  0  0
    1.3378   -5.3476    3.2249 H   0  0  0  0  0  0  0  0  0  0  0  0
    1.9212   -4.4349    4.5936 H   0  0  0  0  0  0  0  0  0  0  0  0
    3.6836   -6.0605    5.0138 H   0  0  0  0  0  0  0  0  0  0  0  0
    2.4973   -7.5881    2.6828 H   0  0  0  0  0  0  0  0  0  0  0  0
    4.9763   -8.3443    4.2543 H   0  0  0  0  0  0  0  0  0  0  0  0
    4.2292   -9.2794    2.9818 H   0  0  0  0  0  0  0  0  0  0  0  0
    6.0594   -8.0331    2.0150 H   0  0  0  0  0  0  0  0  0  0  0  0
    4.5170   -7.5371    1.3646 H   0  0  0  0  0  0  0  0  0  0  0  0
    6.9114   -5.1361    4.0587 H   0  0  0  0  0  0  0  0  0  0  0  0
    7.0801   -6.8792    3.8782 H   0  0  0  0  0  0  0  0  0  0  0  0
    5.7979   -6.2308    4.8342 H   0  0  0  0  0  0  0  0  0  0  0  0
    3.5124   -5.2386    2.1241 H   0  0  0  0  0  0  0  0  0  0  0  0
    3.4838   -3.2925    3.4680 H   0  0  0  0  0  0  0  0  0  0  0  0
    4.7655   -3.8516    4.5275 H   0  0  0  0  0  0  0  0  0  0  0  0
    5.4201   -2.0725    2.7487 H   0  0  0  0  0  0  0  0  0  0  0  0
    6.1993   -2.4253   -0.0164 H   0  0  0  0  0  0  0  0  0  0  0  0
    7.3208   -1.9338    1.2323 H   0  0  0  0  0  0  0  0  0  0  0  0
    8.3336   -2.9556   -0.9972 H   0  0  0  0  0  0  0  0  0  0  0  0
    8.9818   -5.3904   -0.6773 H   0  0  0  0  0  0  0  0  0  0  0  0
    7.5104   -6.7436    0.5725 H   0  0  0  0  0  0  0  0  0  0  0  0
    9.2460   -6.6096    1.8105 H   0  0  0  0  0  0  0  0  0  0  0  0
    5.3548   -6.4299   -0.2637 H   0  0  0  0  0  0  0  0  0  0  0  0
    5.7642   -4.8069   -0.7112 H   0  0  0  0  0  0  0  0  0  0  0  0
    4.3213   -5.0898    0.1997 H   0  0  0  0  0  0  0  0  0  0  0  0
  1  2  1  0
  1 30  1  0
  1 31  1  0
  1 32  1  0
  2  9  1  0
  2  3  1  0
  2 33  1  6
  3  4  2  0
  3  5  1  0
  5  6  1  0
  5 34  1  0
  5 35  1  0
  6  7  1  0
  6 36  1  0
  6 37  1  0
  7 13  1  0
  7  8  1  1
  7  9  1  0
  8 38  1  0
  8 39  1  0
  8 40  1  0
  9 10  1  0
  9 41  1  1
 10 11  1  0
 10 42  1  0
 10 43  1  0
 11 12  1  0
 11 44  1  0
 11 45  1  0
 12 18  1  0
 12 13  1  0
 12 46  1  1
 13 14  1  0
 13 47  1  6
 14 15  1  0
 14 48  1  0
 14 49  1  0
 15 16  1  0
 15 50  1  0
 15 51  1  0
 16 28  1  0
 16 17  1  1
 16 18  1  0
 17 52  1  0
 17 53  1  0
 17 54  1  0
 18 19  1  0
 18 55  1  6
 19 20  1  0
 19 56  1  0
 19 57  1  0
 20 21  2  0
 20 58  1  0
 21 28  1  0
 21 22  1  0
 22 23  1  0
 22 59  1  0
 22 60  1  0
 23 25  1  0
 23 24  1  0
 23 61  1  6
 24 25  1  0
 25 26  1  0
 25 62  1  6
 26 27  1  0
 26 28  1  0
 26 63  1  6
 27 64  1  0
 28 29  1  6
 29 65  1  0
 29 66  1  0
 29 67  1  0
M  END
>  <i_m_ct_stereo_status>  (35) 
1

>  <s_m_source_file>  (35) 
/var/tmp/pbs.5076255.sched01/tmpfev35gxg/05fxellcm.sdf

>  <i_m_source_file_index>  (35) 
15

>  <i_lp_mmshare_version>  (35) 
48012

>  <i_f3d_flags>  (35) 
0

>  <s_epik_input>  (35) 
W0NIMl0xW0NIMl1DKD1PKVtDQEBIXShbQ0gzXSlbQ0BASF0oW0NAQF0xMltDSDNdKVtDSDJdW0NIMl1bQ0BIXTNbQ0BIXTJbQ0gyXVtDSDJdW0NAXTQoW0NIM10pW0NAQEhdM1tDSDJdW0NIXT1DNVtDQEBdNChbQ0gzXSlbQ0BIXShbT0hdKVtDQEhdNltDQEhdKE82KVtDSDJdNQ==

>  <s_epik_cmdline>  (35) 
J2VwaWtfcHl0aG9uJywgJy1waHQnLCAnMi4wJywgJy1waCcsICc3LjAnLCAnLXRuJywgJzgnLCAnLW1hJywgJzIwMCcsICctaW1hZScsICc8aW5maWxlLm1hZT4nLCAnLW9tYWUnLCAnPG91dGZpbGUubWFlPic=

>  <r_lp_tautomer_probability>  (35) 
1

>  <r_epik_Ionization_Penalty>  (35) 
7.98535e-08

>  <r_epik_Ionization_Penalty_Charging>  (35) 
0

>  <r_epik_Ionization_Penalty_Neutral>  (35) 
7.98535e-08

>  <r_epik_State_Penalty>  (35) 
-0

>  <r_epik_Charging_Adjusted_Penalty>  (35) 
0

>  <i_epik_Tot_Q>  (35) 
0

>  <i_epik_Tot_abs_Q>  (35) 
0

>  <s_lp_Force_Field>  (35) 
OPLS3e

>  <r_lp_Energy>  (35) 
63.2954

>  <b_lp_Chiralities_Consistent>  (35) 
1

>  <s_lp_Variant>  (35) 
11:0-1

>  <s_i_glide_gridfile>  (35) 
pfpi4k_grid

>  <i_i_glide_lignum>  (35) 
15

>  <i_i_glide_rotatable_bonds>  (35) 
1

>  <r_i_docking_score>  (35) 
-3.17045

>  <r_i_glide_ligand_efficiency>  (35) 
-0.109326

>  <r_i_glide_ligand_efficiency_sa>  (35) 
-0.335883

>  <r_i_glide_ligand_efficiency_ln>  (35) 
-0.725952

>  <r_i_glide_gscore>  (35) 
-3.17045

>  <r_i_glide_lipo>  (35) 
-0.767419

>  <r_i_glide_hbond>  (35) 
-0.0459269

>  <r_i_glide_metal>  (35) 
-0

>  <r_i_glide_rewards>  (35) 
-0.691513

>  <r_i_glide_evdw>  (35) 
-28.5601

>  <r_i_glide_ecoul>  (35) 
-1.40668

>  <r_i_glide_erotb>  (35) 
0

>  <r_i_glide_esite>  (35) 
-0.0265814

>  <r_i_glide_emodel>  (35) 
-36.1296

>  <r_i_glide_energy>  (35) 
-29.9668

>  <r_i_glide_einternal>  (35) 
0.532559

>  <r_i_glide_intrahb_reward>  (35) 
-0

>  <i_i_glide_confnum>  (35) 
2

>  <i_i_glide_posenum>  (35) 
1

>  <r_i_glide_eff_state_penalty>  (35) 
0

>  <ligand_id>  (35) 
11

>  <original_smiles>  (35) 
CC1C(=O)CCC2(C)C1CCC1C2CCC2(C)C1CC=C1CC3OC3C(O)C12C

>  <smiles>  (35) 
[H]OC1([H])C2([H])OC2([H])C([H])([H])C2=C([H])C([H])([H])C3([H])C4([H])C([H])([H])C([H])([H])C5([H])C([H])(C([H])([H])[H])C(=O)C([H])([H])C([H])([H])C5(C([H])([H])[H])C4([H])C([H])([H])C([H])([H])C3(C([H])([H])[H])C21C([H])([H])[H]

$$$$
11:0:2
     RDKit          3D

 67 72  0  0  1  0  0  0  0  0999 V2000
   -1.9491   -7.6476    4.0560 C   0  0  0  0  0  0  0  0  0  0  0  0
   -0.5205   -7.7638    3.5272 C   0  0  2  0  0  0  0  0  0  0  0  0
   -0.3668   -9.0758    2.7626 C   0  0  0  0  0  0  0  0  0  0  0  0
   -1.3376   -9.7687    2.4482 O   0  0  0  0  0  0  0  0  0  0  0  0
    1.0288   -9.4389    2.3087 C   0  0  0  0  0  0  0  0  0  0  0  0
    2.0118   -9.3200    3.4665 C   0  0  0  0  0  0  0  0  0  0  0  0
    2.0182   -7.9088    4.1164 C   0  0  2  0  0  0  0  0  0  0  0  0
    3.0029   -8.0364    5.3116 C   0  0  0  0  0  0  0  0  0  0  0  0
    0.5708   -7.6030    4.6258 C   0  0  1  0  0  0  0  0  0  0  0  0
    0.5311   -6.2006    5.2771 C   0  0  0  0  0  0  0  0  0  0  0  0
    1.0043   -5.0986    4.3168 C   0  0  0  0  0  0  0  0  0  0  0  0
    2.4162   -5.3584    3.7465 C   0  0  1  0  0  0  0  0  0  0  0  0
    2.4605   -6.7808    3.1171 C   0  0  1  0  0  0  0  0  0  0  0  0
    3.8135   -7.0317    2.4243 C   0  0  0  0  0  0  0  0  0  0  0  0
    4.1006   -5.9551    1.3653 C   0  0  0  0  0  0  0  0  0  0  0  0
    4.1753   -4.5188    1.9531 C   0  0  2  0  0  0  0  0  0  0  0  0
    5.3494   -4.4986    2.9834 C   0  0  0  0  0  0  0  0  0  0  0  0
    2.8525   -4.2390    2.7386 C   0  0  2  0  0  0  0  0  0  0  0  0
    2.9370   -2.8447    3.4157 C   0  0  0  0  0  0  0  0  0  0  0  0
    3.5179   -1.7767    2.5136 C   0  0  0  0  0  0  0  0  0  0  0  0
    4.1266   -1.9955    1.3415 C   0  0  0  0  0  0  0  0  0  0  0  0
    4.3765   -0.8063    0.4297 C   0  0  0  0  0  0  0  0  0  0  0  0
    5.3596   -1.0598   -0.6758 C   0  0  1  0  0  0  0  0  0  0  0  0
    6.6605   -1.2670   -0.1794 O   0  0  0  0  0  0  0  0  0  0  0  0
    6.0711   -2.3798   -0.8583 C   0  0  1  0  0  0  0  0  0  0  0  0
    5.7673   -3.5526    0.0463 C   0  0  1  0  0  0  0  0  0  0  0  0
    6.9456   -3.6611    0.8202 O   0  0  0  0  0  0  0  0  0  0  0  0
    4.3821   -3.4266    0.7902 C   0  0  1  0  0  0  0  0  0  0  0  0
    3.3268   -3.6056   -0.3367 C   0  0  0  0  0  0  0  0  0  0  0  0
   -2.6882   -7.7881    3.2735 H   0  0  0  0  0  0  0  0  0  0  0  0
   -2.1596   -6.6773    4.5127 H   0  0  0  0  0  0  0  0  0  0  0  0
   -2.1476   -8.4223    4.8074 H   0  0  0  0  0  0  0  0  0  0  0  0
   -0.3954   -6.9896    2.7746 H   0  0  0  0  0  0  0  0  0  0  0  0
    1.0267  -10.4497    1.9135 H   0  0  0  0  0  0  0  0  0  0  0  0
    1.3157   -8.7791    1.4938 H   0  0  0  0  0  0  0  0  0  0  0  0
    1.7159  -10.0564    4.2137 H   0  0  0  0  0  0  0  0  0  0  0  0
    3.0097   -9.6299    3.1425 H   0  0  0  0  0  0  0  0  0  0  0  0
    3.1457   -7.1056    5.8559 H   0  0  0  0  0  0  0  0  0  0  0  0
    3.9877   -8.3662    4.9776 H   0  0  0  0  0  0  0  0  0  0  0  0
    2.6483   -8.7767    6.0310 H   0  0  0  0  0  0  0  0  0  0  0  0
    0.3324   -8.3293    5.4060 H   0  0  0  0  0  0  0  0  0  0  0  0
   -0.4616   -5.9713    5.6583 H   0  0  0  0  0  0  0  0  0  0  0  0
    1.1591   -6.1962    6.1645 H   0  0  0  0  0  0  0  0  0  0  0  0
    0.2913   -4.9953    3.5016 H   0  0  0  0  0  0  0  0  0  0  0  0
    0.9829   -4.1573    4.8682 H   0  0  0  0  0  0  0  0  0  0  0  0
    3.0979   -5.3239    4.5874 H   0  0  0  0  0  0  0  0  0  0  0  0
    1.7363   -6.7730    2.3111 H   0  0  0  0  0  0  0  0  0  0  0  0
    4.6192   -7.0793    3.1514 H   0  0  0  0  0  0  0  0  0  0  0  0
    3.8009   -7.9937    1.9070 H   0  0  0  0  0  0  0  0  0  0  0  0
    5.0249   -6.2025    0.8413 H   0  0  0  0  0  0  0  0  0  0  0  0
    3.3027   -6.0295    0.6348 H   0  0  0  0  0  0  0  0  0  0  0  0
    5.7089   -3.4907    3.1865 H   0  0  0  0  0  0  0  0  0  0  0  0
    6.1993   -5.0926    2.6423 H   0  0  0  0  0  0  0  0  0  0  0  0
    5.0856   -4.9285    3.9502 H   0  0  0  0  0  0  0  0  0  0  0  0
    2.0470   -4.1819    2.0129 H   0  0  0  0  0  0  0  0  0  0  0  0
    1.9367   -2.5125    3.6764 H   0  0  0  0  0  0  0  0  0  0  0  0
    3.5224   -2.8759    4.3342 H   0  0  0  0  0  0  0  0  0  0  0  0
    3.3305   -0.7563    2.8371 H   0  0  0  0  0  0  0  0  0  0  0  0
    3.4285   -0.5362   -0.0323 H   0  0  0  0  0  0  0  0  0  0  0  0
    4.7211    0.0617    0.9947 H   0  0  0  0  0  0  0  0  0  0  0  0
    5.3213   -0.3766   -1.5159 H   0  0  0  0  0  0  0  0  0  0  0  0
    6.5043   -2.5969   -1.8308 H   0  0  0  0  0  0  0  0  0  0  0  0
    5.7594   -4.4470   -0.5904 H   0  0  0  0  0  0  0  0  0  0  0  0
    6.9790   -2.8944    1.3901 H   0  0  0  0  0  0  0  0  0  0  0  0
    3.4654   -4.5322   -0.8892 H   0  0  0  0  0  0  0  0  0  0  0  0
    3.3771   -2.8188   -1.0883 H   0  0  0  0  0  0  0  0  0  0  0  0
    2.3021   -3.5766    0.0220 H   0  0  0  0  0  0  0  0  0  0  0  0
  1  2  1  0
  1 30  1  0
  1 31  1  0
  1 32  1  0
  2  9  1  0
  2  3  1  0
  2 33  1  6
  3  4  2  0
  3  5  1  0
  5  6  1  0
  5 34  1  0
  5 35  1  0
  6  7  1  0
  6 36  1  0
  6 37  1  0
  7 13  1  0
  7  8  1  1
  7  9  1  0
  8 38  1  0
  8 39  1  0
  8 40  1  0
  9 10  1  0
  9 41  1  1
 10 11  1  0
 10 42  1  0
 10 43  1  0
 11 12  1  0
 11 44  1  0
 11 45  1  0
 12 18  1  0
 12 13  1  0
 12 46  1  1
 13 14  1  0
 13 47  1  6
 14 15  1  0
 14 48  1  0
 14 49  1  0
 15 16  1  0
 15 50  1  0
 15 51  1  0
 16 28  1  0
 16 17  1  1
 16 18  1  0
 17 52  1  0
 17 53  1  0
 17 54  1  0
 18 19  1  0
 18 55  1  6
 19 20  1  0
 19 56  1  0
 19 57  1  0
 20 21  2  0
 20 58  1  0
 21 28  1  0
 21 22  1  0
 22 23  1  0
 22 59  1  0
 22 60  1  0
 23 25  1  0
 23 24  1  0
 23 61  1  6
 24 25  1  0
 25 26  1  0
 25 62  1  6
 26 27  1  0
 26 28  1  0
 26 63  1  6
 27 64  1  0
 28 29  1  6
 29 65  1  0
 29 66  1  0
 29 67  1  0
M  END
>  <i_m_ct_stereo_status>  (36) 
1

>  <s_m_source_file>  (36) 
/var/tmp/pbs.5076255.sched01/tmpfev35gxg/05fxellcm.sdf

>  <i_m_source_file_index>  (36) 
15

>  <i_lp_mmshare_version>  (36) 
48012

>  <i_f3d_flags>  (36) 
0

>  <s_epik_input>  (36) 
W0NIMl0xW0NIMl1DKD1PKVtDQEBIXShbQ0gzXSlbQ0BASF0oW0NAQF0xMltDSDNdKVtDSDJdW0NIMl1bQ0BIXTNbQ0BIXTJbQ0gyXVtDSDJdW0NAXTQoW0NIM10pW0NAQEhdM1tDSDJdW0NIXT1DNVtDQEBdNChbQ0gzXSlbQ0BIXShbT0hdKVtDQEhdNltDQEhdKE82KVtDSDJdNQ==

>  <s_epik_cmdline>  (36) 
J2VwaWtfcHl0aG9uJywgJy1waHQnLCAnMi4wJywgJy1waCcsICc3LjAnLCAnLXRuJywgJzgnLCAnLW1hJywgJzIwMCcsICctaW1hZScsICc8aW5maWxlLm1hZT4nLCAnLW9tYWUnLCAnPG91dGZpbGUubWFlPic=

>  <r_lp_tautomer_probability>  (36) 
1

>  <r_epik_Ionization_Penalty>  (36) 
7.98535e-08

>  <r_epik_Ionization_Penalty_Charging>  (36) 
0

>  <r_epik_Ionization_Penalty_Neutral>  (36) 
7.98535e-08

>  <r_epik_State_Penalty>  (36) 
-0

>  <r_epik_Charging_Adjusted_Penalty>  (36) 
0

>  <i_epik_Tot_Q>  (36) 
0

>  <i_epik_Tot_abs_Q>  (36) 
0

>  <s_lp_Force_Field>  (36) 
OPLS3e

>  <r_lp_Energy>  (36) 
63.2954

>  <b_lp_Chiralities_Consistent>  (36) 
1

>  <s_lp_Variant>  (36) 
11:0-1

>  <s_i_glide_gridfile>  (36) 
pfpi4k_grid

>  <i_i_glide_lignum>  (36) 
15

>  <i_i_glide_rotatable_bonds>  (36) 
1

>  <r_i_docking_score>  (36) 
-2.7717

>  <r_i_glide_ligand_efficiency>  (36) 
-0.0955759

>  <r_i_glide_ligand_efficiency_sa>  (36) 
-0.29364

>  <r_i_glide_ligand_efficiency_ln>  (36) 
-0.63465

>  <r_i_glide_gscore>  (36) 
-2.7717

>  <r_i_glide_lipo>  (36) 
-0.307489

>  <r_i_glide_hbond>  (36) 
-0.0947023

>  <r_i_glide_metal>  (36) 
-0

>  <r_i_glide_rewards>  (36) 
-0.691513

>  <r_i_glide_evdw>  (36) 
-28.2082

>  <r_i_glide_ecoul>  (36) 
-1.65522

>  <r_i_glide_erotb>  (36) 
0

>  <r_i_glide_esite>  (36) 
-0.0193067

>  <r_i_glide_emodel>  (36) 
-35.4192

>  <r_i_glide_energy>  (36) 
-29.8634

>  <r_i_glide_einternal>  (36) 
0.0547051

>  <r_i_glide_intrahb_reward>  (36) 
-0

>  <i_i_glide_confnum>  (36) 
2

>  <i_i_glide_posenum>  (36) 
37

>  <r_i_glide_eff_state_penalty>  (36) 
0

>  <ligand_id>  (36) 
11

>  <original_smiles>  (36) 
CC1C(=O)CCC2(C)C1CCC1C2CCC2(C)C1CC=C1CC3OC3C(O)C12C

>  <smiles>  (36) 
[H]OC1([H])C2([H])OC2([H])C([H])([H])C2=C([H])C([H])([H])C3([H])C4([H])C([H])([H])C([H])([H])C5([H])C([H])(C([H])([H])[H])C(=O)C([H])([H])C([H])([H])C5(C([H])([H])[H])C4([H])C([H])([H])C([H])([H])C3(C([H])([H])[H])C21C([H])([H])[H]

$$$$
12:0:0
     RDKit          3D

 70 77  0  0  1  0  0  0  0  0999 V2000
    4.9311   -2.9842    3.2450 C   0  0  0  0  0  0  0  0  0  0  0  0
    5.2543   -4.3455    2.5904 C   0  0  0  0  0  0  0  0  0  0  0  0
    4.6985   -5.5283    2.8565 C   0  0  0  0  0  0  0  0  0  0  0  0
    5.4314   -6.6685    2.1464 C   0  0  2  0  0  0  0  0  0  0  0  0
    5.4640   -8.0552    2.8984 C   0  0  0  0  0  0  0  0  0  0  0  0
    4.2788   -8.3280    3.8904 C   0  0  1  0  0  0  0  0  0  0  0  0
    4.1835   -7.0300    4.7599 C   0  0  0  0  0  0  0  0  0  0  0  0
    3.6267   -5.8495    3.9058 C   0  0  2  0  0  0  0  0  0  0  0  0
    2.2778   -6.4361    3.4275 C   0  0  1  0  0  0  0  0  0  0  0  0
    1.0645   -5.8403    2.7662 C   0  0  1  0  0  0  0  0  0  0  0  0
    1.3372   -6.0206    1.3528 O   0  0  0  0  0  0  0  0  0  0  0  0
    1.1519   -7.4226    1.7093 C   0  0  1  0  0  0  0  0  0  0  0  0
    2.4389   -7.5827    2.4618 C   0  0  2  0  0  0  0  0  0  0  0  0
    2.8887   -8.7903    3.2685 C   0  0  1  0  0  0  0  0  0  0  0  0
    3.0552   -9.9968    2.3330 C   0  0  0  0  0  0  0  0  0  0  0  0
    1.8785   -9.2228    4.4090 C   0  0  0  0  0  0  0  0  0  0  0  0
    0.3615   -9.0347    4.2605 C   0  0  1  0  0  0  0  0  0  0  0  0
   -0.1040   -7.8310    4.8769 O   0  0  0  0  0  0  0  0  0  0  0  0
   -0.5059   -7.9878    3.5406 C   0  0  2  0  0  0  0  0  0  0  0  0
   -1.9625   -8.3236    3.3103 C   0  0  0  0  0  0  0  0  0  0  0  0
   -0.0133   -6.9519    2.5384 C   0  0  1  0  0  0  0  0  0  0  0  0
    6.7888   -6.0079    1.8722 C   0  0  1  0  0  0  0  0  0  0  0  0
    7.6024   -6.6017    0.8814 O   0  0  0  0  0  0  0  0  0  0  0  0
    6.4445   -4.5173    1.6542 C   0  0  1  0  0  0  0  0  0  0  0  0
    6.0912   -4.3192    0.2748 O   0  0  0  0  0  0  0  0  0  0  0  0
    5.8424   -2.9936   -0.0784 C   0  0  2  0  0  0  0  0  0  0  0  0
    4.6219   -2.5388    0.4381 O   0  0  0  0  0  0  0  0  0  0  0  0
    3.4605   -3.2475    0.0110 C   0  0  0  0  0  0  0  0  0  0  0  0
    3.3094   -3.1214   -1.5080 C   0  0  1  0  0  0  0  0  0  0  0  0
    3.1050   -1.7645   -1.7692 O   0  0  0  0  0  0  0  0  0  0  0  0
    4.6316   -3.5381   -2.1965 C   0  0  1  0  0  0  0  0  0  0  0  0
    4.5345   -3.4131   -3.6178 O   0  0  0  0  0  0  0  0  0  0  0  0
    5.8683   -2.8325   -1.6026 C   0  0  1  0  0  0  0  0  0  0  0  0
    5.8456   -1.4675   -1.8746 O   0  0  0  0  0  0  0  0  0  0  0  0
    5.7903   -2.6359    3.8305 H   0  0  0  0  0  0  0  0  0  0  0  0
    4.0766   -3.0570    3.9325 H   0  0  0  0  0  0  0  0  0  0  0  0
    4.6898   -2.2102    2.5404 H   0  0  0  0  0  0  0  0  0  0  0  0
    4.9847   -6.8072    1.1654 H   0  0  0  0  0  0  0  0  0  0  0  0
    5.5579   -8.8702    2.1787 H   0  0  0  0  0  0  0  0  0  0  0  0
    6.3812   -8.1146    3.4910 H   0  0  0  0  0  0  0  0  0  0  0  0
    4.5934   -9.1474    4.5272 H   0  0  0  0  0  0  0  0  0  0  0  0
    3.5647   -7.1953    5.6463 H   0  0  0  0  0  0  0  0  0  0  0  0
    5.1669   -6.7759    5.1609 H   0  0  0  0  0  0  0  0  0  0  0  0
    3.4507   -4.9912    4.5440 H   0  0  0  0  0  0  0  0  0  0  0  0
    1.8588   -6.7427    4.3715 H   0  0  0  0  0  0  0  0  0  0  0  0
    0.7254   -4.8435    3.0409 H   0  0  0  0  0  0  0  0  0  0  0  0
    0.9402   -8.0641    0.8597 H   0  0  0  0  0  0  0  0  0  0  0  0
    3.1672   -7.4013    1.6860 H   0  0  0  0  0  0  0  0  0  0  0  0
    2.0881  -10.3769    2.0067 H   0  0  0  0  0  0  0  0  0  0  0  0
    3.5808  -10.8191    2.8236 H   0  0  0  0  0  0  0  0  0  0  0  0
    3.6200   -9.7492    1.4361 H   0  0  0  0  0  0  0  0  0  0  0  0
    2.0403  -10.2859    4.6162 H   0  0  0  0  0  0  0  0  0  0  0  0
    2.1448   -8.7645    5.3636 H   0  0  0  0  0  0  0  0  0  0  0  0
   -0.1740   -9.9021    4.6461 H   0  0  0  0  0  0  0  0  0  0  0  0
   -2.1023   -8.8007    2.3393 H   0  0  0  0  0  0  0  0  0  0  0  0
   -2.5852   -7.4326    3.3780 H   0  0  0  0  0  0  0  0  0  0  0  0
   -2.2977   -9.0317    4.0702 H   0  0  0  0  0  0  0  0  0  0  0  0
   -0.7846   -6.6180    1.8513 H   0  0  0  0  0  0  0  0  0  0  0  0
    7.3691   -6.0806    2.8002 H   0  0  0  0  0  0  0  0  0  0  0  0
    8.4357   -6.8425    1.2477 H   0  0  0  0  0  0  0  0  0  0  0  0
    7.2957   -3.9095    1.9247 H   0  0  0  0  0  0  0  0  0  0  0  0
    6.5959   -2.3465    0.3505 H   0  0  0  0  0  0  0  0  0  0  0  0
    3.5574   -4.2822    0.3210 H   0  0  0  0  0  0  0  0  0  0  0  0
    2.6051   -2.8492    0.5475 H   0  0  0  0  0  0  0  0  0  0  0  0
    2.4663   -3.7441   -1.8347 H   0  0  0  0  0  0  0  0  0  0  0  0
    2.2068   -1.5105   -1.4299 H   0  0  0  0  0  0  0  0  0  0  0  0
    4.7518   -4.5970   -2.0066 H   0  0  0  0  0  0  0  0  0  0  0  0
    3.6915   -3.7618   -3.8604 H   0  0  0  0  0  0  0  0  0  0  0  0
    6.7994   -3.2489   -1.9999 H   0  0  0  0  0  0  0  0  0  0  0  0
    4.9391   -1.1895   -1.6983 H   0  0  0  0  0  0  0  0  0  0  0  0
  1  2  1  0
  1 35  1  0
  1 36  1  0
  1 37  1  0
  2 24  1  0
  2  3  2  0
  3  8  1  0
  3  4  1  0
  4  5  1  0
  4 22  1  0
  4 38  1  6
  5  6  1  0
  5 39  1  0
  5 40  1  0
  6 14  1  0
  6  7  1  0
  6 41  1  1
  7  8  1  0
  7 42  1  0
  7 43  1  0
  8  9  1  0
  8 44  1  1
  9 13  1  0
  9 10  1  0
  9 45  1  1
 10 21  1  0
 10 11  1  0
 10 46  1  6
 11 12  1  0
 12 21  1  0
 12 13  1  0
 12 47  1  6
 13 14  1  0
 13 48  1  6
 14 15  1  6
 14 16  1  0
 15 49  1  0
 15 50  1  0
 15 51  1  0
 16 17  1  0
 16 52  1  0
 16 53  1  0
 17 19  1  0
 17 18  1  0
 17 54  1  1
 18 19  1  0
 19 20  1  1
 19 21  1  0
 20 55  1  0
 20 56  1  0
 20 57  1  0
 21 58  1  6
 22 23  1  0
 22 24  1  0
 22 59  1  1
 23 60  1  0
 24 25  1  0
 24 61  1  1
 25 26  1  0
 26 33  1  0
 26 27  1  0
 26 62  1  1
 27 28  1  0
 28 29  1  0
 28 63  1  0
 28 64  1  0
 29 30  1  0
 29 31  1  0
 29 65  1  6
 30 66  1  0
 31 32  1  0
 31 33  1  0
 31 67  1  6
 32 68  1  0
 33 34  1  0
 33 69  1  6
 34 70  1  0
M  END
>  <i_m_ct_stereo_status>  (37) 
1

>  <s_m_source_file>  (37) 
/var/tmp/pbs.5076255.sched01/tmpfev35gxg/05fxellcm.sdf

>  <i_m_source_file_index>  (37) 
16

>  <i_lp_mmshare_version>  (37) 
48012

>  <i_f3d_flags>  (37) 
0

>  <s_epik_input>  (37) 
W0NIMl0xW0NAQEhdKE8yKVtDQF0yKFtDSDNdKVtDQEhdKFtDQEBIXShPMylbQ0BASF00NSlbQ0BIXTNbQ0BASF00W0NAQEhdKFtDSDJdNilDKFtDQEBIXTdbQ0gyXVtDQEBIXTZbQ0BAXTE1W0NIM10pPUMoW0NIM10pW0NAQEhdKFtDQEBIXTdbT0hdKU9bQ0BASF04T1tDSDJdW0NAQEhdKFtPSF0pW0NAQEhdKFtPSF0pW0NASF04W09IXQ==

>  <s_epik_cmdline>  (37) 
J2VwaWtfcHl0aG9uJywgJy1waHQnLCAnMi4wJywgJy1waCcsICc3LjAnLCAnLXRuJywgJzgnLCAnLW1hJywgJzIwMCcsICctaW1hZScsICc8aW5maWxlLm1hZT4nLCAnLW9tYWUnLCAnPG91dGZpbGUubWFlPic=

>  <r_lp_tautomer_probability>  (37) 
1

>  <r_epik_Ionization_Penalty>  (37) 
1.77332e-06

>  <r_epik_Ionization_Penalty_Charging>  (37) 
0

>  <r_epik_Ionization_Penalty_Neutral>  (37) 
1.77332e-06

>  <r_epik_State_Penalty>  (37) 
-0

>  <r_epik_Charging_Adjusted_Penalty>  (37) 
0

>  <i_epik_Tot_Q>  (37) 
0

>  <i_epik_Tot_abs_Q>  (37) 
0

>  <s_epik_Chemistry_Notes>  (37) 
This compound contains an acetal/aminal-like group ( X-CH(R)-Y where X, Y are N, S, or O) that may be acid/base labile, releasing an aldehyde.

>  <s_lp_Force_Field>  (37) 
OPLS3e

>  <r_lp_Energy>  (37) 
104.513

>  <b_lp_Chiralities_Consistent>  (37) 
1

>  <s_lp_Variant>  (37) 
12:0-1

>  <s_i_glide_gridfile>  (37) 
pfpi4k_grid

>  <i_i_glide_lignum>  (37) 
16

>  <i_i_glide_rotatable_bonds>  (37) 
6

>  <r_i_docking_score>  (37) 
-4.60034

>  <r_i_glide_ligand_efficiency>  (37) 
-0.135304

>  <r_i_glide_ligand_efficiency_sa>  (37) 
-0.438333

>  <r_i_glide_ligand_efficiency_ln>  (37) 
-1.01634

>  <r_i_glide_gscore>  (37) 
-4.60034

>  <r_i_glide_lipo>  (37) 
-0.25815

>  <r_i_glide_hbond>  (37) 
-0.140718

>  <r_i_glide_metal>  (37) 
-0

>  <r_i_glide_rewards>  (37) 
-0.717908

>  <r_i_glide_evdw>  (37) 
-33.8831

>  <r_i_glide_ecoul>  (37) 
-13.1183

>  <r_i_glide_erotb>  (37) 
0.178334

>  <r_i_glide_esite>  (37) 
0

>  <r_i_glide_emodel>  (37) 
-62.4356

>  <r_i_glide_energy>  (37) 
-47.0013

>  <r_i_glide_einternal>  (37) 
3.03273

>  <r_i_glide_intrahb_reward>  (37) 
-0.5

>  <i_i_glide_confnum>  (37) 
2

>  <i_i_glide_posenum>  (37) 
38

>  <r_i_glide_eff_state_penalty>  (37) 
0

>  <ligand_id>  (37) 
12

>  <original_smiles>  (37) 
CC1=C2C(CC3CC2C2C4OC5C2C3(C)CC2OC2(C)C45)C(O)C1OC1OCC(O)C(O)C1O

>  <smiles>  (37) 
[H]OC1([H])C([H])([H])OC([H])(OC2([H])C(C([H])([H])[H])=C3C([H])(C([H])([H])C4([H])C([H])([H])C3([H])C3([H])C5([H])OC6([H])C5([H])C5(C([H])([H])[H])OC5([H])C([H])([H])C4(C([H])([H])[H])C63[H])C2([H])O[H])C([H])(O[H])C1([H])O[H]

$$$$
12:0:1
     RDKit          3D

 70 77  0  0  1  0  0  0  0  0999 V2000
    4.7604   -2.9821    3.2947 C   0  0  0  0  0  0  0  0  0  0  0  0
    5.1059   -4.3265    2.6317 C   0  0  0  0  0  0  0  0  0  0  0  0
    4.5687   -5.5320    2.9021 C   0  0  0  0  0  0  0  0  0  0  0  0
    5.3277   -6.6589    2.1970 C   0  0  2  0  0  0  0  0  0  0  0  0
    5.3816   -8.0406    2.9574 C   0  0  0  0  0  0  0  0  0  0  0  0
    4.2023   -8.3278    3.9472 C   0  0  1  0  0  0  0  0  0  0  0  0
    4.0852   -7.0279    4.8129 C   0  0  0  0  0  0  0  0  0  0  0  0
    3.5125   -5.8611    3.9535 C   0  0  2  0  0  0  0  0  0  0  0  0
    2.1777   -6.4672    3.4797 C   0  0  1  0  0  0  0  0  0  0  0  0
    0.9601   -5.8833    2.8126 C   0  0  1  0  0  0  0  0  0  0  0  0
    1.2343   -6.0639    1.3957 O   0  0  0  0  0  0  0  0  0  0  0  0
    1.0621   -7.4727    1.7553 C   0  0  1  0  0  0  0  0  0  0  0  0
    2.3534   -7.6115    2.5141 C   0  0  2  0  0  0  0  0  0  0  0  0
    2.8206   -8.8099    3.3222 C   0  0  1  0  0  0  0  0  0  0  0  0
    3.0037  -10.0197    2.3939 C   0  0  0  0  0  0  0  0  0  0  0  0
    1.8168   -9.2508    4.4595 C   0  0  0  0  0  0  0  0  0  0  0  0
    0.3013   -9.0899    4.2996 C   0  0  1  0  0  0  0  0  0  0  0  0
   -0.1887   -7.8894    4.9206 O   0  0  0  0  0  0  0  0  0  0  0  0
   -0.5863   -8.0487    3.5748 C   0  0  2  0  0  0  0  0  0  0  0  0
   -2.0385   -8.3752    3.3352 C   0  0  0  0  0  0  0  0  0  0  0  0
   -0.0987   -7.0091    2.5872 C   0  0  1  0  0  0  0  0  0  0  0  0
    6.6735   -5.9656    1.9291 C   0  0  1  0  0  0  0  0  0  0  0  0
    7.5194   -6.5453    0.9440 O   0  0  0  0  0  0  0  0  0  0  0  0
    6.3014   -4.4916    1.6980 C   0  0  1  0  0  0  0  0  0  0  0  0
    5.9640   -4.3009    0.3168 O   0  0  0  0  0  0  0  0  0  0  0  0
    5.7580   -2.9793   -0.0514 C   0  0  2  0  0  0  0  0  0  0  0  0
    4.5504   -2.4772    0.4175 O   0  0  0  0  0  0  0  0  0  0  0  0
    3.3765   -3.1373   -0.0117 C   0  0  0  0  0  0  0  0  0  0  0  0
    3.2505   -3.0402   -1.5414 C   0  0  1  0  0  0  0  0  0  0  0  0
    2.9948   -1.6846   -1.8292 O   0  0  0  0  0  0  0  0  0  0  0  0
    4.5734   -3.4996   -2.1950 C   0  0  1  0  0  0  0  0  0  0  0  0
    4.5232   -3.4197   -3.6179 O   0  0  0  0  0  0  0  0  0  0  0  0
    5.8308   -2.8422   -1.5733 C   0  0  1  0  0  0  0  0  0  0  0  0
    5.8679   -1.4751   -1.8662 O   0  0  0  0  0  0  0  0  0  0  0  0
    5.6203   -2.6244    3.8792 H   0  0  0  0  0  0  0  0  0  0  0  0
    3.9200   -3.0772    3.9985 H   0  0  0  0  0  0  0  0  0  0  0  0
    4.4948   -2.2076    2.6198 H   0  0  0  0  0  0  0  0  0  0  0  0
    4.8854   -6.8061    1.2173 H   0  0  0  0  0  0  0  0  0  0  0  0
    5.4888   -8.8569    2.2412 H   0  0  0  0  0  0  0  0  0  0  0  0
    6.2978   -8.0835    3.5535 H   0  0  0  0  0  0  0  0  0  0  0  0
    4.5237   -9.1422    4.5850 H   0  0  0  0  0  0  0  0  0  0  0  0
    3.4661   -7.2013    5.6977 H   0  0  0  0  0  0  0  0  0  0  0  0
    5.0628   -6.7581    5.2157 H   0  0  0  0  0  0  0  0  0  0  0  0
    3.3213   -5.0019    4.5904 H   0  0  0  0  0  0  0  0  0  0  0  0
    1.7596   -6.7809    4.4228 H   0  0  0  0  0  0  0  0  0  0  0  0
    0.5961   -4.8961    3.0960 H   0  0  0  0  0  0  0  0  0  0  0  0
    0.8526   -8.1270    0.9162 H   0  0  0  0  0  0  0  0  0  0  0  0
    3.0756   -7.4206    1.7372 H   0  0  0  0  0  0  0  0  0  0  0  0
    2.0380  -10.4180    2.0773 H   0  0  0  0  0  0  0  0  0  0  0  0
    3.5415  -10.8334    2.8876 H   0  0  0  0  0  0  0  0  0  0  0  0
    3.5604   -9.7661    1.4934 H   0  0  0  0  0  0  0  0  0  0  0  0
    1.9899  -10.3151    4.6708 H   0  0  0  0  0  0  0  0  0  0  0  0
    2.0704   -8.7916    5.4180 H   0  0  0  0  0  0  0  0  0  0  0  0
   -0.2000   -9.9635    4.6917 H   0  0  0  0  0  0  0  0  0  0  0  0
   -2.1704   -8.8876    2.3754 H   0  0  0  0  0  0  0  0  0  0  0  0
   -2.6636   -7.4815    3.3837 H   0  0  0  0  0  0  0  0  0  0  0  0
   -2.3873   -9.0286    4.1231 H   0  0  0  0  0  0  0  0  0  0  0  0
   -0.8797   -6.6825    1.8952 H   0  0  0  0  0  0  0  0  0  0  0  0
    7.2534   -6.0215    2.8578 H   0  0  0  0  0  0  0  0  0  0  0  0
    7.8921   -7.3443    1.2929 H   0  0  0  0  0  0  0  0  0  0  0  0
    7.1426   -3.8747    1.9872 H   0  0  0  0  0  0  0  0  0  0  0  0
    6.5287   -2.3416    0.3773 H   0  0  0  0  0  0  0  0  0  0  0  0
    3.4293   -4.1735    0.3179 H   0  0  0  0  0  0  0  0  0  0  0  0
    2.5227   -2.7014    0.4978 H   0  0  0  0  0  0  0  0  0  0  0  0
    2.3995   -3.6557   -1.8716 H   0  0  0  0  0  0  0  0  0  0  0  0
    2.1413   -1.4502   -1.4802 H   0  0  0  0  0  0  0  0  0  0  0  0
    4.6583   -4.5592   -1.9716 H   0  0  0  0  0  0  0  0  0  0  0  0
    3.6829   -3.7685   -3.8712 H   0  0  0  0  0  0  0  0  0  0  0  0
    6.7546   -3.3004   -1.9487 H   0  0  0  0  0  0  0  0  0  0  0  0
    4.9765   -1.1652   -1.6955 H   0  0  0  0  0  0  0  0  0  0  0  0
  1  2  1  0
  1 35  1  0
  1 36  1  0
  1 37  1  0
  2 24  1  0
  2  3  2  0
  3  8  1  0
  3  4  1  0
  4  5  1  0
  4 22  1  0
  4 38  1  6
  5  6  1  0
  5 39  1  0
  5 40  1  0
  6 14  1  0
  6  7  1  0
  6 41  1  1
  7  8  1  0
  7 42  1  0
  7 43  1  0
  8  9  1  0
  8 44  1  1
  9 13  1  0
  9 10  1  0
  9 45  1  1
 10 21  1  0
 10 11  1  0
 10 46  1  6
 11 12  1  0
 12 21  1  0
 12 13  1  0
 12 47  1  6
 13 14  1  0
 13 48  1  6
 14 15  1  6
 14 16  1  0
 15 49  1  0
 15 50  1  0
 15 51  1  0
 16 17  1  0
 16 52  1  0
 16 53  1  0
 17 19  1  0
 17 18  1  0
 17 54  1  1
 18 19  1  0
 19 20  1  1
 19 21  1  0
 20 55  1  0
 20 56  1  0
 20 57  1  0
 21 58  1  6
 22 23  1  0
 22 24  1  0
 22 59  1  1
 23 60  1  0
 24 25  1  0
 24 61  1  1
 25 26  1  0
 26 33  1  0
 26 27  1  0
 26 62  1  1
 27 28  1  0
 28 29  1  0
 28 63  1  0
 28 64  1  0
 29 30  1  0
 29 31  1  0
 29 65  1  6
 30 66  1  0
 31 32  1  0
 31 33  1  0
 31 67  1  6
 32 68  1  0
 33 34  1  0
 33 69  1  6
 34 70  1  0
M  END
>  <i_m_ct_stereo_status>  (38) 
1

>  <s_m_source_file>  (38) 
/var/tmp/pbs.5076255.sched01/tmpfev35gxg/05fxellcm.sdf

>  <i_m_source_file_index>  (38) 
16

>  <i_lp_mmshare_version>  (38) 
48012

>  <i_f3d_flags>  (38) 
0

>  <s_epik_input>  (38) 
W0NIMl0xW0NAQEhdKE8yKVtDQF0yKFtDSDNdKVtDQEhdKFtDQEBIXShPMylbQ0BASF00NSlbQ0BIXTNbQ0BASF00W0NAQEhdKFtDSDJdNilDKFtDQEBIXTdbQ0gyXVtDQEBIXTZbQ0BAXTE1W0NIM10pPUMoW0NIM10pW0NAQEhdKFtDQEBIXTdbT0hdKU9bQ0BASF04T1tDSDJdW0NAQEhdKFtPSF0pW0NAQEhdKFtPSF0pW0NASF04W09IXQ==

>  <s_epik_cmdline>  (38) 
J2VwaWtfcHl0aG9uJywgJy1waHQnLCAnMi4wJywgJy1waCcsICc3LjAnLCAnLXRuJywgJzgnLCAnLW1hJywgJzIwMCcsICctaW1hZScsICc8aW5maWxlLm1hZT4nLCAnLW9tYWUnLCAnPG91dGZpbGUubWFlPic=

>  <r_lp_tautomer_probability>  (38) 
1

>  <r_epik_Ionization_Penalty>  (38) 
1.77332e-06

>  <r_epik_Ionization_Penalty_Charging>  (38) 
0

>  <r_epik_Ionization_Penalty_Neutral>  (38) 
1.77332e-06

>  <r_epik_State_Penalty>  (38) 
-0

>  <r_epik_Charging_Adjusted_Penalty>  (38) 
0

>  <i_epik_Tot_Q>  (38) 
0

>  <i_epik_Tot_abs_Q>  (38) 
0

>  <s_epik_Chemistry_Notes>  (38) 
This compound contains an acetal/aminal-like group ( X-CH(R)-Y where X, Y are N, S, or O) that may be acid/base labile, releasing an aldehyde.

>  <s_lp_Force_Field>  (38) 
OPLS3e

>  <r_lp_Energy>  (38) 
104.513

>  <b_lp_Chiralities_Consistent>  (38) 
1

>  <s_lp_Variant>  (38) 
12:0-1

>  <s_i_glide_gridfile>  (38) 
pfpi4k_grid

>  <i_i_glide_lignum>  (38) 
16

>  <i_i_glide_rotatable_bonds>  (38) 
6

>  <r_i_docking_score>  (38) 
-4.59109

>  <r_i_glide_ligand_efficiency>  (38) 
-0.135032

>  <r_i_glide_ligand_efficiency_sa>  (38) 
-0.437451

>  <r_i_glide_ligand_efficiency_ln>  (38) 
-1.0143

>  <r_i_glide_gscore>  (38) 
-4.59109

>  <r_i_glide_lipo>  (38) 
-0.216247

>  <r_i_glide_hbond>  (38) 
-0.154578

>  <r_i_glide_metal>  (38) 
-0

>  <r_i_glide_rewards>  (38) 
-0.714843

>  <r_i_glide_evdw>  (38) 
-31.9506

>  <r_i_glide_ecoul>  (38) 
-13.9081

>  <r_i_glide_erotb>  (38) 
0.178334

>  <r_i_glide_esite>  (38) 
0

>  <r_i_glide_emodel>  (38) 
-63.541

>  <r_i_glide_energy>  (38) 
-45.8588

>  <r_i_glide_einternal>  (38) 
2.03064

>  <r_i_glide_intrahb_reward>  (38) 
-0.5

>  <i_i_glide_confnum>  (38) 
2

>  <i_i_glide_posenum>  (38) 
1

>  <r_i_glide_eff_state_penalty>  (38) 
0

>  <ligand_id>  (38) 
12

>  <original_smiles>  (38) 
CC1=C2C(CC3CC2C2C4OC5C2C3(C)CC2OC2(C)C45)C(O)C1OC1OCC(O)C(O)C1O

>  <smiles>  (38) 
[H]OC1([H])C([H])([H])OC([H])(OC2([H])C(C([H])([H])[H])=C3C([H])(C([H])([H])C4([H])C([H])([H])C3([H])C3([H])C5([H])OC6([H])C5([H])C5(C([H])([H])[H])OC5([H])C([H])([H])C4(C([H])([H])[H])C63[H])C2([H])O[H])C([H])(O[H])C1([H])O[H]

$$$$
12:0:2
     RDKit          3D

 70 77  0  0  1  0  0  0  0  0999 V2000
    4.3513   -3.5848    3.2808 C   0  0  0  0  0  0  0  0  0  0  0  0
    5.2465   -4.6209    2.6195 C   0  0  0  0  0  0  0  0  0  0  0  0
    5.3734   -5.9257    2.9140 C   0  0  0  0  0  0  0  0  0  0  0  0
    6.4464   -6.5679    2.0379 C   0  0  2  0  0  0  0  0  0  0  0  0
    7.2448   -7.7432    2.6864 C   0  0  0  0  0  0  0  0  0  0  0  0
    6.5130   -8.5448    3.8100 C   0  0  1  0  0  0  0  0  0  0  0  0
    5.9323   -7.4446    4.7641 C   0  0  0  0  0  0  0  0  0  0  0  0
    4.7524   -6.7016    4.0741 C   0  0  2  0  0  0  0  0  0  0  0  0
    3.7941   -7.8731    3.7512 C   0  0  1  0  0  0  0  0  0  0  0  0
    2.3535   -7.9318    3.2992 C   0  0  1  0  0  0  0  0  0  0  0  0
    2.4973   -7.9708    1.8603 O   0  0  0  0  0  0  0  0  0  0  0  0
    3.0294   -9.3025    2.1267 C   0  0  1  0  0  0  0  0  0  0  0  0
    4.3368   -8.8071    2.7009 C   0  0  2  0  0  0  0  0  0  0  0  0
    5.4375   -9.6404    3.3535 C   0  0  1  0  0  0  0  0  0  0  0  0
    6.0392  -10.6164    2.3216 C   0  0  0  0  0  0  0  0  0  0  0  0
    4.9567  -10.4870    4.5918 C   0  0  0  0  0  0  0  0  0  0  0  0
    3.5263  -11.0678    4.6714 C   0  0  1  0  0  0  0  0  0  0  0  0
    2.6508  -10.2270    5.4313 O   0  0  0  0  0  0  0  0  0  0  0  0
    2.1581  -10.5804    4.1551 C   0  0  2  0  0  0  0  0  0  0  0  0
    1.0319  -11.5905    4.1214 C   0  0  0  0  0  0  0  0  0  0  0  0
    1.9289   -9.4361    3.1564 C   0  0  1  0  0  0  0  0  0  0  0  0
    7.2722   -5.3434    1.6300 C   0  0  1  0  0  0  0  0  0  0  0  0
    8.1315   -5.5377    0.5218 O   0  0  0  0  0  0  0  0  0  0  0  0
    6.2160   -4.2139    1.5237 C   0  0  1  0  0  0  0  0  0  0  0  0
    5.5239   -4.2453    0.2743 O   0  0  0  0  0  0  0  0  0  0  0  0
    6.0968   -3.4631   -0.7266 C   0  0  2  0  0  0  0  0  0  0  0  0
    6.1423   -2.1025   -0.3909 O   0  0  0  0  0  0  0  0  0  0  0  0
    4.8849   -1.4912   -0.1253 C   0  0  0  0  0  0  0  0  0  0  0  0
    3.9915   -1.5539   -1.3692 C   0  0  1  0  0  0  0  0  0  0  0  0
    4.4684   -0.6301   -2.3240 O   0  0  0  0  0  0  0  0  0  0  0  0
    3.9051   -2.9982   -1.8965 C   0  0  1  0  0  0  0  0  0  0  0  0
    3.1282   -3.0793   -3.0851 O   0  0  0  0  0  0  0  0  0  0  0  0
    5.2929   -3.6559   -2.0260 C   0  0  1  0  0  0  0  0  0  0  0  0
    5.9918   -3.1128   -3.1230 O   0  0  0  0  0  0  0  0  0  0  0  0
    4.9546   -2.7915    3.7282 H   0  0  0  0  0  0  0  0  0  0  0  0
    3.7152   -4.0115    4.0581 H   0  0  0  0  0  0  0  0  0  0  0  0
    3.6960   -3.1325    2.5344 H   0  0  0  0  0  0  0  0  0  0  0  0
    5.9654   -6.8998    1.1174 H   0  0  0  0  0  0  0  0  0  0  0  0
    7.6091   -8.4043    1.9011 H   0  0  0  0  0  0  0  0  0  0  0  0
    8.1537   -7.3346    3.1310 H   0  0  0  0  0  0  0  0  0  0  0  0
    7.2859   -9.0907    4.3495 H   0  0  0  0  0  0  0  0  0  0  0  0
    5.6168   -7.8730    5.7132 H   0  0  0  0  0  0  0  0  0  0  0  0
    6.7147   -6.7358    5.0396 H   0  0  0  0  0  0  0  0  0  0  0  0
    4.2805   -6.0188    4.7810 H   0  0  0  0  0  0  0  0  0  0  0  0
    3.7210   -8.3248    4.7298 H   0  0  0  0  0  0  0  0  0  0  0  0
    1.6165   -7.2248    3.6927 H   0  0  0  0  0  0  0  0  0  0  0  0
    3.0279   -9.9837    1.2727 H   0  0  0  0  0  0  0  0  0  0  0  0
    4.7591   -8.3084    1.8495 H   0  0  0  0  0  0  0  0  0  0  0  0
    5.3479  -11.4331    2.1022 H   0  0  0  0  0  0  0  0  0  0  0  0
    6.9675  -11.0596    2.6863 H   0  0  0  0  0  0  0  0  0  0  0  0
    6.2500  -10.1291    1.3708 H   0  0  0  0  0  0  0  0  0  0  0  0
    5.6378  -11.3312    4.7048 H   0  0  0  0  0  0  0  0  0  0  0  0
    5.1081   -9.9471    5.5236 H   0  0  0  0  0  0  0  0  0  0  0  0
    3.5410  -12.0805    5.0696 H   0  0  0  0  0  0  0  0  0  0  0  0
    0.9919  -12.0807    3.1475 H   0  0  0  0  0  0  0  0  0  0  0  0
    0.0749  -11.1167    4.3251 H   0  0  0  0  0  0  0  0  0  0  0  0
    1.1987  -12.3633    4.8748 H   0  0  0  0  0  0  0  0  0  0  0  0
    0.9723   -9.5195    2.6399 H   0  0  0  0  0  0  0  0  0  0  0  0
    7.9282   -5.0908    2.4664 H   0  0  0  0  0  0  0  0  0  0  0  0
    8.6437   -6.3187    0.6840 H   0  0  0  0  0  0  0  0  0  0  0  0
    6.6387   -3.2382    1.7618 H   0  0  0  0  0  0  0  0  0  0  0  0
    7.1266   -3.7788   -0.8854 H   0  0  0  0  0  0  0  0  0  0  0  0
    4.3929   -2.0093    0.6993 H   0  0  0  0  0  0  0  0  0  0  0  0
    5.0480   -0.4604    0.1904 H   0  0  0  0  0  0  0  0  0  0  0  0
    2.9968   -1.2169   -1.0913 H   0  0  0  0  0  0  0  0  0  0  0  0
    3.8738   -0.6527   -3.0578 H   0  0  0  0  0  0  0  0  0  0  0  0
    3.3555   -3.5819   -1.1571 H   0  0  0  0  0  0  0  0  0  0  0  0
    2.9476   -3.9961   -3.2535 H   0  0  0  0  0  0  0  0  0  0  0  0
    5.1782   -4.7268   -2.2023 H   0  0  0  0  0  0  0  0  0  0  0  0
    6.8689   -3.4839   -3.1664 H   0  0  0  0  0  0  0  0  0  0  0  0
  1  2  1  0
  1 35  1  0
  1 36  1  0
  1 37  1  0
  2 24  1  0
  2  3  2  0
  3  8  1  0
  3  4  1  0
  4  5  1  0
  4 22  1  0
  4 38  1  6
  5  6  1  0
  5 39  1  0
  5 40  1  0
  6 14  1  0
  6  7  1  0
  6 41  1  1
  7  8  1  0
  7 42  1  0
  7 43  1  0
  8  9  1  0
  8 44  1  1
  9 13  1  0
  9 10  1  0
  9 45  1  1
 10 21  1  0
 10 11  1  0
 10 46  1  6
 11 12  1  0
 12 21  1  0
 12 13  1  0
 12 47  1  6
 13 14  1  0
 13 48  1  6
 14 15  1  6
 14 16  1  0
 15 49  1  0
 15 50  1  0
 15 51  1  0
 16 17  1  0
 16 52  1  0
 16 53  1  0
 17 19  1  0
 17 18  1  0
 17 54  1  1
 18 19  1  0
 19 20  1  1
 19 21  1  0
 20 55  1  0
 20 56  1  0
 20 57  1  0
 21 58  1  6
 22 23  1  0
 22 24  1  0
 22 59  1  1
 23 60  1  0
 24 25  1  0
 24 61  1  1
 25 26  1  0
 26 33  1  0
 26 27  1  0
 26 62  1  6
 27 28  1  0
 28 29  1  0
 28 63  1  0
 28 64  1  0
 29 30  1  0
 29 31  1  0
 29 65  1  1
 30 66  1  0
 31 32  1  0
 31 33  1  0
 31 67  1  1
 32 68  1  0
 33 34  1  0
 33 69  1  6
 34 70  1  0
M  END
>  <i_m_ct_stereo_status>  (39) 
1

>  <s_m_source_file>  (39) 
/var/tmp/pbs.5076255.sched01/tmpfev35gxg/05fxellcm.sdf

>  <i_m_source_file_index>  (39) 
16

>  <i_lp_mmshare_version>  (39) 
48012

>  <i_f3d_flags>  (39) 
0

>  <s_epik_input>  (39) 
W0NIMl0xW0NAQEhdKE8yKVtDQF0yKFtDSDNdKVtDQEhdKFtDQEBIXShPMylbQ0BASF00NSlbQ0BIXTNbQ0BASF00W0NAQEhdKFtDSDJdNilDKFtDQEBIXTdbQ0gyXVtDQEBIXTZbQ0BAXTE1W0NIM10pPUMoW0NIM10pW0NAQEhdKFtDQEBIXTdbT0hdKU9bQ0BASF04T1tDSDJdW0NAQEhdKFtPSF0pW0NAQEhdKFtPSF0pW0NASF04W09IXQ==

>  <s_epik_cmdline>  (39) 
J2VwaWtfcHl0aG9uJywgJy1waHQnLCAnMi4wJywgJy1waCcsICc3LjAnLCAnLXRuJywgJzgnLCAnLW1hJywgJzIwMCcsICctaW1hZScsICc8aW5maWxlLm1hZT4nLCAnLW9tYWUnLCAnPG91dGZpbGUubWFlPic=

>  <r_lp_tautomer_probability>  (39) 
1

>  <r_epik_Ionization_Penalty>  (39) 
1.77332e-06

>  <r_epik_Ionization_Penalty_Charging>  (39) 
0

>  <r_epik_Ionization_Penalty_Neutral>  (39) 
1.77332e-06

>  <r_epik_State_Penalty>  (39) 
-0

>  <r_epik_Charging_Adjusted_Penalty>  (39) 
0

>  <i_epik_Tot_Q>  (39) 
0

>  <i_epik_Tot_abs_Q>  (39) 
0

>  <s_epik_Chemistry_Notes>  (39) 
This compound contains an acetal/aminal-like group ( X-CH(R)-Y where X, Y are N, S, or O) that may be acid/base labile, releasing an aldehyde.

>  <s_lp_Force_Field>  (39) 
OPLS3e

>  <r_lp_Energy>  (39) 
104.513

>  <b_lp_Chiralities_Consistent>  (39) 
1

>  <s_lp_Variant>  (39) 
12:0-1

>  <s_i_glide_gridfile>  (39) 
pfpi4k_grid

>  <i_i_glide_lignum>  (39) 
16

>  <i_i_glide_rotatable_bonds>  (39) 
6

>  <r_i_docking_score>  (39) 
-3.5086

>  <r_i_glide_ligand_efficiency>  (39) 
-0.103194

>  <r_i_glide_ligand_efficiency_sa>  (39) 
-0.334309

>  <r_i_glide_ligand_efficiency_ln>  (39) 
-0.775147

>  <r_i_glide_gscore>  (39) 
-3.5086

>  <r_i_glide_lipo>  (39) 
-0.426183

>  <r_i_glide_hbond>  (39) 
0

>  <r_i_glide_metal>  (39) 
-0

>  <r_i_glide_rewards>  (39) 
-0.28082

>  <r_i_glide_evdw>  (39) 
-36.2801

>  <r_i_glide_ecoul>  (39) 
-7.77281

>  <r_i_glide_erotb>  (39) 
0.178334

>  <r_i_glide_esite>  (39) 
0

>  <r_i_glide_emodel>  (39) 
-53.402

>  <r_i_glide_energy>  (39) 
-44.0529

>  <r_i_glide_einternal>  (39) 
3.05673

>  <r_i_glide_intrahb_reward>  (39) 
-0

>  <i_i_glide_confnum>  (39) 
2

>  <i_i_glide_posenum>  (39) 
16

>  <r_i_glide_eff_state_penalty>  (39) 
0

>  <ligand_id>  (39) 
12

>  <original_smiles>  (39) 
CC1=C2C(CC3CC2C2C4OC5C2C3(C)CC2OC2(C)C45)C(O)C1OC1OCC(O)C(O)C1O

>  <smiles>  (39) 
[H]OC1([H])C([H])([H])OC([H])(OC2([H])C(C([H])([H])[H])=C3C([H])(C([H])([H])C4([H])C([H])([H])C3([H])C3([H])C5([H])OC6([H])C5([H])C5(C([H])([H])[H])OC5([H])C([H])([H])C4(C([H])([H])[H])C63[H])C2([H])O[H])C([H])(O[H])C1([H])O[H]

$$$$
13:0:0
     RDKit          3D

 49 51  0  0  1  0  0  0  0  0999 V2000
   -1.1359    1.9743    2.4911 C   0  0  0  0  0  0  0  0  0  0  0  0
   -1.5219    1.7937    3.9660 C   0  0  0  0  0  0  0  0  0  0  0  0
   -1.0602    2.9849    4.8171 C   0  0  0  0  0  0  0  0  0  0  0  0
   -0.9556    0.4958    4.5082 C   0  0  0  0  0  0  0  0  0  0  0  0
   -1.6779   -0.5564    4.9393 C   0  0  0  0  0  0  0  0  0  0  0  0
   -1.1118   -1.8234    5.4697 C   0  0  2  0  0  0  0  0  0  0  0  0
    0.1405   -1.8223    6.3276 C   0  0  1  0  0  0  0  0  0  0  0  0
    0.2994   -2.7267    7.5355 C   0  0  0  0  0  0  0  0  0  0  0  0
    0.1878   -2.3929    4.9194 C   0  0  1  0  0  0  0  0  0  0  0  0
    0.3891   -3.8477    4.7128 C   0  0  0  0  0  0  0  0  0  0  0  0
    1.2279   -4.4221    3.8180 C   0  0  0  0  0  0  0  0  0  0  0  0
    1.3801   -5.8594    3.7600 C   0  0  0  0  0  0  0  0  0  0  0  0
    2.1675   -6.5806    2.9030 C   0  0  0  0  0  0  0  0  0  0  0  0
    2.2149   -8.0838    2.9567 C   0  0  0  0  0  0  0  0  0  0  0  0
    2.9802   -8.5223    1.6799 C   0  0  0  0  0  0  0  0  0  0  0  0
    3.8356   -7.3256    1.2928 C   0  0  0  0  0  0  0  0  0  0  0  0
    3.0600   -6.0849    1.7663 C   0  0  0  0  0  0  0  0  0  0  0  0
    4.0222   -4.9325    2.0689 C   0  0  0  0  0  0  0  0  0  0  0  0
    4.8715   -4.9641    2.9776 O   0  0  0  0  0  0  0  0  0  0  0  0
    3.8606   -3.8506    1.1377 C   0  0  0  0  0  0  0  0  0  0  0  0
    2.8107   -4.1352    0.2952 C   0  0  0  0  0  0  0  0  0  0  0  0
    2.2462   -5.4272    0.6468 C   0  0  0  0  0  0  0  0  0  0  0  0
    1.2235   -5.9345    0.1475 O   0  0  0  0  0  0  0  0  0  0  0  0
   -1.5175    1.1577    1.8764 H   0  0  0  0  0  0  0  0  0  0  0  0
   -0.0550    2.0212    2.3495 H   0  0  0  0  0  0  0  0  0  0  0  0
   -1.5520    2.9017    2.0968 H   0  0  0  0  0  0  0  0  0  0  0  0
   -2.6072    1.7423    4.0272 H   0  0  0  0  0  0  0  0  0  0  0  0
   -1.3854    2.8806    5.8530 H   0  0  0  0  0  0  0  0  0  0  0  0
   -1.4780    3.9156    4.4320 H   0  0  0  0  0  0  0  0  0  0  0  0
    0.0261    3.0876    4.8156 H   0  0  0  0  0  0  0  0  0  0  0  0
    0.1218    0.4447    4.5348 H   0  0  0  0  0  0  0  0  0  0  0  0
   -2.7574   -0.4980    4.9041 H   0  0  0  0  0  0  0  0  0  0  0  0
   -1.8925   -2.5403    5.7371 H   0  0  0  0  0  0  0  0  0  0  0  0
    0.6038   -0.8444    6.4786 H   0  0  0  0  0  0  0  0  0  0  0  0
   -0.1613   -3.7026    7.3684 H   0  0  0  0  0  0  0  0  0  0  0  0
   -0.1674   -2.2883    8.4156 H   0  0  0  0  0  0  0  0  0  0  0  0
    1.3624   -2.8827    7.7322 H   0  0  0  0  0  0  0  0  0  0  0  0
    0.6958   -1.7977    4.1583 H   0  0  0  0  0  0  0  0  0  0  0  0
   -0.1835   -4.4999    5.3520 H   0  0  0  0  0  0  0  0  0  0  0  0
    1.7830   -3.7690    3.1646 H   0  0  0  0  0  0  0  0  0  0  0  0
    0.8236   -6.4427    4.4847 H   0  0  0  0  0  0  0  0  0  0  0  0
    2.7539   -8.3922    3.8520 H   0  0  0  0  0  0  0  0  0  0  0  0
    1.2174   -8.5159    2.9883 H   0  0  0  0  0  0  0  0  0  0  0  0
    3.5754   -9.4113    1.8446 H   0  0  0  0  0  0  0  0  0  0  0  0
    2.2705   -8.7301    0.8872 H   0  0  0  0  0  0  0  0  0  0  0  0
    4.8020   -7.4051    1.7973 H   0  0  0  0  0  0  0  0  0  0  0  0
    4.0616   -7.2983    0.2199 H   0  0  0  0  0  0  0  0  0  0  0  0
    4.4989   -2.9873    1.1247 H   0  0  0  0  0  0  0  0  0  0  0  0
    2.4816   -3.5149   -0.5089 H   0  0  0  0  0  0  0  0  0  0  0  0
  1  2  1  0
  1 24  1  0
  1 25  1  0
  1 26  1  0
  2  3  1  0
  2  4  1  0
  2 27  1  0
  3 28  1  0
  3 29  1  0
  3 30  1  0
  4  5  2  3
  4 31  1  0
  5  6  1  0
  5 32  1  0
  6  9  1  0
  6  7  1  0
  6 33  1  1
  7  8  1  0
  7  9  1  0
  7 34  1  6
  8 35  1  0
  8 36  1  0
  8 37  1  0
  9 10  1  0
  9 38  1  6
 10 11  2  3
 10 39  1  0
 11 12  1  0
 11 40  1  0
 12 13  2  3
 12 41  1  0
 13 17  1  0
 13 14  1  0
 14 15  1  0
 14 42  1  0
 14 43  1  0
 15 16  1  0
 15 44  1  0
 15 45  1  0
 16 17  1  0
 16 46  1  0
 16 47  1  0
 17 22  1  0
 17 18  1  0
 18 19  2  0
 18 20  1  0
 20 21  2  0
 20 48  1  0
 21 22  1  0
 21 49  1  0
 22 23  2  0
M  END
>  <i_m_ct_stereo_status>  (40) 
1

>  <s_m_source_file>  (40) 
/var/tmp/pbs.5076255.sched01/tmpfev35gxg/05fxellcm.sdf

>  <i_m_source_file_index>  (40) 
17

>  <i_lp_mmshare_version>  (40) 
48012

>  <i_f3d_flags>  (40) 
0

>  <s_epik_input>  (40) 
W0NIM11bQ0hdKFtDSDNdKS9bQ0hdPVtDSF0vW0NAQEhdMVtDQEBIXShbQ0gzXSlbQ0BIXTEvW0NIXT1bQ0hdL1tDSF09QygvW0NIMl1bQ0gyXVtDSDJdMilDMjNDKD1PKVtDSF09W0NIXUMzPU8=

>  <s_epik_cmdline>  (40) 
J2VwaWtfcHl0aG9uJywgJy1waHQnLCAnMi4wJywgJy1waCcsICc3LjAnLCAnLXRuJywgJzgnLCAnLW1hJywgJzIwMCcsICctaW1hZScsICc8aW5maWxlLm1hZT4nLCAnLW9tYWUnLCAnPG91dGZpbGUubWFlPic=

>  <r_lp_tautomer_probability>  (40) 
1

>  <r_epik_Ionization_Penalty>  (40) 
0

>  <r_epik_Ionization_Penalty_Charging>  (40) 
0

>  <r_epik_Ionization_Penalty_Neutral>  (40) 
0

>  <r_epik_State_Penalty>  (40) 
-0

>  <r_epik_Charging_Adjusted_Penalty>  (40) 
0

>  <i_epik_Tot_Q>  (40) 
0

>  <i_epik_Tot_abs_Q>  (40) 
0

>  <s_lp_Force_Field>  (40) 
OPLS3e

>  <r_lp_Energy>  (40) 
10.1861

>  <b_lp_Chiralities_Consistent>  (40) 
1

>  <s_lp_Variant>  (40) 
13:0-1

>  <s_i_glide_gridfile>  (40) 
pfpi4k_grid

>  <i_i_glide_lignum>  (40) 
17

>  <i_i_glide_rotatable_bonds>  (40) 
4

>  <r_i_docking_score>  (40) 
-2.48854

>  <r_i_glide_ligand_efficiency>  (40) 
-0.108197

>  <r_i_glide_ligand_efficiency_sa>  (40) 
-0.307699

>  <r_i_glide_ligand_efficiency_ln>  (40) 
-0.601751

>  <r_i_glide_gscore>  (40) 
-2.48854

>  <r_i_glide_lipo>  (40) 
-0.136692

>  <r_i_glide_hbond>  (40) 
-0.298139

>  <r_i_glide_metal>  (40) 
-0

>  <r_i_glide_rewards>  (40) 
-1.30097

>  <r_i_glide_evdw>  (40) 
-18.9988

>  <r_i_glide_ecoul>  (40) 
-3.45619

>  <r_i_glide_erotb>  (40) 
0.769172

>  <r_i_glide_esite>  (40) 
-0.0535377

>  <r_i_glide_emodel>  (40) 
-24.5045

>  <r_i_glide_energy>  (40) 
-22.455

>  <r_i_glide_einternal>  (40) 
2.54722

>  <r_i_glide_intrahb_reward>  (40) 
-0

>  <i_i_glide_confnum>  (40) 
5

>  <i_i_glide_posenum>  (40) 
9

>  <r_i_glide_eff_state_penalty>  (40) 
0

>  <ligand_id>  (40) 
13

>  <original_smiles>  (40) 
CC(C)C=CC1C(C)C1C=CC=C1CCCC12C(=O)C=CC2=O

>  <smiles>  (40) 
[H]C1=C([H])C(=O)C2(C1=O)C(=C([H])C([H])=C([H])C1([H])C([H])(C([H])=C([H])C([H])(C([H])([H])[H])C([H])([H])[H])C1([H])C([H])([H])[H])C([H])([H])C([H])([H])C2([H])[H]

$$$$
13:0:1
     RDKit          3D

 49 51  0  0  1  0  0  0  0  0999 V2000
   -1.1062    2.0810    2.6454 C   0  0  0  0  0  0  0  0  0  0  0  0
   -1.5429    1.7631    4.0828 C   0  0  0  0  0  0  0  0  0  0  0  0
   -1.4106    2.9896    4.9974 C   0  0  0  0  0  0  0  0  0  0  0  0
   -0.7707    0.5824    4.6337 C   0  0  0  0  0  0  0  0  0  0  0  0
   -1.3035   -0.6037    4.9953 C   0  0  0  0  0  0  0  0  0  0  0  0
   -0.5299   -1.7561    5.5390 C   0  0  2  0  0  0  0  0  0  0  0  0
    0.7255   -1.5260    6.3621 C   0  0  1  0  0  0  0  0  0  0  0  0
    1.0451   -2.3724    7.5823 C   0  0  0  0  0  0  0  0  0  0  0  0
    0.8304   -2.1101    4.9634 C   0  0  1  0  0  0  0  0  0  0  0  0
    1.2585   -3.5280    4.7778 C   0  0  0  0  0  0  0  0  0  0  0  0
    1.9898   -4.0185    3.7546 C   0  0  0  0  0  0  0  0  0  0  0  0
    2.3839   -5.4138    3.7255 C   0  0  0  0  0  0  0  0  0  0  0  0
    3.0654   -6.0564    2.7327 C   0  0  0  0  0  0  0  0  0  0  0  0
    3.4079   -7.5192    2.8353 C   0  0  0  0  0  0  0  0  0  0  0  0
    3.9155   -7.9337    1.4510 C   0  0  0  0  0  0  0  0  0  0  0  0
    4.4192   -6.6513    0.8021 C   0  0  0  0  0  0  0  0  0  0  0  0
    3.5673   -5.5188    1.3943 C   0  0  0  0  0  0  0  0  0  0  0  0
    4.3684   -4.2171    1.4106 C   0  0  0  0  0  0  0  0  0  0  0  0
    5.4050   -4.0467    2.0943 O   0  0  0  0  0  0  0  0  0  0  0  0
    3.7658   -3.2610    0.4845 C   0  0  0  0  0  0  0  0  0  0  0  0
    2.6234   -3.7885   -0.0561 C   0  0  0  0  0  0  0  0  0  0  0  0
    2.3969   -5.1322    0.4757 C   0  0  0  0  0  0  0  0  0  0  0  0
    1.4141   -5.8619    0.2510 O   0  0  0  0  0  0  0  0  0  0  0  0
   -1.2675    1.2290    1.9832 H   0  0  0  0  0  0  0  0  0  0  0  0
   -0.0505    2.3501    2.5915 H   0  0  0  0  0  0  0  0  0  0  0  0
   -1.6765    2.9188    2.2441 H   0  0  0  0  0  0  0  0  0  0  0  0
   -2.5851    1.4820    4.0622 H   0  0  0  0  0  0  0  0  0  0  0  0
   -1.7866    2.7764    5.9989 H   0  0  0  0  0  0  0  0  0  0  0  0
   -1.9847    3.8287    4.6030 H   0  0  0  0  0  0  0  0  0  0  0  0
   -0.3724    3.3108    5.0888 H   0  0  0  0  0  0  0  0  0  0  0  0
    0.2921    0.7389    4.7292 H   0  0  0  0  0  0  0  0  0  0  0  0
   -2.3687   -0.7527    4.8894 H   0  0  0  0  0  0  0  0  0  0  0  0
   -1.1727   -2.5885    5.8380 H   0  0  0  0  0  0  0  0  0  0  0  0
    1.0281   -0.4833    6.4872 H   0  0  0  0  0  0  0  0  0  0  0  0
    0.7394   -3.4110    7.4465 H   0  0  0  0  0  0  0  0  0  0  0  0
    0.5317   -1.9870    8.4621 H   0  0  0  0  0  0  0  0  0  0  0  0
    2.1210   -2.3524    7.7635 H   0  0  0  0  0  0  0  0  0  0  0  0
    1.2073   -1.4522    4.1762 H   0  0  0  0  0  0  0  0  0  0  0  0
    0.9554   -4.2186    5.5513 H   0  0  0  0  0  0  0  0  0  0  0  0
    2.2784   -3.3368    2.9693 H   0  0  0  0  0  0  0  0  0  0  0  0
    2.1261   -6.0136    4.5887 H   0  0  0  0  0  0  0  0  0  0  0  0
    4.1847   -7.6554    3.5853 H   0  0  0  0  0  0  0  0  0  0  0  0
    2.5384   -8.1054    3.1245 H   0  0  0  0  0  0  0  0  0  0  0  0
    4.6875   -8.6957    1.5043 H   0  0  0  0  0  0  0  0  0  0  0  0
    3.0786   -8.3368    0.8840 H   0  0  0  0  0  0  0  0  0  0  0  0
    5.4712   -6.5135    1.0555 H   0  0  0  0  0  0  0  0  0  0  0  0
    4.3705   -6.6874   -0.2884 H   0  0  0  0  0  0  0  0  0  0  0  0
    4.1980   -2.2990    0.2671 H   0  0  0  0  0  0  0  0  0  0  0  0
    1.9904   -3.3072   -0.7865 H   0  0  0  0  0  0  0  0  0  0  0  0
  1  2  1  0
  1 24  1  0
  1 25  1  0
  1 26  1  0
  2  3  1  0
  2  4  1  0
  2 27  1  0
  3 28  1  0
  3 29  1  0
  3 30  1  0
  4  5  2  3
  4 31  1  0
  5  6  1  0
  5 32  1  0
  6  9  1  0
  6  7  1  0
  6 33  1  1
  7  8  1  0
  7  9  1  0
  7 34  1  6
  8 35  1  0
  8 36  1  0
  8 37  1  0
  9 10  1  0
  9 38  1  6
 10 11  2  3
 10 39  1  0
 11 12  1  0
 11 40  1  0
 12 13  2  3
 12 41  1  0
 13 17  1  0
 13 14  1  0
 14 15  1  0
 14 42  1  0
 14 43  1  0
 15 16  1  0
 15 44  1  0
 15 45  1  0
 16 17  1  0
 16 46  1  0
 16 47  1  0
 17 22  1  0
 17 18  1  0
 18 19  2  0
 18 20  1  0
 20 21  2  0
 20 48  1  0
 21 22  1  0
 21 49  1  0
 22 23  2  0
M  END
>  <i_m_ct_stereo_status>  (41) 
1

>  <s_m_source_file>  (41) 
/var/tmp/pbs.5076255.sched01/tmpfev35gxg/05fxellcm.sdf

>  <i_m_source_file_index>  (41) 
17

>  <i_lp_mmshare_version>  (41) 
48012

>  <i_f3d_flags>  (41) 
0

>  <s_epik_input>  (41) 
W0NIM11bQ0hdKFtDSDNdKS9bQ0hdPVtDSF0vW0NAQEhdMVtDQEBIXShbQ0gzXSlbQ0BIXTEvW0NIXT1bQ0hdL1tDSF09QygvW0NIMl1bQ0gyXVtDSDJdMilDMjNDKD1PKVtDSF09W0NIXUMzPU8=

>  <s_epik_cmdline>  (41) 
J2VwaWtfcHl0aG9uJywgJy1waHQnLCAnMi4wJywgJy1waCcsICc3LjAnLCAnLXRuJywgJzgnLCAnLW1hJywgJzIwMCcsICctaW1hZScsICc8aW5maWxlLm1hZT4nLCAnLW9tYWUnLCAnPG91dGZpbGUubWFlPic=

>  <r_lp_tautomer_probability>  (41) 
1

>  <r_epik_Ionization_Penalty>  (41) 
0

>  <r_epik_Ionization_Penalty_Charging>  (41) 
0

>  <r_epik_Ionization_Penalty_Neutral>  (41) 
0

>  <r_epik_State_Penalty>  (41) 
-0

>  <r_epik_Charging_Adjusted_Penalty>  (41) 
0

>  <i_epik_Tot_Q>  (41) 
0

>  <i_epik_Tot_abs_Q>  (41) 
0

>  <s_lp_Force_Field>  (41) 
OPLS3e

>  <r_lp_Energy>  (41) 
10.1861

>  <b_lp_Chiralities_Consistent>  (41) 
1

>  <s_lp_Variant>  (41) 
13:0-1

>  <s_i_glide_gridfile>  (41) 
pfpi4k_grid

>  <i_i_glide_lignum>  (41) 
17

>  <i_i_glide_rotatable_bonds>  (41) 
4

>  <r_i_docking_score>  (41) 
-2.30229

>  <r_i_glide_ligand_efficiency>  (41) 
-0.1001

>  <r_i_glide_ligand_efficiency_sa>  (41) 
-0.28467

>  <r_i_glide_ligand_efficiency_ln>  (41) 
-0.556715

>  <r_i_glide_gscore>  (41) 
-2.30229

>  <r_i_glide_lipo>  (41) 
-0.15175

>  <r_i_glide_hbond>  (41) 
-0.15175

>  <r_i_glide_metal>  (41) 
-0

>  <r_i_glide_rewards>  (41) 
-1.31975

>  <r_i_glide_evdw>  (41) 
-17.8783

>  <r_i_glide_ecoul>  (41) 
-3.35089

>  <r_i_glide_erotb>  (41) 
0.769172

>  <r_i_glide_esite>  (41) 
-0.0516696

>  <r_i_glide_emodel>  (41) 
-22.948

>  <r_i_glide_energy>  (41) 
-21.2292

>  <r_i_glide_einternal>  (41) 
2.66126

>  <r_i_glide_intrahb_reward>  (41) 
-0

>  <i_i_glide_confnum>  (41) 
5

>  <i_i_glide_posenum>  (41) 
10

>  <r_i_glide_eff_state_penalty>  (41) 
0

>  <ligand_id>  (41) 
13

>  <original_smiles>  (41) 
CC(C)C=CC1C(C)C1C=CC=C1CCCC12C(=O)C=CC2=O

>  <smiles>  (41) 
[H]C1=C([H])C(=O)C2(C1=O)C(=C([H])C([H])=C([H])C1([H])C([H])(C([H])=C([H])C([H])(C([H])([H])[H])C([H])([H])[H])C1([H])C([H])([H])[H])C([H])([H])C([H])([H])C2([H])[H]

$$$$
13:0:2
     RDKit          3D

 49 51  0  0  1  0  0  0  0  0999 V2000
   -0.9603    1.1505    3.7250 C   0  0  0  0  0  0  0  0  0  0  0  0
   -1.2476    0.9375    5.2193 C   0  0  0  0  0  0  0  0  0  0  0  0
   -0.1408    1.5558    6.0897 C   0  0  0  0  0  0  0  0  0  0  0  0
   -1.4952   -0.5413    5.5247 C   0  0  0  0  0  0  0  0  0  0  0  0
   -0.7615   -1.3021    6.3598 C   0  0  0  0  0  0  0  0  0  0  0  0
   -0.9983   -2.7377    6.6650 C   0  0  2  0  0  0  0  0  0  0  0  0
   -0.6058   -3.2993    8.0175 C   0  0  1  0  0  0  0  0  0  0  0  0
   -1.4996   -4.2985    8.7382 C   0  0  0  0  0  0  0  0  0  0  0  0
    0.1684   -3.7010    6.7682 C   0  0  1  0  0  0  0  0  0  0  0  0
    0.0723   -5.0930    6.2370 C   0  0  0  0  0  0  0  0  0  0  0  0
    0.8276   -5.6365    5.2668 C   0  0  0  0  0  0  0  0  0  0  0  0
    0.6352   -7.0208    4.8601 C   0  0  0  0  0  0  0  0  0  0  0  0
    1.3008   -7.7023    3.9136 C   0  0  0  0  0  0  0  0  0  0  0  0
    0.9928   -9.1395    3.5858 C   0  0  0  0  0  0  0  0  0  0  0  0
    1.7863   -9.4649    2.3084 C   0  0  0  0  0  0  0  0  0  0  0  0
    2.9404   -8.4804    2.2838 C   0  0  0  0  0  0  0  0  0  0  0  0
    2.4331   -7.2131    2.9841 C   0  0  0  0  0  0  0  0  0  0  0  0
    3.6192   -6.4950    3.6573 C   0  0  0  0  0  0  0  0  0  0  0  0
    4.2865   -6.9316    4.5592 O   0  0  0  0  0  0  0  0  0  0  0  0
    3.7976   -5.1881    2.9667 C   0  0  0  0  0  0  0  0  0  0  0  0
    2.8446   -5.0026    2.0437 C   0  0  0  0  0  0  0  0  0  0  0  0
    1.9215   -6.1485    2.0031 C   0  0  0  0  0  0  0  0  0  0  0  0
    0.9108   -6.2575    1.3111 O   0  0  0  0  0  0  0  0  0  0  0  0
   -1.7805    0.8037    3.1050 H   0  0  0  0  0  0  0  0  0  0  0  0
   -0.0596    0.6226    3.4099 H   0  0  0  0  0  0  0  0  0  0  0  0
   -0.8136    2.2091    3.4997 H   0  0  0  0  0  0  0  0  0  0  0  0
   -2.1757    1.4612    5.4514 H   0  0  0  0  0  0  0  0  0  0  0  0
   -0.3831    1.4728    7.1503 H   0  0  0  0  0  0  0  0  0  0  0  0
    0.0007    2.6145    5.8725 H   0  0  0  0  0  0  0  0  0  0  0  0
    0.8190    1.0635    5.9243 H   0  0  0  0  0  0  0  0  0  0  0  0
   -2.3386   -0.9772    5.0090 H   0  0  0  0  0  0  0  0  0  0  0  0
    0.0869   -0.8668    6.8733 H   0  0  0  0  0  0  0  0  0  0  0  0
   -1.9221   -3.1139    6.2186 H   0  0  0  0  0  0  0  0  0  0  0  0
   -0.1008   -2.6047    8.6937 H   0  0  0  0  0  0  0  0  0  0  0  0
   -2.0062   -4.9621    8.0347 H   0  0  0  0  0  0  0  0  0  0  0  0
   -2.2727   -3.8011    9.3222 H   0  0  0  0  0  0  0  0  0  0  0  0
   -0.8924   -4.9068    9.4102 H   0  0  0  0  0  0  0  0  0  0  0  0
    1.1607   -3.2647    6.6347 H   0  0  0  0  0  0  0  0  0  0  0  0
   -0.6799   -5.7264    6.6856 H   0  0  0  0  0  0  0  0  0  0  0  0
    1.5813   -5.0158    4.7984 H   0  0  0  0  0  0  0  0  0  0  0  0
   -0.1462   -7.5754    5.3867 H   0  0  0  0  0  0  0  0  0  0  0  0
    1.3194   -9.7686    4.4125 H   0  0  0  0  0  0  0  0  0  0  0  0
   -0.0755   -9.2888    3.4433 H   0  0  0  0  0  0  0  0  0  0  0  0
    2.1209  -10.4947    2.2845 H   0  0  0  0  0  0  0  0  0  0  0  0
    1.1642   -9.2768    1.4437 H   0  0  0  0  0  0  0  0  0  0  0  0
    3.7885   -8.9133    2.8133 H   0  0  0  0  0  0  0  0  0  0  0  0
    3.2869   -8.2807    1.2644 H   0  0  0  0  0  0  0  0  0  0  0  0
    4.6299   -4.5453    3.2158 H   0  0  0  0  0  0  0  0  0  0  0  0
    2.7560   -4.1453    1.3779 H   0  0  0  0  0  0  0  0  0  0  0  0
  1  2  1  0
  1 24  1  0
  1 25  1  0
  1 26  1  0
  2  3  1  0
  2  4  1  0
  2 27  1  0
  3 28  1  0
  3 29  1  0
  3 30  1  0
  4  5  2  3
  4 31  1  0
  5  6  1  0
  5 32  1  0
  6  9  1  0
  6  7  1  0
  6 33  1  6
  7  8  1  0
  7  9  1  0
  7 34  1  1
  8 35  1  0
  8 36  1  0
  8 37  1  0
  9 10  1  0
  9 38  1  1
 10 11  2  3
 10 39  1  0
 11 12  1  0
 11 40  1  0
 12 13  2  3
 12 41  1  0
 13 17  1  0
 13 14  1  0
 14 15  1  0
 14 42  1  0
 14 43  1  0
 15 16  1  0
 15 44  1  0
 15 45  1  0
 16 17  1  0
 16 46  1  0
 16 47  1  0
 17 22  1  0
 17 18  1  0
 18 19  2  0
 18 20  1  0
 20 21  2  0
 20 48  1  0
 21 22  1  0
 21 49  1  0
 22 23  2  0
M  END
>  <i_m_ct_stereo_status>  (42) 
1

>  <s_m_source_file>  (42) 
/var/tmp/pbs.5076255.sched01/tmpfev35gxg/05fxellcm.sdf

>  <i_m_source_file_index>  (42) 
17

>  <i_lp_mmshare_version>  (42) 
48012

>  <i_f3d_flags>  (42) 
0

>  <s_epik_input>  (42) 
W0NIM11bQ0hdKFtDSDNdKS9bQ0hdPVtDSF0vW0NAQEhdMVtDQEBIXShbQ0gzXSlbQ0BIXTEvW0NIXT1bQ0hdL1tDSF09QygvW0NIMl1bQ0gyXVtDSDJdMilDMjNDKD1PKVtDSF09W0NIXUMzPU8=

>  <s_epik_cmdline>  (42) 
J2VwaWtfcHl0aG9uJywgJy1waHQnLCAnMi4wJywgJy1waCcsICc3LjAnLCAnLXRuJywgJzgnLCAnLW1hJywgJzIwMCcsICctaW1hZScsICc8aW5maWxlLm1hZT4nLCAnLW9tYWUnLCAnPG91dGZpbGUubWFlPic=

>  <r_lp_tautomer_probability>  (42) 
1

>  <r_epik_Ionization_Penalty>  (42) 
0

>  <r_epik_Ionization_Penalty_Charging>  (42) 
0

>  <r_epik_Ionization_Penalty_Neutral>  (42) 
0

>  <r_epik_State_Penalty>  (42) 
-0

>  <r_epik_Charging_Adjusted_Penalty>  (42) 
0

>  <i_epik_Tot_Q>  (42) 
0

>  <i_epik_Tot_abs_Q>  (42) 
0

>  <s_lp_Force_Field>  (42) 
OPLS3e

>  <r_lp_Energy>  (42) 
10.1861

>  <b_lp_Chiralities_Consistent>  (42) 
1

>  <s_lp_Variant>  (42) 
13:0-1

>  <s_i_glide_gridfile>  (42) 
pfpi4k_grid

>  <i_i_glide_lignum>  (42) 
17

>  <i_i_glide_rotatable_bonds>  (42) 
4

>  <r_i_docking_score>  (42) 
-2.12697

>  <r_i_glide_ligand_efficiency>  (42) 
-0.0924771

>  <r_i_glide_ligand_efficiency_sa>  (42) 
-0.262993

>  <r_i_glide_ligand_efficiency_ln>  (42) 
-0.514322

>  <r_i_glide_gscore>  (42) 
-2.12697

>  <r_i_glide_lipo>  (42) 
-0.0805201

>  <r_i_glide_hbond>  (42) 
-0.16

>  <r_i_glide_metal>  (42) 
-0

>  <r_i_glide_rewards>  (42) 
-1.29252

>  <r_i_glide_evdw>  (42) 
-16.6835

>  <r_i_glide_ecoul>  (42) 
-3.33934

>  <r_i_glide_erotb>  (42) 
0.769172

>  <r_i_glide_esite>  (42) 
-0.0280266

>  <r_i_glide_emodel>  (42) 
-21.9405

>  <r_i_glide_energy>  (42) 
-20.0228

>  <r_i_glide_einternal>  (42) 
1.58611

>  <r_i_glide_intrahb_reward>  (42) 
-0

>  <i_i_glide_confnum>  (42) 
3

>  <i_i_glide_posenum>  (42) 
1

>  <r_i_glide_eff_state_penalty>  (42) 
0

>  <ligand_id>  (42) 
13

>  <original_smiles>  (42) 
CC(C)C=CC1C(C)C1C=CC=C1CCCC12C(=O)C=CC2=O

>  <smiles>  (42) 
[H]C1=C([H])C(=O)C2(C1=O)C(=C([H])C([H])=C([H])C1([H])C([H])(C([H])=C([H])C([H])(C([H])([H])[H])C([H])([H])[H])C1([H])C([H])([H])[H])C([H])([H])C([H])([H])C2([H])[H]

$$$$
13:1:0
     RDKit          3D

 49 51  0  0  1  0  0  0  0  0999 V2000
    3.4340   -3.0558   -3.2903 C   0  0  0  0  0  0  0  0  0  0  0  0
    3.5480   -1.6672   -2.6427 C   0  0  0  0  0  0  0  0  0  0  0  0
    3.5273   -0.5574   -3.7034 C   0  0  0  0  0  0  0  0  0  0  0  0
    4.7975   -1.5742   -1.7771 C   0  0  0  0  0  0  0  0  0  0  0  0
    4.8504   -1.4281   -0.4392 C   0  0  0  0  0  0  0  0  0  0  0  0
    3.7252   -1.3275    0.5242 C   0  0  2  0  0  0  0  0  0  0  0  0
    3.6549   -0.1722    1.4981 C   0  0  1  0  0  0  0  0  0  0  0  0
    2.3318    0.4756    1.8456 C   0  0  0  0  0  0  0  0  0  0  0  0
    3.9549   -1.5706    2.0062 C   0  0  1  0  0  0  0  0  0  0  0  0
    2.9456   -2.2872    2.8265 C   0  0  0  0  0  0  0  0  0  0  0  0
    2.6957   -3.6001    2.7888 C   0  0  0  0  0  0  0  0  0  0  0  0
    1.6574   -4.2330    3.5977 C   0  0  0  0  0  0  0  0  0  0  0  0
    1.3076   -5.5333    3.6221 C   0  0  0  0  0  0  0  0  0  0  0  0
    0.2105   -6.0543    4.5361 C   0  0  0  0  0  0  0  0  0  0  0  0
    0.2684   -7.5744    4.4668 C   0  0  0  0  0  0  0  0  0  0  0  0
    0.9248   -7.8886    3.1238 C   0  0  0  0  0  0  0  0  0  0  0  0
    1.8635   -6.7216    2.8314 C   0  0  0  0  0  0  0  0  0  0  0  0
    2.0178   -6.5393    1.2947 C   0  0  0  0  0  0  0  0  0  0  0  0
    1.0751   -6.2092    0.5607 O   0  0  0  0  0  0  0  0  0  0  0  0
    3.4228   -6.8534    0.9580 C   0  0  0  0  0  0  0  0  0  0  0  0
    4.1479   -7.1257    2.0443 C   0  0  0  0  0  0  0  0  0  0  0  0
    3.3207   -7.0225    3.2447 C   0  0  0  0  0  0  0  0  0  0  0  0
    3.6899   -7.1602    4.4022 O   0  0  0  0  0  0  0  0  0  0  0  0
    3.3830   -3.8354   -2.5297 H   0  0  0  0  0  0  0  0  0  0  0  0
    4.2866   -3.2749   -3.9339 H   0  0  0  0  0  0  0  0  0  0  0  0
    2.5282   -3.1326   -3.8940 H   0  0  0  0  0  0  0  0  0  0  0  0
    2.6673   -1.5269   -2.0183 H   0  0  0  0  0  0  0  0  0  0  0  0
    3.5334    0.4285   -3.2372 H   0  0  0  0  0  0  0  0  0  0  0  0
    2.6257   -0.6218   -4.3144 H   0  0  0  0  0  0  0  0  0  0  0  0
    4.3871   -0.6182   -4.3710 H   0  0  0  0  0  0  0  0  0  0  0  0
    5.7282   -1.6386   -2.3184 H   0  0  0  0  0  0  0  0  0  0  0  0
    5.8413   -1.3749    0.0070 H   0  0  0  0  0  0  0  0  0  0  0  0
    2.7693   -1.6962    0.1245 H   0  0  0  0  0  0  0  0  0  0  0  0
    4.4908    0.5300    1.4664 H   0  0  0  0  0  0  0  0  0  0  0  0
    1.5017   -0.2104    1.6454 H   0  0  0  0  0  0  0  0  0  0  0  0
    2.1692    1.3826    1.2678 H   0  0  0  0  0  0  0  0  0  0  0  0
    2.3133    0.7367    2.9036 H   0  0  0  0  0  0  0  0  0  0  0  0
    4.9837   -1.7734    2.3277 H   0  0  0  0  0  0  0  0  0  0  0  0
    2.3706   -1.6599    3.5065 H   0  0  0  0  0  0  0  0  0  0  0  0
    3.3108   -4.2019    2.1260 H   0  0  0  0  0  0  0  0  0  0  0  0
    1.1114   -3.5650    4.2661 H   0  0  0  0  0  0  0  0  0  0  0  0
    0.3584   -5.6854    5.5432 H   0  0  0  0  0  0  0  0  0  0  0  0
   -0.7417   -5.6904    4.1697 H   0  0  0  0  0  0  0  0  0  0  0  0
    0.8963   -7.9610    5.2614 H   0  0  0  0  0  0  0  0  0  0  0  0
   -0.7086   -8.0278    4.5528 H   0  0  0  0  0  0  0  0  0  0  0  0
    1.4391   -8.8616    3.1393 H   0  0  0  0  0  0  0  0  0  0  0  0
    0.1494   -7.9772    2.3566 H   0  0  0  0  0  0  0  0  0  0  0  0
    3.7649   -6.8654   -0.0997 H   0  0  0  0  0  0  0  0  0  0  0  0
    5.1872   -7.4025    2.0528 H   0  0  0  0  0  0  0  0  0  0  0  0
  1  2  1  0
  1 24  1  0
  1 25  1  0
  1 26  1  0
  2  3  1  0
  2  4  1  0
  2 27  1  0
  3 28  1  0
  3 29  1  0
  3 30  1  0
  4  5  2  3
  4 31  1  0
  5  6  1  0
  5 32  1  0
  6  9  1  0
  6  7  1  0
  6 33  1  6
  7  8  1  0
  7  9  1  0
  7 34  1  6
  8 35  1  0
  8 36  1  0
  8 37  1  0
  9 10  1  0
  9 38  1  6
 10 11  2  3
 10 39  1  0
 11 12  1  0
 11 40  1  0
 12 13  2  3
 12 41  1  0
 13 17  1  0
 13 14  1  0
 14 15  1  0
 14 42  1  0
 14 43  1  0
 15 16  1  0
 15 44  1  0
 15 45  1  0
 16 17  1  0
 16 46  1  0
 16 47  1  0
 17 22  1  0
 17 18  1  0
 18 19  2  0
 18 20  1  0
 20 21  2  0
 20 48  1  0
 21 22  1  0
 21 49  1  0
 22 23  2  0
M  END
>  <i_m_ct_stereo_status>  (43) 
1

>  <s_m_source_file>  (43) 
/var/tmp/pbs.5076255.sched01/tmpfev35gxg/05fxellcm.sdf

>  <i_m_source_file_index>  (43) 
18

>  <i_lp_mmshare_version>  (43) 
48012

>  <i_f3d_flags>  (43) 
0

>  <s_epik_input>  (43) 
W0NIM11bQ0hdKFtDSDNdKS9bQ0hdPVtDSF0vW0NAQEhdMVtDQEBIXShbQ0gzXSlbQ0BIXTEvW0NIXT1bQ0hdL1tDSF09QygvW0NIMl1bQ0gyXVtDSDJdMilDMjNDKD1PKVtDSF09W0NIXUMzPU8=

>  <s_epik_cmdline>  (43) 
J2VwaWtfcHl0aG9uJywgJy1waHQnLCAnMi4wJywgJy1waCcsICc3LjAnLCAnLXRuJywgJzgnLCAnLW1hJywgJzIwMCcsICctaW1hZScsICc8aW5maWxlLm1hZT4nLCAnLW9tYWUnLCAnPG91dGZpbGUubWFlPic=

>  <r_lp_tautomer_probability>  (43) 
1

>  <r_epik_Ionization_Penalty>  (43) 
0

>  <r_epik_Ionization_Penalty_Charging>  (43) 
0

>  <r_epik_Ionization_Penalty_Neutral>  (43) 
0

>  <r_epik_State_Penalty>  (43) 
-0

>  <r_epik_Charging_Adjusted_Penalty>  (43) 
0

>  <i_epik_Tot_Q>  (43) 
0

>  <i_epik_Tot_abs_Q>  (43) 
0

>  <s_lp_Force_Field>  (43) 
OPLS3e

>  <r_lp_Energy>  (43) 
9.80329

>  <b_lp_Chiralities_Consistent>  (43) 
1

>  <s_lp_Variant>  (43) 
13:0-2

>  <s_i_glide_gridfile>  (43) 
pfpi4k_grid

>  <i_i_glide_lignum>  (43) 
18

>  <i_i_glide_rotatable_bonds>  (43) 
4

>  <r_i_docking_score>  (43) 
-2.72261

>  <r_i_glide_ligand_efficiency>  (43) 
-0.118374

>  <r_i_glide_ligand_efficiency_sa>  (43) 
-0.336641

>  <r_i_glide_ligand_efficiency_ln>  (43) 
-0.658351

>  <r_i_glide_gscore>  (43) 
-2.72261

>  <r_i_glide_lipo>  (43) 
-0.464928

>  <r_i_glide_hbond>  (43) 
-0.16

>  <r_i_glide_metal>  (43) 
-0

>  <r_i_glide_rewards>  (43) 
-1.29252

>  <r_i_glide_evdw>  (43) 
-22.091

>  <r_i_glide_ecoul>  (43) 
-2.94027

>  <r_i_glide_erotb>  (43) 
0.769172

>  <r_i_glide_esite>  (43) 
-0.0287368

>  <r_i_glide_emodel>  (43) 
-28.5725

>  <r_i_glide_energy>  (43) 
-25.0313

>  <r_i_glide_einternal>  (43) 
1.56267

>  <r_i_glide_intrahb_reward>  (43) 
-0

>  <i_i_glide_confnum>  (43) 
2

>  <i_i_glide_posenum>  (43) 
15

>  <r_i_glide_eff_state_penalty>  (43) 
0

>  <ligand_id>  (43) 
13

>  <original_smiles>  (43) 
CC(C)C=CC1C(C)C1C=CC=C1CCCC12C(=O)C=CC2=O

>  <smiles>  (43) 
[H]C1=C([H])C(=O)C2(C1=O)C(=C([H])C([H])=C([H])C1([H])C([H])(C([H])=C([H])C([H])(C([H])([H])[H])C([H])([H])[H])C1([H])C([H])([H])[H])C([H])([H])C([H])([H])C2([H])[H]

$$$$
13:1:1
     RDKit          3D

 49 51  0  0  1  0  0  0  0  0999 V2000
    7.1657   -9.1081    3.5047 C   0  0  0  0  0  0  0  0  0  0  0  0
    6.4095   -8.6704    2.2431 C   0  0  0  0  0  0  0  0  0  0  0  0
    5.9018   -9.8850    1.4489 C   0  0  0  0  0  0  0  0  0  0  0  0
    7.2817   -7.7820    1.3726 C   0  0  0  0  0  0  0  0  0  0  0  0
    7.0599   -6.4913    1.0609 C   0  0  0  0  0  0  0  0  0  0  0  0
    5.9242   -5.6405    1.4939 C   0  0  2  0  0  0  0  0  0  0  0  0
    6.1505   -4.1661    1.7946 C   0  0  1  0  0  0  0  0  0  0  0  0
    5.1309   -3.1081    1.4172 C   0  0  0  0  0  0  0  0  0  0  0  0
    5.8379   -5.1316    2.9192 C   0  0  1  0  0  0  0  0  0  0  0  0
    4.5345   -5.0436    3.6233 C   0  0  0  0  0  0  0  0  0  0  0  0
    3.5351   -5.9507    3.5183 C   0  0  0  0  0  0  0  0  0  0  0  0
    2.2601   -5.7813    4.1915 C   0  0  0  0  0  0  0  0  0  0  0  0
    1.1539   -6.5705    4.0722 C   0  0  0  0  0  0  0  0  0  0  0  0
   -0.0991   -6.2802    4.8536 C   0  0  0  0  0  0  0  0  0  0  0  0
   -1.0133   -7.5073    4.6443 C   0  0  0  0  0  0  0  0  0  0  0  0
   -0.5697   -8.1413    3.3373 C   0  0  0  0  0  0  0  0  0  0  0  0
    0.9358   -7.8241    3.2173 C   0  0  0  0  0  0  0  0  0  0  0  0
    1.3595   -7.7604    1.7408 C   0  0  0  0  0  0  0  0  0  0  0  0
    0.9587   -6.8975    0.9369 O   0  0  0  0  0  0  0  0  0  0  0  0
    2.2603   -8.8682    1.4537 C   0  0  0  0  0  0  0  0  0  0  0  0
    2.5260   -9.5785    2.5687 C   0  0  0  0  0  0  0  0  0  0  0  0
    1.8148   -8.9905    3.7026 C   0  0  0  0  0  0  0  0  0  0  0  0
    1.8899   -9.3549    4.8819 O   0  0  0  0  0  0  0  0  0  0  0  0
    7.4692   -8.2444    4.0964 H   0  0  0  0  0  0  0  0  0  0  0  0
    8.0644   -9.6772    3.2658 H   0  0  0  0  0  0  0  0  0  0  0  0
    6.5383   -9.7363    4.1368 H   0  0  0  0  0  0  0  0  0  0  0  0
    5.5390   -8.0987    2.5611 H   0  0  0  0  0  0  0  0  0  0  0  0
    5.2869   -9.5773    0.6014 H   0  0  0  0  0  0  0  0  0  0  0  0
    5.2906  -10.5345    2.0763 H   0  0  0  0  0  0  0  0  0  0  0  0
    6.7223  -10.4935    1.0679 H   0  0  0  0  0  0  0  0  0  0  0  0
    8.1602   -8.2564    0.9561 H   0  0  0  0  0  0  0  0  0  0  0  0
    7.7682   -6.0087    0.4063 H   0  0  0  0  0  0  0  0  0  0  0  0
    4.9982   -5.8997    0.9732 H   0  0  0  0  0  0  0  0  0  0  0  0
    7.1791   -3.8143    1.7103 H   0  0  0  0  0  0  0  0  0  0  0  0
    4.1424   -3.5545    1.3045 H   0  0  0  0  0  0  0  0  0  0  0  0
    5.4008   -2.6216    0.4811 H   0  0  0  0  0  0  0  0  0  0  0  0
    5.0765   -2.3519    2.2009 H   0  0  0  0  0  0  0  0  0  0  0  0
    6.6553   -5.3918    3.5967 H   0  0  0  0  0  0  0  0  0  0  0  0
    4.4106   -4.1675    4.2438 H   0  0  0  0  0  0  0  0  0  0  0  0
    3.7284   -6.8264    2.9195 H   0  0  0  0  0  0  0  0  0  0  0  0
    2.1876   -4.9393    4.8667 H   0  0  0  0  0  0  0  0  0  0  0  0
    0.1271   -6.1087    5.9031 H   0  0  0  0  0  0  0  0  0  0  0  0
   -0.5547   -5.3723    4.4676 H   0  0  0  0  0  0  0  0  0  0  0  0
   -0.8588   -8.2352    5.4383 H   0  0  0  0  0  0  0  0  0  0  0  0
   -2.0668   -7.2440    4.6257 H   0  0  0  0  0  0  0  0  0  0  0  0
   -0.7827   -9.2114    3.3084 H   0  0  0  0  0  0  0  0  0  0  0  0
   -1.1339   -7.7015    2.5178 H   0  0  0  0  0  0  0  0  0  0  0  0
    2.6100   -9.0822    0.4725 H   0  0  0  0  0  0  0  0  0  0  0  0
    3.1349  -10.4769    2.5979 H   0  0  0  0  0  0  0  0  0  0  0  0
  1  2  1  0
  1 24  1  0
  1 25  1  0
  1 26  1  0
  2  3  1  0
  2  4  1  0
  2 27  1  0
  3 28  1  0
  3 29  1  0
  3 30  1  0
  4  5  2  3
  4 31  1  0
  5  6  1  0
  5 32  1  0
  6  9  1  0
  6  7  1  0
  6 33  1  6
  7  8  1  0
  7  9  1  0
  7 34  1  1
  8 35  1  0
  8 36  1  0
  8 37  1  0
  9 10  1  0
  9 38  1  1
 10 11  2  3
 10 39  1  0
 11 12  1  0
 11 40  1  0
 12 13  2  3
 12 41  1  0
 13 17  1  0
 13 14  1  0
 14 15  1  0
 14 42  1  0
 14 43  1  0
 15 16  1  0
 15 44  1  0
 15 45  1  0
 16 17  1  0
 16 46  1  0
 16 47  1  0
 17 22  1  0
 17 18  1  0
 18 19  2  0
 18 20  1  0
 20 21  2  0
 20 48  1  0
 21 22  1  0
 21 49  1  0
 22 23  2  0
M  END
>  <i_m_ct_stereo_status>  (44) 
1

>  <s_m_source_file>  (44) 
/var/tmp/pbs.5076255.sched01/tmpfev35gxg/05fxellcm.sdf

>  <i_m_source_file_index>  (44) 
18

>  <i_lp_mmshare_version>  (44) 
48012

>  <i_f3d_flags>  (44) 
0

>  <s_epik_input>  (44) 
W0NIM11bQ0hdKFtDSDNdKS9bQ0hdPVtDSF0vW0NAQEhdMVtDQEBIXShbQ0gzXSlbQ0BIXTEvW0NIXT1bQ0hdL1tDSF09QygvW0NIMl1bQ0gyXVtDSDJdMilDMjNDKD1PKVtDSF09W0NIXUMzPU8=

>  <s_epik_cmdline>  (44) 
J2VwaWtfcHl0aG9uJywgJy1waHQnLCAnMi4wJywgJy1waCcsICc3LjAnLCAnLXRuJywgJzgnLCAnLW1hJywgJzIwMCcsICctaW1hZScsICc8aW5maWxlLm1hZT4nLCAnLW9tYWUnLCAnPG91dGZpbGUubWFlPic=

>  <r_lp_tautomer_probability>  (44) 
1

>  <r_epik_Ionization_Penalty>  (44) 
0

>  <r_epik_Ionization_Penalty_Charging>  (44) 
0

>  <r_epik_Ionization_Penalty_Neutral>  (44) 
0

>  <r_epik_State_Penalty>  (44) 
-0

>  <r_epik_Charging_Adjusted_Penalty>  (44) 
0

>  <i_epik_Tot_Q>  (44) 
0

>  <i_epik_Tot_abs_Q>  (44) 
0

>  <s_lp_Force_Field>  (44) 
OPLS3e

>  <r_lp_Energy>  (44) 
9.80329

>  <b_lp_Chiralities_Consistent>  (44) 
1

>  <s_lp_Variant>  (44) 
13:0-2

>  <s_i_glide_gridfile>  (44) 
pfpi4k_grid

>  <i_i_glide_lignum>  (44) 
18

>  <i_i_glide_rotatable_bonds>  (44) 
4

>  <r_i_docking_score>  (44) 
-2.18433

>  <r_i_glide_ligand_efficiency>  (44) 
-0.094971

>  <r_i_glide_ligand_efficiency_sa>  (44) 
-0.270085

>  <r_i_glide_ligand_efficiency_ln>  (44) 
-0.528192

>  <r_i_glide_gscore>  (44) 
-2.18433

>  <r_i_glide_lipo>  (44) 
-0.410115

>  <r_i_glide_hbond>  (44) 
0

>  <r_i_glide_metal>  (44) 
-0

>  <r_i_glide_rewards>  (44) 
-1.29252

>  <r_i_glide_evdw>  (44) 
-19.4507

>  <r_i_glide_ecoul>  (44) 
-1.523

>  <r_i_glide_erotb>  (44) 
0.769172

>  <r_i_glide_esite>  (44) 
-0.0498803

>  <r_i_glide_emodel>  (44) 
-23.3035

>  <r_i_glide_energy>  (44) 
-20.9737

>  <r_i_glide_einternal>  (44) 
2.02565

>  <r_i_glide_intrahb_reward>  (44) 
-0

>  <i_i_glide_confnum>  (44) 
5

>  <i_i_glide_posenum>  (44) 
24

>  <r_i_glide_eff_state_penalty>  (44) 
0

>  <ligand_id>  (44) 
13

>  <original_smiles>  (44) 
CC(C)C=CC1C(C)C1C=CC=C1CCCC12C(=O)C=CC2=O

>  <smiles>  (44) 
[H]C1=C([H])C(=O)C2(C1=O)C(=C([H])C([H])=C([H])C1([H])C([H])(C([H])=C([H])C([H])(C([H])([H])[H])C([H])([H])[H])C1([H])C([H])([H])[H])C([H])([H])C([H])([H])C2([H])[H]

$$$$
13:1:2
     RDKit          3D

 49 51  0  0  1  0  0  0  0  0999 V2000
    4.3954   -2.7078    1.1444 C   0  0  0  0  0  0  0  0  0  0  0  0
    3.4387   -1.6562    1.7259 C   0  0  0  0  0  0  0  0  0  0  0  0
    3.3856   -0.4005    0.8446 C   0  0  0  0  0  0  0  0  0  0  0  0
    3.8224   -1.3027    3.1548 C   0  0  0  0  0  0  0  0  0  0  0  0
    3.0828   -1.4765    4.2669 C   0  0  0  0  0  0  0  0  0  0  0  0
    1.7130   -2.0504    4.3804 C   0  0  2  0  0  0  0  0  0  0  0  0
    0.6644   -1.3571    5.2265 C   0  0  1  0  0  0  0  0  0  0  0  0
   -0.7828   -1.3106    4.7777 C   0  0  0  0  0  0  0  0  0  0  0  0
    1.2526   -2.6763    5.6816 C   0  0  1  0  0  0  0  0  0  0  0  0
    0.4007   -3.8953    5.6774 C   0  0  0  0  0  0  0  0  0  0  0  0
    0.6039   -4.9730    4.9015 C   0  0  0  0  0  0  0  0  0  0  0  0
   -0.2878   -6.1238    4.8995 C   0  0  0  0  0  0  0  0  0  0  0  0
   -0.1680   -7.2569    4.1741 C   0  0  0  0  0  0  0  0  0  0  0  0
   -1.1719   -8.3774    4.2773 C   0  0  0  0  0  0  0  0  0  0  0  0
   -0.5763   -9.5648    3.5233 C   0  0  0  0  0  0  0  0  0  0  0  0
    0.3910   -8.9619    2.5290 C   0  0  0  0  0  0  0  0  0  0  0  0
    0.9174   -7.6789    3.1721 C   0  0  0  0  0  0  0  0  0  0  0  0
    1.2719   -6.6929    2.0507 C   0  0  0  0  0  0  0  0  0  0  0  0
    0.4371   -6.2701    1.2459 O   0  0  0  0  0  0  0  0  0  0  0  0
    2.7365   -6.4574    2.0943 C   0  0  0  0  0  0  0  0  0  0  0  0
    3.2959   -7.1394    3.1119 C   0  0  0  0  0  0  0  0  0  0  0  0
    2.2740   -7.8787    3.8592 C   0  0  0  0  0  0  0  0  0  0  0  0
    2.4449   -8.5670    4.8616 O   0  0  0  0  0  0  0  0  0  0  0  0
    4.3816   -3.6216    1.7393 H   0  0  0  0  0  0  0  0  0  0  0  0
    5.4234   -2.3439    1.1150 H   0  0  0  0  0  0  0  0  0  0  0  0
    4.1078   -2.9748    0.1263 H   0  0  0  0  0  0  0  0  0  0  0  0
    2.4416   -2.0909    1.7122 H   0  0  0  0  0  0  0  0  0  0  0  0
    2.6447    0.3082    1.2169 H   0  0  0  0  0  0  0  0  0  0  0  0
    3.0972   -0.6576   -0.1757 H   0  0  0  0  0  0  0  0  0  0  0  0
    4.3479    0.1108    0.8004 H   0  0  0  0  0  0  0  0  0  0  0  0
    4.8037   -0.8627    3.2666 H   0  0  0  0  0  0  0  0  0  0  0  0
    3.5302   -1.1594    5.2024 H   0  0  0  0  0  0  0  0  0  0  0  0
    1.3579   -2.5353    3.4654 H   0  0  0  0  0  0  0  0  0  0  0  0
    0.9923   -0.4615    5.7597 H   0  0  0  0  0  0  0  0  0  0  0  0
   -0.9906   -2.1182    4.0753 H   0  0  0  0  0  0  0  0  0  0  0  0
   -1.0060   -0.3650    4.2873 H   0  0  0  0  0  0  0  0  0  0  0  0
   -1.4408   -1.4254    5.6383 H   0  0  0  0  0  0  0  0  0  0  0  0
    1.9434   -2.6451    6.5302 H   0  0  0  0  0  0  0  0  0  0  0  0
   -0.4454   -3.8707    6.3553 H   0  0  0  0  0  0  0  0  0  0  0  0
    1.4791   -4.9618    4.2646 H   0  0  0  0  0  0  0  0  0  0  0  0
   -1.1457   -6.0616    5.5633 H   0  0  0  0  0  0  0  0  0  0  0  0
   -1.3512   -8.6368    5.3131 H   0  0  0  0  0  0  0  0  0  0  0  0
   -2.1113   -8.0636    3.8290 H   0  0  0  0  0  0  0  0  0  0  0  0
   -0.0303  -10.2074    4.2086 H   0  0  0  0  0  0  0  0  0  0  0  0
   -1.3413  -10.1584    3.0369 H   0  0  0  0  0  0  0  0  0  0  0  0
    1.1828   -9.6582    2.2393 H   0  0  0  0  0  0  0  0  0  0  0  0
   -0.1662   -8.7197    1.6293 H   0  0  0  0  0  0  0  0  0  0  0  0
    3.2404   -5.8379    1.3476 H   0  0  0  0  0  0  0  0  0  0  0  0
    4.3521   -7.1794    3.3568 H   0  0  0  0  0  0  0  0  0  0  0  0
  1  2  1  0
  1 24  1  0
  1 25  1  0
  1 26  1  0
  2  3  1  0
  2  4  1  0
  2 27  1  0
  3 28  1  0
  3 29  1  0
  3 30  1  0
  4  5  2  3
  4 31  1  0
  5  6  1  0
  5 32  1  0
  6  9  1  0
  6  7  1  0
  6 33  1  6
  7  8  1  0
  7  9  1  0
  7 34  1  1
  8 35  1  0
  8 36  1  0
  8 37  1  0
  9 10  1  0
  9 38  1  1
 10 11  2  3
 10 39  1  0
 11 12  1  0
 11 40  1  0
 12 13  2  3
 12 41  1  0
 13 17  1  0
 13 14  1  0
 14 15  1  0
 14 42  1  0
 14 43  1  0
 15 16  1  0
 15 44  1  0
 15 45  1  0
 16 17  1  0
 16 46  1  0
 16 47  1  0
 17 22  1  0
 17 18  1  0
 18 19  2  0
 18 20  1  0
 20 21  2  0
 20 48  1  0
 21 22  1  0
 21 49  1  0
 22 23  2  0
M  END
>  <i_m_ct_stereo_status>  (45) 
1

>  <s_m_source_file>  (45) 
/var/tmp/pbs.5076255.sched01/tmpfev35gxg/05fxellcm.sdf

>  <i_m_source_file_index>  (45) 
18

>  <i_lp_mmshare_version>  (45) 
48012

>  <i_f3d_flags>  (45) 
0

>  <s_epik_input>  (45) 
W0NIM11bQ0hdKFtDSDNdKS9bQ0hdPVtDSF0vW0NAQEhdMVtDQEBIXShbQ0gzXSlbQ0BIXTEvW0NIXT1bQ0hdL1tDSF09QygvW0NIMl1bQ0gyXVtDSDJdMilDMjNDKD1PKVtDSF09W0NIXUMzPU8=

>  <s_epik_cmdline>  (45) 
J2VwaWtfcHl0aG9uJywgJy1waHQnLCAnMi4wJywgJy1waCcsICc3LjAnLCAnLXRuJywgJzgnLCAnLW1hJywgJzIwMCcsICctaW1hZScsICc8aW5maWxlLm1hZT4nLCAnLW9tYWUnLCAnPG91dGZpbGUubWFlPic=

>  <r_lp_tautomer_probability>  (45) 
1

>  <r_epik_Ionization_Penalty>  (45) 
0

>  <r_epik_Ionization_Penalty_Charging>  (45) 
0

>  <r_epik_Ionization_Penalty_Neutral>  (45) 
0

>  <r_epik_State_Penalty>  (45) 
-0

>  <r_epik_Charging_Adjusted_Penalty>  (45) 
0

>  <i_epik_Tot_Q>  (45) 
0

>  <i_epik_Tot_abs_Q>  (45) 
0

>  <s_lp_Force_Field>  (45) 
OPLS3e

>  <r_lp_Energy>  (45) 
9.80329

>  <b_lp_Chiralities_Consistent>  (45) 
1

>  <s_lp_Variant>  (45) 
13:0-2

>  <s_i_glide_gridfile>  (45) 
pfpi4k_grid

>  <i_i_glide_lignum>  (45) 
18

>  <i_i_glide_rotatable_bonds>  (45) 
4

>  <r_i_docking_score>  (45) 
-2.13505

>  <r_i_glide_ligand_efficiency>  (45) 
-0.0928282

>  <r_i_glide_ligand_efficiency_sa>  (45) 
-0.263991

>  <r_i_glide_ligand_efficiency_ln>  (45) 
-0.516274

>  <r_i_glide_gscore>  (45) 
-2.13505

>  <r_i_glide_lipo>  (45) 
-0.0110425

>  <r_i_glide_hbond>  (45) 
-0.16

>  <r_i_glide_metal>  (45) 
-0

>  <r_i_glide_rewards>  (45) 
-1.29252

>  <r_i_glide_evdw>  (45) 
-17.8734

>  <r_i_glide_ecoul>  (45) 
-3.31924

>  <r_i_glide_erotb>  (45) 
0.769172

>  <r_i_glide_esite>  (45) 
-0.0490998

>  <r_i_glide_emodel>  (45) 
-24.0281

>  <r_i_glide_energy>  (45) 
-21.1926

>  <r_i_glide_einternal>  (45) 
0.828852

>  <r_i_glide_intrahb_reward>  (45) 
-0

>  <i_i_glide_confnum>  (45) 
2

>  <i_i_glide_posenum>  (45) 
3

>  <r_i_glide_eff_state_penalty>  (45) 
0

>  <ligand_id>  (45) 
13

>  <original_smiles>  (45) 
CC(C)C=CC1C(C)C1C=CC=C1CCCC12C(=O)C=CC2=O

>  <smiles>  (45) 
[H]C1=C([H])C(=O)C2(C1=O)C(=C([H])C([H])=C([H])C1([H])C([H])(C([H])=C([H])C([H])(C([H])([H])[H])C([H])([H])[H])C1([H])C([H])([H])[H])C([H])([H])C([H])([H])C2([H])[H]

$$$$
13:2:0
     RDKit          3D

 49 51  0  0  1  0  0  0  0  0999 V2000
   -1.4765   -9.1966    2.3688 C   0  0  0  0  0  0  0  0  0  0  0  0
   -0.2451   -8.8735    3.2262 C   0  0  0  0  0  0  0  0  0  0  0  0
   -0.5461   -7.7564    4.2343 C   0  0  0  0  0  0  0  0  0  0  0  0
    0.9495   -8.5081    2.3541 C   0  0  0  0  0  0  0  0  0  0  0  0
    2.1207   -9.1629    2.3361 C   0  0  0  0  0  0  0  0  0  0  0  0
    3.2847   -8.7970    1.4972 C   0  0  2  0  0  0  0  0  0  0  0  0
    4.5948   -8.3725    2.1346 C   0  0  1  0  0  0  0  0  0  0  0  0
    5.9304   -8.7890    1.5498 C   0  0  0  0  0  0  0  0  0  0  0  0
    3.7489   -7.3543    1.4003 C   0  0  1  0  0  0  0  0  0  0  0  0
    4.2460   -6.7902    0.1230 C   0  0  0  0  0  0  0  0  0  0  0  0
    4.3846   -5.5039   -0.2196 C   0  0  0  0  0  0  0  0  0  0  0  0
    4.0468   -4.3457    0.6063 C   0  0  0  0  0  0  0  0  0  0  0  0
    4.0308   -3.0576    0.2151 C   0  0  0  0  0  0  0  0  0  0  0  0
    3.6831   -1.9003    1.1267 C   0  0  0  0  0  0  0  0  0  0  0  0
    4.0378   -0.6257    0.3499 C   0  0  0  0  0  0  0  0  0  0  0  0
    3.9983   -0.9905   -1.1213 C   0  0  0  0  0  0  0  0  0  0  0  0
    4.3803   -2.4718   -1.1618 C   0  0  0  0  0  0  0  0  0  0  0  0
    5.8737   -2.6337   -1.4636 C   0  0  0  0  0  0  0  0  0  0  0  0
    6.7888   -2.2581   -0.7407 O   0  0  0  0  0  0  0  0  0  0  0  0
    6.0019   -3.3101   -2.7491 C   0  0  0  0  0  0  0  0  0  0  0  0
    4.7986   -3.5755   -3.2825 C   0  0  0  0  0  0  0  0  0  0  0  0
    3.7079   -3.1117   -2.3957 C   0  0  0  0  0  0  0  0  0  0  0  0
    2.5052   -3.2113   -2.5438 O   0  0  0  0  0  0  0  0  0  0  0  0
   -1.2816  -10.0370    1.7009 H   0  0  0  0  0  0  0  0  0  0  0  0
   -1.7775   -8.3468    1.7574 H   0  0  0  0  0  0  0  0  0  0  0  0
   -2.3232   -9.4700    3.0009 H   0  0  0  0  0  0  0  0  0  0  0  0
    0.0107   -9.7707    3.7896 H   0  0  0  0  0  0  0  0  0  0  0  0
    0.3076   -7.5779    4.8885 H   0  0  0  0  0  0  0  0  0  0  0  0
   -1.3898   -8.0288    4.8703 H   0  0  0  0  0  0  0  0  0  0  0  0
   -0.7908   -6.8174    3.7405 H   0  0  0  0  0  0  0  0  0  0  0  0
    0.8163   -7.6594    1.6988 H   0  0  0  0  0  0  0  0  0  0  0  0
    2.2551  -10.0308    2.9732 H   0  0  0  0  0  0  0  0  0  0  0  0
    3.3627   -9.4274    0.5989 H   0  0  0  0  0  0  0  0  0  0  0  0
    4.6000   -8.3002    3.2254 H   0  0  0  0  0  0  0  0  0  0  0  0
    5.8289   -9.0634    0.4975 H   0  0  0  0  0  0  0  0  0  0  0  0
    6.3372   -9.6464    2.0801 H   0  0  0  0  0  0  0  0  0  0  0  0
    6.6407   -7.9646    1.6204 H   0  0  0  0  0  0  0  0  0  0  0  0
    3.1966   -6.6322    2.0123 H   0  0  0  0  0  0  0  0  0  0  0  0
    4.5409   -7.5253   -0.6244 H   0  0  0  0  0  0  0  0  0  0  0  0
    4.7875   -5.3439   -1.2062 H   0  0  0  0  0  0  0  0  0  0  0  0
    3.7947   -4.5574    1.6536 H   0  0  0  0  0  0  0  0  0  0  0  0
    2.6079   -1.9421    1.3332 H   0  0  0  0  0  0  0  0  0  0  0  0
    4.2269   -1.9677    2.0750 H   0  0  0  0  0  0  0  0  0  0  0  0
    3.3603    0.2017    0.5665 H   0  0  0  0  0  0  0  0  0  0  0  0
    5.0487   -0.2978    0.5961 H   0  0  0  0  0  0  0  0  0  0  0  0
    3.0034   -0.8513   -1.5191 H   0  0  0  0  0  0  0  0  0  0  0  0
    4.6589   -0.3811   -1.7220 H   0  0  0  0  0  0  0  0  0  0  0  0
    6.9896   -3.5155   -3.1445 H   0  0  0  0  0  0  0  0  0  0  0  0
    4.5572   -4.0470   -4.2420 H   0  0  0  0  0  0  0  0  0  0  0  0
  1  2  1  0
  1 24  1  0
  1 25  1  0
  1 26  1  0
  2  3  1  0
  2  4  1  0
  2 27  1  0
  3 28  1  0
  3 29  1  0
  3 30  1  0
  4  5  2  3
  4 31  1  0
  5  6  1  0
  5 32  1  0
  6  9  1  0
  6  7  1  0
  6 33  1  6
  7  8  1  0
  7  9  1  0
  7 34  1  1
  8 35  1  0
  8 36  1  0
  8 37  1  0
  9 10  1  0
  9 38  1  1
 10 11  2  3
 10 39  1  0
 11 12  1  0
 11 40  1  0
 12 13  2  3
 12 41  1  0
 13 17  1  0
 13 14  1  0
 14 15  1  0
 14 42  1  0
 14 43  1  0
 15 16  1  0
 15 44  1  0
 15 45  1  0
 16 17  1  0
 16 46  1  0
 16 47  1  0
 17 22  1  0
 17 18  1  0
 18 19  2  0
 18 20  1  0
 20 21  2  0
 20 48  1  0
 21 22  1  0
 21 49  1  0
 22 23  2  0
M  END
>  <i_m_ct_stereo_status>  (46) 
1

>  <s_m_source_file>  (46) 
/var/tmp/pbs.5076255.sched01/tmpfev35gxg/05fxellcm.sdf

>  <i_m_source_file_index>  (46) 
19

>  <i_lp_mmshare_version>  (46) 
48012

>  <i_f3d_flags>  (46) 
0

>  <s_epik_input>  (46) 
W0NIM11bQ0hdKFtDSDNdKS9bQ0hdPVtDSF0vW0NAQEhdMVtDQEBIXShbQ0gzXSlbQ0BIXTEvW0NIXT1bQ0hdL1tDSF09QygvW0NIMl1bQ0gyXVtDSDJdMilDMjNDKD1PKVtDSF09W0NIXUMzPU8=

>  <s_epik_cmdline>  (46) 
J2VwaWtfcHl0aG9uJywgJy1waHQnLCAnMi4wJywgJy1waCcsICc3LjAnLCAnLXRuJywgJzgnLCAnLW1hJywgJzIwMCcsICctaW1hZScsICc8aW5maWxlLm1hZT4nLCAnLW9tYWUnLCAnPG91dGZpbGUubWFlPic=

>  <r_lp_tautomer_probability>  (46) 
1

>  <r_epik_Ionization_Penalty>  (46) 
0

>  <r_epik_Ionization_Penalty_Charging>  (46) 
0

>  <r_epik_Ionization_Penalty_Neutral>  (46) 
0

>  <r_epik_State_Penalty>  (46) 
-0

>  <r_epik_Charging_Adjusted_Penalty>  (46) 
0

>  <i_epik_Tot_Q>  (46) 
0

>  <i_epik_Tot_abs_Q>  (46) 
0

>  <s_lp_Force_Field>  (46) 
OPLS3e

>  <r_lp_Energy>  (46) 
9.73299

>  <b_lp_Chiralities_Consistent>  (46) 
1

>  <s_lp_Variant>  (46) 
13:0-3

>  <s_i_glide_gridfile>  (46) 
pfpi4k_grid

>  <i_i_glide_lignum>  (46) 
19

>  <i_i_glide_rotatable_bonds>  (46) 
4

>  <r_i_docking_score>  (46) 
-3.16889

>  <r_i_glide_ligand_efficiency>  (46) 
-0.137778

>  <r_i_glide_ligand_efficiency_sa>  (46) 
-0.391822

>  <r_i_glide_ligand_efficiency_ln>  (46) 
-0.766267

>  <r_i_glide_gscore>  (46) 
-3.16889

>  <r_i_glide_lipo>  (46) 
-1.06324

>  <r_i_glide_hbond>  (46) 
-0.120143

>  <r_i_glide_metal>  (46) 
-0

>  <r_i_glide_rewards>  (46) 
-1.29252

>  <r_i_glide_evdw>  (46) 
-28.8219

>  <r_i_glide_ecoul>  (46) 
0.123335

>  <r_i_glide_erotb>  (46) 
0.769172

>  <r_i_glide_esite>  (46) 
-0.0395651

>  <r_i_glide_emodel>  (46) 
-33.5011

>  <r_i_glide_energy>  (46) 
-28.6985

>  <r_i_glide_einternal>  (46) 
1.29366

>  <r_i_glide_intrahb_reward>  (46) 
-0

>  <i_i_glide_confnum>  (46) 
5

>  <i_i_glide_posenum>  (46) 
1

>  <r_i_glide_eff_state_penalty>  (46) 
0

>  <ligand_id>  (46) 
13

>  <original_smiles>  (46) 
CC(C)C=CC1C(C)C1C=CC=C1CCCC12C(=O)C=CC2=O

>  <smiles>  (46) 
[H]C1=C([H])C(=O)C2(C1=O)C(=C([H])C([H])=C([H])C1([H])C([H])(C([H])=C([H])C([H])(C([H])([H])[H])C([H])([H])[H])C1([H])C([H])([H])[H])C([H])([H])C([H])([H])C2([H])[H]

$$$$
13:2:1
     RDKit          3D

 49 51  0  0  1  0  0  0  0  0999 V2000
    4.0977   -0.6635   -3.5634 C   0  0  0  0  0  0  0  0  0  0  0  0
    3.8856   -2.0822   -3.0183 C   0  0  0  0  0  0  0  0  0  0  0  0
    2.8308   -2.8395   -3.8357 C   0  0  0  0  0  0  0  0  0  0  0  0
    3.5160   -2.0500   -1.5426 C   0  0  0  0  0  0  0  0  0  0  0  0
    3.8763   -2.9832   -0.6457 C   0  0  0  0  0  0  0  0  0  0  0  0
    3.5187   -2.9538    0.7964 C   0  0  2  0  0  0  0  0  0  0  0  0
    4.5892   -3.1815    1.8504 C   0  0  1  0  0  0  0  0  0  0  0  0
    4.5888   -2.3946    3.1481 C   0  0  0  0  0  0  0  0  0  0  0  0
    3.5296   -4.2388    1.6078 C   0  0  1  0  0  0  0  0  0  0  0  0
    2.5066   -4.4912    2.6571 C   0  0  0  0  0  0  0  0  0  0  0  0
    1.9907   -5.6663    3.0580 C   0  0  0  0  0  0  0  0  0  0  0  0
    2.3088   -6.9848    2.5165 C   0  0  0  0  0  0  0  0  0  0  0  0
    1.7060   -8.1561    2.8415 C   0  0  0  0  0  0  0  0  0  0  0  0
    2.1004   -9.4906    2.2420 C   0  0  0  0  0  0  0  0  0  0  0  0
    1.3438  -10.5468    3.0681 C   0  0  0  0  0  0  0  0  0  0  0  0
    0.1405   -9.8482    3.6717 C   0  0  0  0  0  0  0  0  0  0  0  0
    0.5755   -8.4048    3.8547 C   0  0  0  0  0  0  0  0  0  0  0  0
    1.0828   -8.1575    5.2867 C   0  0  0  0  0  0  0  0  0  0  0  0
    2.1048   -8.6406    5.7760 O   0  0  0  0  0  0  0  0  0  0  0  0
    0.1926   -7.2062    5.9468 C   0  0  0  0  0  0  0  0  0  0  0  0
   -0.7978   -6.8236    5.0925 C   0  0  0  0  0  0  0  0  0  0  0  0
   -0.6672   -7.4864    3.7677 C   0  0  0  0  0  0  0  0  0  0  0  0
   -1.3254   -7.2970    2.7327 O   0  0  0  0  0  0  0  0  0  0  0  0
    4.8779   -0.1517   -3.0033 H   0  0  0  0  0  0  0  0  0  0  0  0
    3.1895   -0.0642   -3.4849 H   0  0  0  0  0  0  0  0  0  0  0  0
    4.3880   -0.6817   -4.6159 H   0  0  0  0  0  0  0  0  0  0  0  0
    4.8263   -2.6237   -3.1093 H   0  0  0  0  0  0  0  0  0  0  0  0
    2.7334   -3.8662   -3.4868 H   0  0  0  0  0  0  0  0  0  0  0  0
    3.1136   -2.8846   -4.8864 H   0  0  0  0  0  0  0  0  0  0  0  0
    1.8475   -2.3715   -3.7702 H   0  0  0  0  0  0  0  0  0  0  0  0
    2.9239   -1.2046   -1.2235 H   0  0  0  0  0  0  0  0  0  0  0  0
    4.4671   -3.8329   -0.9861 H   0  0  0  0  0  0  0  0  0  0  0  0
    2.7293   -2.2185    1.0322 H   0  0  0  0  0  0  0  0  0  0  0  0
    5.5935   -3.4096    1.4821 H   0  0  0  0  0  0  0  0  0  0  0  0
    3.5954   -1.9925    3.3692 H   0  0  0  0  0  0  0  0  0  0  0  0
    5.2817   -1.5575    3.0962 H   0  0  0  0  0  0  0  0  0  0  0  0
    4.8850   -3.0419    3.9740 H   0  0  0  0  0  0  0  0  0  0  0  0
    3.8540   -5.1442    1.0789 H   0  0  0  0  0  0  0  0  0  0  0  0
    2.1283   -3.6103    3.1734 H   0  0  0  0  0  0  0  0  0  0  0  0
    1.2803   -5.5839    3.8646 H   0  0  0  0  0  0  0  0  0  0  0  0
    3.1206   -7.0277    1.7799 H   0  0  0  0  0  0  0  0  0  0  0  0
    1.7868   -9.4994    1.1922 H   0  0  0  0  0  0  0  0  0  0  0  0
    3.1903   -9.6329    2.2716 H   0  0  0  0  0  0  0  0  0  0  0  0
    1.0453  -11.4202    2.4913 H   0  0  0  0  0  0  0  0  0  0  0  0
    1.9859  -10.9129    3.8702 H   0  0  0  0  0  0  0  0  0  0  0  0
   -0.7011   -9.9086    3.0018 H   0  0  0  0  0  0  0  0  0  0  0  0
   -0.1785  -10.3087    4.5936 H   0  0  0  0  0  0  0  0  0  0  0  0
    0.2695   -6.8982    6.9844 H   0  0  0  0  0  0  0  0  0  0  0  0
   -1.6607   -6.1685    5.2797 H   0  0  0  0  0  0  0  0  0  0  0  0
  1  2  1  0
  1 24  1  0
  1 25  1  0
  1 26  1  0
  2  3  1  0
  2  4  1  0
  2 27  1  0
  3 28  1  0
  3 29  1  0
  3 30  1  0
  4  5  2  3
  4 31  1  0
  5  6  1  0
  5 32  1  0
  6  9  1  0
  6  7  1  0
  6 33  1  1
  7  8  1  0
  7  9  1  0
  7 34  1  6
  8 35  1  0
  8 36  1  0
  8 37  1  0
  9 10  1  0
  9 38  1  6
 10 11  2  3
 10 39  1  0
 11 12  1  0
 11 40  1  0
 12 13  2  3
 12 41  1  0
 13 17  1  0
 13 14  1  0
 14 15  1  0
 14 42  1  0
 14 43  1  0
 15 16  1  0
 15 44  1  0
 15 45  1  0
 16 17  1  0
 16 46  1  0
 16 47  1  0
 17 22  1  0
 17 18  1  0
 18 19  2  0
 18 20  1  0
 20 21  2  0
 20 48  1  0
 21 22  1  0
 21 49  1  0
 22 23  2  0
M  END
>  <i_m_ct_stereo_status>  (47) 
1

>  <s_m_source_file>  (47) 
/var/tmp/pbs.5076255.sched01/tmpfev35gxg/05fxellcm.sdf

>  <i_m_source_file_index>  (47) 
19

>  <i_lp_mmshare_version>  (47) 
48012

>  <i_f3d_flags>  (47) 
0

>  <s_epik_input>  (47) 
W0NIM11bQ0hdKFtDSDNdKS9bQ0hdPVtDSF0vW0NAQEhdMVtDQEBIXShbQ0gzXSlbQ0BIXTEvW0NIXT1bQ0hdL1tDSF09QygvW0NIMl1bQ0gyXVtDSDJdMilDMjNDKD1PKVtDSF09W0NIXUMzPU8=

>  <s_epik_cmdline>  (47) 
J2VwaWtfcHl0aG9uJywgJy1waHQnLCAnMi4wJywgJy1waCcsICc3LjAnLCAnLXRuJywgJzgnLCAnLW1hJywgJzIwMCcsICctaW1hZScsICc8aW5maWxlLm1hZT4nLCAnLW9tYWUnLCAnPG91dGZpbGUubWFlPic=

>  <r_lp_tautomer_probability>  (47) 
1

>  <r_epik_Ionization_Penalty>  (47) 
0

>  <r_epik_Ionization_Penalty_Charging>  (47) 
0

>  <r_epik_Ionization_Penalty_Neutral>  (47) 
0

>  <r_epik_State_Penalty>  (47) 
-0

>  <r_epik_Charging_Adjusted_Penalty>  (47) 
0

>  <i_epik_Tot_Q>  (47) 
0

>  <i_epik_Tot_abs_Q>  (47) 
0

>  <s_lp_Force_Field>  (47) 
OPLS3e

>  <r_lp_Energy>  (47) 
9.73299

>  <b_lp_Chiralities_Consistent>  (47) 
1

>  <s_lp_Variant>  (47) 
13:0-3

>  <s_i_glide_gridfile>  (47) 
pfpi4k_grid

>  <i_i_glide_lignum>  (47) 
19

>  <i_i_glide_rotatable_bonds>  (47) 
4

>  <r_i_docking_score>  (47) 
-2.93041

>  <r_i_glide_ligand_efficiency>  (47) 
-0.127409

>  <r_i_glide_ligand_efficiency_sa>  (47) 
-0.362335

>  <r_i_glide_ligand_efficiency_ln>  (47) 
-0.7086

>  <r_i_glide_gscore>  (47) 
-2.93041

>  <r_i_glide_lipo>  (47) 
-0.775941

>  <r_i_glide_hbond>  (47) 
-0.119409

>  <r_i_glide_metal>  (47) 
-0

>  <r_i_glide_rewards>  (47) 
-1.29252

>  <r_i_glide_evdw>  (47) 
-23.0353

>  <r_i_glide_ecoul>  (47) 
-1.91667

>  <r_i_glide_erotb>  (47) 
0.769172

>  <r_i_glide_esite>  (47) 
-0.072441

>  <r_i_glide_emodel>  (47) 
-29.0225

>  <r_i_glide_energy>  (47) 
-24.952

>  <r_i_glide_einternal>  (47) 
1.52858

>  <r_i_glide_intrahb_reward>  (47) 
-0

>  <i_i_glide_confnum>  (47) 
5

>  <i_i_glide_posenum>  (47) 
3

>  <r_i_glide_eff_state_penalty>  (47) 
0

>  <ligand_id>  (47) 
13

>  <original_smiles>  (47) 
CC(C)C=CC1C(C)C1C=CC=C1CCCC12C(=O)C=CC2=O

>  <smiles>  (47) 
[H]C1=C([H])C(=O)C2(C1=O)C(=C([H])C([H])=C([H])C1([H])C([H])(C([H])=C([H])C([H])(C([H])([H])[H])C([H])([H])[H])C1([H])C([H])([H])[H])C([H])([H])C([H])([H])C2([H])[H]

$$$$
13:2:2
     RDKit          3D

 49 51  0  0  1  0  0  0  0  0999 V2000
    0.6194  -11.5944    3.7054 C   0  0  0  0  0  0  0  0  0  0  0  0
    0.6206  -10.0825    3.4280 C   0  0  0  0  0  0  0  0  0  0  0  0
   -0.7459   -9.5865    2.9339 C   0  0  0  0  0  0  0  0  0  0  0  0
    1.7096   -9.7133    2.4359 C   0  0  0  0  0  0  0  0  0  0  0  0
    2.7802   -8.9584    2.7269 C   0  0  0  0  0  0  0  0  0  0  0  0
    3.8447   -8.5939    1.7651 C   0  0  2  0  0  0  0  0  0  0  0  0
    5.2157   -8.1695    2.2670 C   0  0  1  0  0  0  0  0  0  0  0  0
    6.4793   -8.5880    1.5404 C   0  0  0  0  0  0  0  0  0  0  0  0
    4.2856   -7.1479    1.6416 C   0  0  1  0  0  0  0  0  0  0  0  0
    4.6296   -6.5740    0.3186 C   0  0  0  0  0  0  0  0  0  0  0  0
    4.5925   -5.2916   -0.0786 C   0  0  0  0  0  0  0  0  0  0  0  0
    4.1526   -4.1537    0.7181 C   0  0  0  0  0  0  0  0  0  0  0  0
    4.1209   -2.8605    0.3179 C   0  0  0  0  0  0  0  0  0  0  0  0
    3.6500   -1.7193    1.2030 C   0  0  0  0  0  0  0  0  0  0  0  0
    4.0389   -0.4298    0.4742 C   0  0  0  0  0  0  0  0  0  0  0  0
    4.1398   -0.8082   -0.9968 C   0  0  0  0  0  0  0  0  0  0  0  0
    4.5655   -2.2591   -1.0193 C   0  0  0  0  0  0  0  0  0  0  0  0
    6.0855   -2.3705   -1.1663 C   0  0  0  0  0  0  0  0  0  0  0  0
    6.9284   -1.9734   -0.3529 O   0  0  0  0  0  0  0  0  0  0  0  0
    6.3822   -3.0489   -2.4229 C   0  0  0  0  0  0  0  0  0  0  0  0
    5.2332   -3.3431   -3.0912 C   0  0  0  0  0  0  0  0  0  0  0  0
    4.0465   -2.9176   -2.3242 C   0  0  0  0  0  0  0  0  0  0  0  0
    2.8501   -3.0849   -2.5666 O   0  0  0  0  0  0  0  0  0  0  0  0
    1.5775  -11.9267    4.1176 H   0  0  0  0  0  0  0  0  0  0  0  0
    0.4358  -12.1696    2.7990 H   0  0  0  0  0  0  0  0  0  0  0  0
   -0.1432  -11.8570    4.4368 H   0  0  0  0  0  0  0  0  0  0  0  0
    0.8320   -9.5818    4.3727 H   0  0  0  0  0  0  0  0  0  0  0  0
   -0.7599   -8.5042    2.8072 H   0  0  0  0  0  0  0  0  0  0  0  0
   -1.5189   -9.8221    3.6599 H   0  0  0  0  0  0  0  0  0  0  0  0
   -1.0311  -10.0493    1.9888 H   0  0  0  0  0  0  0  0  0  0  0  0
    1.5838  -10.0998    1.4343 H   0  0  0  0  0  0  0  0  0  0  0  0
    2.8884   -8.5778    3.7415 H   0  0  0  0  0  0  0  0  0  0  0  0
    3.8131   -9.1946    0.8380 H   0  0  0  0  0  0  0  0  0  0  0  0
    5.3413   -8.0995    3.3510 H   0  0  0  0  0  0  0  0  0  0  0  0
    6.2635   -8.8751    0.5088 H   0  0  0  0  0  0  0  0  0  0  0  0
    6.9412   -9.4435    2.0279 H   0  0  0  0  0  0  0  0  0  0  0  0
    7.1949   -7.7653    1.5321 H   0  0  0  0  0  0  0  0  0  0  0  0
    3.8011   -6.4351    2.3222 H   0  0  0  0  0  0  0  0  0  0  0  0
    4.9614   -7.2955   -0.4234 H   0  0  0  0  0  0  0  0  0  0  0  0
    4.9277   -5.1430   -1.0950 H   0  0  0  0  0  0  0  0  0  0  0  0
    3.8081   -4.3703    1.7305 H   0  0  0  0  0  0  0  0  0  0  0  0
    2.5607   -1.8013    1.3088 H   0  0  0  0  0  0  0  0  0  0  0  0
    4.1046   -1.7872    2.1984 H   0  0  0  0  0  0  0  0  0  0  0  0
    3.3249    0.3731    0.6403 H   0  0  0  0  0  0  0  0  0  0  0  0
    5.0098   -0.0788    0.8149 H   0  0  0  0  0  0  0  0  0  0  0  0
    3.1817   -0.6865   -1.4876 H   0  0  0  0  0  0  0  0  0  0  0  0
    4.8463   -0.2026   -1.5409 H   0  0  0  0  0  0  0  0  0  0  0  0
    7.4195   -3.2192   -2.6965 H   0  0  0  0  0  0  0  0  0  0  0  0
    5.1068   -3.8079   -4.0774 H   0  0  0  0  0  0  0  0  0  0  0  0
  1  2  1  0
  1 24  1  0
  1 25  1  0
  1 26  1  0
  2  3  1  0
  2  4  1  0
  2 27  1  0
  3 28  1  0
  3 29  1  0
  3 30  1  0
  4  5  2  3
  4 31  1  0
  5  6  1  0
  5 32  1  0
  6  9  1  0
  6  7  1  0
  6 33  1  6
  7  8  1  0
  7  9  1  0
  7 34  1  1
  8 35  1  0
  8 36  1  0
  8 37  1  0
  9 10  1  0
  9 38  1  1
 10 11  2  3
 10 39  1  0
 11 12  1  0
 11 40  1  0
 12 13  2  3
 12 41  1  0
 13 17  1  0
 13 14  1  0
 14 15  1  0
 14 42  1  0
 14 43  1  0
 15 16  1  0
 15 44  1  0
 15 45  1  0
 16 17  1  0
 16 46  1  0
 16 47  1  0
 17 22  1  0
 17 18  1  0
 18 19  2  0
 18 20  1  0
 20 21  2  0
 20 48  1  0
 21 22  1  0
 21 49  1  0
 22 23  2  0
M  END
>  <i_m_ct_stereo_status>  (48) 
1

>  <s_m_source_file>  (48) 
/var/tmp/pbs.5076255.sched01/tmpfev35gxg/05fxellcm.sdf

>  <i_m_source_file_index>  (48) 
19

>  <i_lp_mmshare_version>  (48) 
48012

>  <i_f3d_flags>  (48) 
0

>  <s_epik_input>  (48) 
W0NIM11bQ0hdKFtDSDNdKS9bQ0hdPVtDSF0vW0NAQEhdMVtDQEBIXShbQ0gzXSlbQ0BIXTEvW0NIXT1bQ0hdL1tDSF09QygvW0NIMl1bQ0gyXVtDSDJdMilDMjNDKD1PKVtDSF09W0NIXUMzPU8=

>  <s_epik_cmdline>  (48) 
J2VwaWtfcHl0aG9uJywgJy1waHQnLCAnMi4wJywgJy1waCcsICc3LjAnLCAnLXRuJywgJzgnLCAnLW1hJywgJzIwMCcsICctaW1hZScsICc8aW5maWxlLm1hZT4nLCAnLW9tYWUnLCAnPG91dGZpbGUubWFlPic=

>  <r_lp_tautomer_probability>  (48) 
1

>  <r_epik_Ionization_Penalty>  (48) 
0

>  <r_epik_Ionization_Penalty_Charging>  (48) 
0

>  <r_epik_Ionization_Penalty_Neutral>  (48) 
0

>  <r_epik_State_Penalty>  (48) 
-0

>  <r_epik_Charging_Adjusted_Penalty>  (48) 
0

>  <i_epik_Tot_Q>  (48) 
0

>  <i_epik_Tot_abs_Q>  (48) 
0

>  <s_lp_Force_Field>  (48) 
OPLS3e

>  <r_lp_Energy>  (48) 
9.73299

>  <b_lp_Chiralities_Consistent>  (48) 
1

>  <s_lp_Variant>  (48) 
13:0-3

>  <s_i_glide_gridfile>  (48) 
pfpi4k_grid

>  <i_i_glide_lignum>  (48) 
19

>  <i_i_glide_rotatable_bonds>  (48) 
4

>  <r_i_docking_score>  (48) 
-2.91441

>  <r_i_glide_ligand_efficiency>  (48) 
-0.126713

>  <r_i_glide_ligand_efficiency_sa>  (48) 
-0.360356

>  <r_i_glide_ligand_efficiency_ln>  (48) 
-0.704731

>  <r_i_glide_gscore>  (48) 
-2.91441

>  <r_i_glide_lipo>  (48) 
-0.888838

>  <r_i_glide_hbond>  (48) 
-0.141917

>  <r_i_glide_metal>  (48) 
-0

>  <r_i_glide_rewards>  (48) 
-1.29252

>  <r_i_glide_evdw>  (48) 
-25.6054

>  <r_i_glide_ecoul>  (48) 
-0.218812

>  <r_i_glide_erotb>  (48) 
0.769172

>  <r_i_glide_esite>  (48) 
-0.0472111

>  <r_i_glide_emodel>  (48) 
-30.2758

>  <r_i_glide_energy>  (48) 
-25.8242

>  <r_i_glide_einternal>  (48) 
0.209028

>  <r_i_glide_intrahb_reward>  (48) 
-0

>  <i_i_glide_confnum>  (48) 
5

>  <i_i_glide_posenum>  (48) 
19

>  <r_i_glide_eff_state_penalty>  (48) 
0

>  <ligand_id>  (48) 
13

>  <original_smiles>  (48) 
CC(C)C=CC1C(C)C1C=CC=C1CCCC12C(=O)C=CC2=O

>  <smiles>  (48) 
[H]C1=C([H])C(=O)C2(C1=O)C(=C([H])C([H])=C([H])C1([H])C([H])(C([H])=C([H])C([H])(C([H])([H])[H])C([H])([H])[H])C1([H])C([H])([H])[H])C([H])([H])C([H])([H])C2([H])[H]

$$$$
13:3:0
     RDKit          3D

 49 51  0  0  1  0  0  0  0  0999 V2000
   -2.2158    2.6778    4.6603 C   0  0  0  0  0  0  0  0  0  0  0  0
   -1.5585    1.3491    4.2463 C   0  0  0  0  0  0  0  0  0  0  0  0
   -0.4468    1.0409    5.2669 C   0  0  0  0  0  0  0  0  0  0  0  0
   -1.1056    1.4106    2.7776 C   0  0  0  0  0  0  0  0  0  0  0  0
    0.0688    1.0475    2.2255 C   0  0  0  0  0  0  0  0  0  0  0  0
    1.2392    0.4782    2.9219 C   0  0  2  0  0  0  0  0  0  0  0  0
    2.1391    1.3570    3.7665 C   0  0  1  0  0  0  0  0  0  0  0  0
    2.7045    0.8906    5.1108 C   0  0  0  0  0  0  0  0  0  0  0  0
    2.6729    0.7905    2.4858 C   0  0  1  0  0  0  0  0  0  0  0  0
    3.7142   -0.2706    2.5449 C   0  0  0  0  0  0  0  0  0  0  0  0
    4.1186   -1.0989    1.5696 C   0  0  0  0  0  0  0  0  0  0  0  0
    3.6025   -1.0662    0.2016 C   0  0  0  0  0  0  0  0  0  0  0  0
    3.9397   -1.9065   -0.8077 C   0  0  0  0  0  0  0  0  0  0  0  0
    3.3754   -1.7913   -2.2043 C   0  0  0  0  0  0  0  0  0  0  0  0
    3.8361   -3.0598   -2.9233 C   0  0  0  0  0  0  0  0  0  0  0  0
    5.0728   -3.5520   -2.1993 C   0  0  0  0  0  0  0  0  0  0  0  0
    4.8930   -3.0986   -0.7438 C   0  0  0  0  0  0  0  0  0  0  0  0
    6.2898   -2.8739   -0.0889 C   0  0  0  0  0  0  0  0  0  0  0  0
    7.0716   -1.9675   -0.4378 O   0  0  0  0  0  0  0  0  0  0  0  0
    6.4122   -3.8316    1.0080 C   0  0  0  0  0  0  0  0  0  0  0  0
    5.2946   -4.6047    1.1515 C   0  0  0  0  0  0  0  0  0  0  0  0
    4.3032   -4.2253    0.1476 C   0  0  0  0  0  0  0  0  0  0  0  0
    3.1459   -4.6592    0.0566 O   0  0  0  0  0  0  0  0  0  0  0  0
   -3.1176    2.8995    4.0810 H   0  0  0  0  0  0  0  0  0  0  0  0
   -1.5250    3.5190    4.5475 H   0  0  0  0  0  0  0  0  0  0  0  0
   -2.4962    2.6419    5.7142 H   0  0  0  0  0  0  0  0  0  0  0  0
   -2.3226    0.5564    4.2941 H   0  0  0  0  0  0  0  0  0  0  0  0
    0.0256    0.0867    4.9876 H   0  0  0  0  0  0  0  0  0  0  0  0
   -0.8395    0.9995    6.2929 H   0  0  0  0  0  0  0  0  0  0  0  0
    0.2975    1.8369    5.1712 H   0  0  0  0  0  0  0  0  0  0  0  0
   -1.8423    1.7891    2.0850 H   0  0  0  0  0  0  0  0  0  0  0  0
    0.1747    1.1492    1.1363 H   0  0  0  0  0  0  0  0  0  0  0  0
    1.0762   -0.5708    3.2386 H   0  0  0  0  0  0  0  0  0  0  0  0
    1.9345    2.4399    3.7262 H   0  0  0  0  0  0  0  0  0  0  0  0
    2.7899   -0.2004    5.1435 H   0  0  0  0  0  0  0  0  0  0  0  0
    2.0514    1.2062    5.9172 H   0  0  0  0  0  0  0  0  0  0  0  0
    3.6947    1.3132    5.2817 H   0  0  0  0  0  0  0  0  0  0  0  0
    2.8193    1.4312    1.5910 H   0  0  0  0  0  0  0  0  0  0  0  0
    4.2125   -0.4230    3.5001 H   0  0  0  0  0  0  0  0  0  0  0  0
    4.8622   -1.8256    1.8617 H   0  0  0  0  0  0  0  0  0  0  0  0
    2.8554   -0.2757    0.0111 H   0  0  0  0  0  0  0  0  0  0  0  0
    2.2833   -1.7216   -2.1922 H   0  0  0  0  0  0  0  0  0  0  0  0
    3.7783   -0.8828   -2.6713 H   0  0  0  0  0  0  0  0  0  0  0  0
    3.0526   -3.8199   -2.8389 H   0  0  0  0  0  0  0  0  0  0  0  0
    4.0099   -2.9065   -3.9906 H   0  0  0  0  0  0  0  0  0  0  0  0
    5.1814   -4.6174   -2.2835 H   0  0  0  0  0  0  0  0  0  0  0  0
    5.9485   -3.0932   -2.6292 H   0  0  0  0  0  0  0  0  0  0  0  0
    7.3497   -3.8897    1.5954 H   0  0  0  0  0  0  0  0  0  0  0  0
    5.1703   -5.4235    1.8616 H   0  0  0  0  0  0  0  0  0  0  0  0
  1  2  1  0
  1 24  1  0
  1 25  1  0
  1 26  1  0
  2  3  1  0
  2  4  1  0
  2 27  1  0
  3 28  1  0
  3 29  1  0
  3 30  1  0
  4  5  2  3
  4 31  1  0
  5  6  1  0
  5 32  1  0
  6  9  1  0
  6  7  1  0
  6 33  1  1
  7  8  1  0
  7  9  1  0
  7 34  1  6
  8 35  1  0
  8 36  1  0
  8 37  1  0
  9 10  1  0
  9 38  1  6
 10 11  2  3
 10 39  1  0
 11 12  1  0
 11 40  1  0
 12 13  2  3
 12 41  1  0
 13 17  1  0
 13 14  1  0
 14 15  1  0
 14 42  1  0
 14 43  1  0
 15 16  1  0
 15 44  1  0
 15 45  1  0
 16 17  1  0
 16 46  1  0
 16 47  1  0
 17 22  1  0
 17 18  1  0
 18 19  2  0
 18 20  1  0
 20 21  2  0
 20 48  1  0
 21 22  1  0
 21 49  1  0
 22 23  2  0
M  END
>  <i_m_ct_stereo_status>  (49) 
1

>  <s_m_source_file>  (49) 
/var/tmp/pbs.5076255.sched01/tmpfev35gxg/05fxellcm.sdf

>  <i_m_source_file_index>  (49) 
20

>  <i_lp_mmshare_version>  (49) 
48012

>  <i_f3d_flags>  (49) 
0

>  <s_epik_input>  (49) 
W0NIM11bQ0hdKFtDSDNdKS9bQ0hdPVtDSF0vW0NAQEhdMVtDQEBIXShbQ0gzXSlbQ0BIXTEvW0NIXT1bQ0hdL1tDSF09QygvW0NIMl1bQ0gyXVtDSDJdMilDMjNDKD1PKVtDSF09W0NIXUMzPU8=

>  <s_epik_cmdline>  (49) 
J2VwaWtfcHl0aG9uJywgJy1waHQnLCAnMi4wJywgJy1waCcsICc3LjAnLCAnLXRuJywgJzgnLCAnLW1hJywgJzIwMCcsICctaW1hZScsICc8aW5maWxlLm1hZT4nLCAnLW9tYWUnLCAnPG91dGZpbGUubWFlPic=

>  <r_lp_tautomer_probability>  (49) 
1

>  <r_epik_Ionization_Penalty>  (49) 
0

>  <r_epik_Ionization_Penalty_Charging>  (49) 
0

>  <r_epik_Ionization_Penalty_Neutral>  (49) 
0

>  <r_epik_State_Penalty>  (49) 
-0

>  <r_epik_Charging_Adjusted_Penalty>  (49) 
0

>  <i_epik_Tot_Q>  (49) 
0

>  <i_epik_Tot_abs_Q>  (49) 
0

>  <s_lp_Force_Field>  (49) 
OPLS3e

>  <r_lp_Energy>  (49) 
15.1873

>  <b_lp_Chiralities_Consistent>  (49) 
1

>  <s_lp_Variant>  (49) 
13:0-4

>  <s_i_glide_gridfile>  (49) 
pfpi4k_grid

>  <i_i_glide_lignum>  (49) 
20

>  <i_i_glide_rotatable_bonds>  (49) 
4

>  <r_i_docking_score>  (49) 
-2.46809

>  <r_i_glide_ligand_efficiency>  (49) 
-0.107308

>  <r_i_glide_ligand_efficiency_sa>  (49) 
-0.305171

>  <r_i_glide_ligand_efficiency_ln>  (49) 
-0.596807

>  <r_i_glide_gscore>  (49) 
-2.46809

>  <r_i_glide_lipo>  (49) 
-0.325311

>  <r_i_glide_hbond>  (49) 
-0.16

>  <r_i_glide_metal>  (49) 
-0

>  <r_i_glide_rewards>  (49) 
-1.36966

>  <r_i_glide_evdw>  (49) 
-22.5665

>  <r_i_glide_ecoul>  (49) 
-1.69316

>  <r_i_glide_erotb>  (49) 
0.769172

>  <r_i_glide_esite>  (49) 
0

>  <r_i_glide_emodel>  (49) 
-25.1436

>  <r_i_glide_energy>  (49) 
-24.2596

>  <r_i_glide_einternal>  (49) 
3.3819

>  <r_i_glide_intrahb_reward>  (49) 
-0

>  <i_i_glide_confnum>  (49) 
2

>  <i_i_glide_posenum>  (49) 
13

>  <r_i_glide_eff_state_penalty>  (49) 
0

>  <ligand_id>  (49) 
13

>  <original_smiles>  (49) 
CC(C)C=CC1C(C)C1C=CC=C1CCCC12C(=O)C=CC2=O

>  <smiles>  (49) 
[H]C1=C([H])C(=O)C2(C1=O)C(=C([H])C([H])=C([H])C1([H])C([H])(C([H])=C([H])C([H])(C([H])([H])[H])C([H])([H])[H])C1([H])C([H])([H])[H])C([H])([H])C([H])([H])C2([H])[H]

$$$$
13:3:1
     RDKit          3D

 49 51  0  0  1  0  0  0  0  0999 V2000
   -1.7255    0.1506    5.3405 C   0  0  0  0  0  0  0  0  0  0  0  0
   -1.1483    1.5508    5.0808 C   0  0  0  0  0  0  0  0  0  0  0  0
   -2.0018    2.6498    5.7320 C   0  0  0  0  0  0  0  0  0  0  0  0
   -0.9733    1.7975    3.5933 C   0  0  0  0  0  0  0  0  0  0  0  0
    0.1573    1.6204    2.8902 C   0  0  0  0  0  0  0  0  0  0  0  0
    1.4516    1.1084    3.4319 C   0  0  2  0  0  0  0  0  0  0  0  0
    2.6528    2.0313    3.5141 C   0  0  1  0  0  0  0  0  0  0  0  0
    3.5946    1.9729    4.7050 C   0  0  0  0  0  0  0  0  0  0  0  0
    2.6265    0.9100    2.4922 C   0  0  1  0  0  0  0  0  0  0  0  0
    3.5373   -0.2590    2.6536 C   0  0  0  0  0  0  0  0  0  0  0  0
    3.9666   -1.1131    1.6915 C   0  0  0  0  0  0  0  0  0  0  0  0
    3.5942   -1.0483    0.2948 C   0  0  0  0  0  0  0  0  0  0  0  0
    4.0198   -1.8979   -0.6910 C   0  0  0  0  0  0  0  0  0  0  0  0
    3.5722   -1.7799   -2.1288 C   0  0  0  0  0  0  0  0  0  0  0  0
    4.0742   -3.0542   -2.8243 C   0  0  0  0  0  0  0  0  0  0  0  0
    5.2511   -3.5486   -1.9980 C   0  0  0  0  0  0  0  0  0  0  0  0
    4.9534   -3.1126   -0.5593 C   0  0  0  0  0  0  0  0  0  0  0  0
    6.2678   -2.8835    0.1979 C   0  0  0  0  0  0  0  0  0  0  0  0
    7.0843   -2.0023   -0.0536 O   0  0  0  0  0  0  0  0  0  0  0  0
    6.3318   -3.8663    1.3182 C   0  0  0  0  0  0  0  0  0  0  0  0
    5.1929   -4.6255    1.3481 C   0  0  0  0  0  0  0  0  0  0  0  0
    4.2880   -4.2247    0.2691 C   0  0  0  0  0  0  0  0  0  0  0  0
    3.1435   -4.6681    0.0745 O   0  0  0  0  0  0  0  0  0  0  0  0
   -1.0665   -0.6215    4.9415 H   0  0  0  0  0  0  0  0  0  0  0  0
   -2.6936    0.0185    4.8623 H   0  0  0  0  0  0  0  0  0  0  0  0
   -1.8430   -0.0273    6.4090 H   0  0  0  0  0  0  0  0  0  0  0  0
   -0.1640    1.5906    5.5504 H   0  0  0  0  0  0  0  0  0  0  0  0
   -1.5407    3.6305    5.6097 H   0  0  0  0  0  0  0  0  0  0  0  0
   -2.1233    2.4747    6.8016 H   0  0  0  0  0  0  0  0  0  0  0  0
   -2.9952    2.6976    5.2879 H   0  0  0  0  0  0  0  0  0  0  0  0
   -1.8507    2.1479    3.0639 H   0  0  0  0  0  0  0  0  0  0  0  0
    0.1359    1.8569    1.8339 H   0  0  0  0  0  0  0  0  0  0  0  0
    1.3210    0.3693    4.2271 H   0  0  0  0  0  0  0  0  0  0  0  0
    2.5182    3.0356    3.1073 H   0  0  0  0  0  0  0  0  0  0  0  0
    3.6026    0.9800    5.1568 H   0  0  0  0  0  0  0  0  0  0  0  0
    3.2929    2.6941    5.4633 H   0  0  0  0  0  0  0  0  0  0  0  0
    4.6153    2.2026    4.3780 H   0  0  0  0  0  0  0  0  0  0  0  0
    2.4786    1.2205    1.4552 H   0  0  0  0  0  0  0  0  0  0  0  0
    3.9078   -0.4668    3.6481 H   0  0  0  0  0  0  0  0  0  0  0  0
    4.6249   -1.8758    2.0625 H   0  0  0  0  0  0  0  0  0  0  0  0
    2.8958   -0.2682    0.0155 H   0  0  0  0  0  0  0  0  0  0  0  0
    2.4851   -1.6915   -2.1904 H   0  0  0  0  0  0  0  0  0  0  0  0
    4.0199   -0.8759   -2.5535 H   0  0  0  0  0  0  0  0  0  0  0  0
    3.2966   -3.8152   -2.8016 H   0  0  0  0  0  0  0  0  0  0  0  0
    4.3475   -2.8890   -3.8643 H   0  0  0  0  0  0  0  0  0  0  0  0
    5.3883   -4.6229   -2.0741 H   0  0  0  0  0  0  0  0  0  0  0  0
    6.1660   -3.0978   -2.3641 H   0  0  0  0  0  0  0  0  0  0  0  0
    7.2024   -3.9203    1.9368 H   0  0  0  0  0  0  0  0  0  0  0  0
    5.0041   -5.4458    2.0317 H   0  0  0  0  0  0  0  0  0  0  0  0
  1  2  1  0
  1 24  1  0
  1 25  1  0
  1 26  1  0
  2  3  1  0
  2  4  1  0
  2 27  1  0
  3 28  1  0
  3 29  1  0
  3 30  1  0
  4  5  2  3
  4 31  1  0
  5  6  1  0
  5 32  1  0
  6  9  1  0
  6  7  1  0
  6 33  1  1
  7  8  1  0
  7  9  1  0
  7 34  1  6
  8 35  1  0
  8 36  1  0
  8 37  1  0
  9 10  1  0
  9 38  1  6
 10 11  2  3
 10 39  1  0
 11 12  1  0
 11 40  1  0
 12 13  2  3
 12 41  1  0
 13 17  1  0
 13 14  1  0
 14 15  1  0
 14 42  1  0
 14 43  1  0
 15 16  1  0
 15 44  1  0
 15 45  1  0
 16 17  1  0
 16 46  1  0
 16 47  1  0
 17 22  1  0
 17 18  1  0
 18 19  2  0
 18 20  1  0
 20 21  2  0
 20 48  1  0
 21 22  1  0
 21 49  1  0
 22 23  2  0
M  END
>  <i_m_ct_stereo_status>  (50) 
1

>  <s_m_source_file>  (50) 
/var/tmp/pbs.5076255.sched01/tmpfev35gxg/05fxellcm.sdf

>  <i_m_source_file_index>  (50) 
20

>  <i_lp_mmshare_version>  (50) 
48012

>  <i_f3d_flags>  (50) 
0

>  <s_epik_input>  (50) 
W0NIM11bQ0hdKFtDSDNdKS9bQ0hdPVtDSF0vW0NAQEhdMVtDQEBIXShbQ0gzXSlbQ0BIXTEvW0NIXT1bQ0hdL1tDSF09QygvW0NIMl1bQ0gyXVtDSDJdMilDMjNDKD1PKVtDSF09W0NIXUMzPU8=

>  <s_epik_cmdline>  (50) 
J2VwaWtfcHl0aG9uJywgJy1waHQnLCAnMi4wJywgJy1waCcsICc3LjAnLCAnLXRuJywgJzgnLCAnLW1hJywgJzIwMCcsICctaW1hZScsICc8aW5maWxlLm1hZT4nLCAnLW9tYWUnLCAnPG91dGZpbGUubWFlPic=

>  <r_lp_tautomer_probability>  (50) 
1

>  <r_epik_Ionization_Penalty>  (50) 
0

>  <r_epik_Ionization_Penalty_Charging>  (50) 
0

>  <r_epik_Ionization_Penalty_Neutral>  (50) 
0

>  <r_epik_State_Penalty>  (50) 
-0

>  <r_epik_Charging_Adjusted_Penalty>  (50) 
0

>  <i_epik_Tot_Q>  (50) 
0

>  <i_epik_Tot_abs_Q>  (50) 
0

>  <s_lp_Force_Field>  (50) 
OPLS3e

>  <r_lp_Energy>  (50) 
15.1873

>  <b_lp_Chiralities_Consistent>  (50) 
1

>  <s_lp_Variant>  (50) 
13:0-4

>  <s_i_glide_gridfile>  (50) 
pfpi4k_grid

>  <i_i_glide_lignum>  (50) 
20

>  <i_i_glide_rotatable_bonds>  (50) 
4

>  <r_i_docking_score>  (50) 
-2.23333

>  <r_i_glide_ligand_efficiency>  (50) 
-0.0971011

>  <r_i_glide_ligand_efficiency_sa>  (50) 
-0.276143

>  <r_i_glide_ligand_efficiency_ln>  (50) 
-0.540038

>  <r_i_glide_gscore>  (50) 
-2.23333

>  <r_i_glide_lipo>  (50) 
-0.344574

>  <r_i_glide_hbond>  (50) 
-0.0693225

>  <r_i_glide_metal>  (50) 
-0

>  <r_i_glide_rewards>  (50) 
-1.4096

>  <r_i_glide_evdw>  (50) 
-22.2067

>  <r_i_glide_ecoul>  (50) 
-0.457788

>  <r_i_glide_erotb>  (50) 
0.769172

>  <r_i_glide_esite>  (50) 
0

>  <r_i_glide_emodel>  (50) 
-25.0297

>  <r_i_glide_energy>  (50) 
-22.6645

>  <r_i_glide_einternal>  (50) 
1.83871

>  <r_i_glide_intrahb_reward>  (50) 
-0

>  <i_i_glide_confnum>  (50) 
1

>  <i_i_glide_posenum>  (50) 
23

>  <r_i_glide_eff_state_penalty>  (50) 
0

>  <ligand_id>  (50) 
13

>  <original_smiles>  (50) 
CC(C)C=CC1C(C)C1C=CC=C1CCCC12C(=O)C=CC2=O

>  <smiles>  (50) 
[H]C1=C([H])C(=O)C2(C1=O)C(=C([H])C([H])=C([H])C1([H])C([H])(C([H])=C([H])C([H])(C([H])([H])[H])C([H])([H])[H])C1([H])C([H])([H])[H])C([H])([H])C([H])([H])C2([H])[H]

$$$$
13:3:2
     RDKit          3D

 49 51  0  0  1  0  0  0  0  0999 V2000
   -1.6616    3.8824    4.3670 C   0  0  0  0  0  0  0  0  0  0  0  0
   -1.4859    2.3509    4.3796 C   0  0  0  0  0  0  0  0  0  0  0  0
   -0.3329    2.0219    5.3145 C   0  0  0  0  0  0  0  0  0  0  0  0
   -1.3366    1.8271    2.9326 C   0  0  0  0  0  0  0  0  0  0  0  0
   -0.3418    1.1048    2.3928 C   0  0  0  0  0  0  0  0  0  0  0  0
    0.8864    0.6217    3.0544 C   0  0  2  0  0  0  0  0  0  0  0  0
    1.9610    1.6335    3.5521 C   0  0  1  0  0  0  0  0  0  0  0  0
    2.6666    1.4148    4.8930 C   0  0  0  0  0  0  0  0  0  0  0  0
    2.2764    0.7418    2.3751 C   0  0  1  0  0  0  0  0  0  0  0  0
    3.2744   -0.3110    2.5669 C   0  0  0  0  0  0  0  0  0  0  0  0
    3.8001   -1.1226    1.6370 C   0  0  0  0  0  0  0  0  0  0  0  0
    3.4333   -1.0646    0.2295 C   0  0  0  0  0  0  0  0  0  0  0  0
    3.8470   -1.9021   -0.7376 C   0  0  0  0  0  0  0  0  0  0  0  0
    3.4201   -1.7979   -2.1763 C   0  0  0  0  0  0  0  0  0  0  0  0
    3.9610   -3.0689   -2.8430 C   0  0  0  0  0  0  0  0  0  0  0  0
    5.1200   -3.5542   -1.9992 C   0  0  0  0  0  0  0  0  0  0  0  0
    4.7686   -3.0926   -0.5986 C   0  0  0  0  0  0  0  0  0  0  0  0
    6.0889   -2.8648    0.1717 C   0  0  0  0  0  0  0  0  0  0  0  0
    6.8949   -1.9842   -0.1356 O   0  0  0  0  0  0  0  0  0  0  0  0
    6.1176   -3.8343    1.2679 C   0  0  0  0  0  0  0  0  0  0  0  0
    5.0082   -4.5922    1.2877 C   0  0  0  0  0  0  0  0  0  0  0  0
    4.1196   -4.1959    0.2229 C   0  0  0  0  0  0  0  0  0  0  0  0
    3.0054   -4.6745    0.0088 O   0  0  0  0  0  0  0  0  0  0  0  0
   -2.5794    4.1776    3.8539 H   0  0  0  0  0  0  0  0  0  0  0  0
   -0.8220    4.3954    3.8793 H   0  0  0  0  0  0  0  0  0  0  0  0
   -1.7066    4.2560    5.3932 H   0  0  0  0  0  0  0  0  0  0  0  0
   -2.4058    1.8932    4.7870 H   0  0  0  0  0  0  0  0  0  0  0  0
   -0.1311    0.9479    5.3020 H   0  0  0  0  0  0  0  0  0  0  0  0
   -0.4500    2.3207    6.3488 H   0  0  0  0  0  0  0  0  0  0  0  0
    0.4791    2.6073    4.9074 H   0  0  0  0  0  0  0  0  0  0  0  0
   -2.1604    2.0715    2.2783 H   0  0  0  0  0  0  0  0  0  0  0  0
   -0.4401    0.7948    1.3520 H   0  0  0  0  0  0  0  0  0  0  0  0
    0.7608   -0.2763    3.6495 H   0  0  0  0  0  0  0  0  0  0  0  0
    1.7803    2.6546    3.2827 H   0  0  0  0  0  0  0  0  0  0  0  0
    2.7008    0.3691    5.1724 H   0  0  0  0  0  0  0  0  0  0  0  0
    2.1302    1.9111    5.7192 H   0  0  0  0  0  0  0  0  0  0  0  0
    3.6769    1.8350    4.8730 H   0  0  0  0  0  0  0  0  0  0  0  0
    2.2762    1.1987    1.3906 H   0  0  0  0  0  0  0  0  0  0  0  0
    3.6581   -0.4767    3.5647 H   0  0  0  0  0  0  0  0  0  0  0  0
    4.5320   -1.8321    2.0119 H   0  0  0  0  0  0  0  0  0  0  0  0
    2.7250   -0.2769   -0.0395 H   0  0  0  0  0  0  0  0  0  0  0  0
    2.3289   -1.7280   -2.2639 H   0  0  0  0  0  0  0  0  0  0  0  0
    3.8689   -0.8960   -2.6012 H   0  0  0  0  0  0  0  0  0  0  0  0
    3.1656   -3.7972   -2.8278 H   0  0  0  0  0  0  0  0  0  0  0  0
    4.2598   -2.9104   -3.8776 H   0  0  0  0  0  0  0  0  0  0  0  0
    5.2558   -4.6235   -2.0354 H   0  0  0  0  0  0  0  0  0  0  0  0
    6.0362   -3.1003   -2.3437 H   0  0  0  0  0  0  0  0  0  0  0  0
    6.9979   -3.8872    1.9449 H   0  0  0  0  0  0  0  0  0  0  0  0
    4.8042   -5.3921    1.9800 H   0  0  0  0  0  0  0  0  0  0  0  0
  1  2  1  0
  1 24  1  0
  1 25  1  0
  1 26  1  0
  2  3  1  0
  2  4  1  0
  2 27  1  0
  3 28  1  0
  3 29  1  0
  3 30  1  0
  4  5  2  3
  4 31  1  0
  5  6  1  0
  5 32  1  0
  6  9  1  0
  6  7  1  0
  6 33  1  1
  7  8  1  0
  7  9  1  0
  7 34  1  6
  8 35  1  0
  8 36  1  0
  8 37  1  0
  9 10  1  0
  9 38  1  6
 10 11  2  3
 10 39  1  0
 11 12  1  0
 11 40  1  0
 12 13  2  3
 12 41  1  0
 13 17  1  0
 13 14  1  0
 14 15  1  0
 14 42  1  0
 14 43  1  0
 15 16  1  0
 15 44  1  0
 15 45  1  0
 16 17  1  0
 16 46  1  0
 16 47  1  0
 17 22  1  0
 17 18  1  0
 18 19  2  0
 18 20  1  0
 20 21  2  0
 20 48  1  0
 21 22  1  0
 21 49  1  0
 22 23  2  0
M  END
>  <i_m_ct_stereo_status>  (51) 
1

>  <s_m_source_file>  (51) 
/var/tmp/pbs.5076255.sched01/tmpfev35gxg/05fxellcm.sdf

>  <i_m_source_file_index>  (51) 
20

>  <i_lp_mmshare_version>  (51) 
48012

>  <i_f3d_flags>  (51) 
0

>  <s_epik_input>  (51) 
W0NIM11bQ0hdKFtDSDNdKS9bQ0hdPVtDSF0vW0NAQEhdMVtDQEBIXShbQ0gzXSlbQ0BIXTEvW0NIXT1bQ0hdL1tDSF09QygvW0NIMl1bQ0gyXVtDSDJdMilDMjNDKD1PKVtDSF09W0NIXUMzPU8=

>  <s_epik_cmdline>  (51) 
J2VwaWtfcHl0aG9uJywgJy1waHQnLCAnMi4wJywgJy1waCcsICc3LjAnLCAnLXRuJywgJzgnLCAnLW1hJywgJzIwMCcsICctaW1hZScsICc8aW5maWxlLm1hZT4nLCAnLW9tYWUnLCAnPG91dGZpbGUubWFlPic=

>  <r_lp_tautomer_probability>  (51) 
1

>  <r_epik_Ionization_Penalty>  (51) 
0

>  <r_epik_Ionization_Penalty_Charging>  (51) 
0

>  <r_epik_Ionization_Penalty_Neutral>  (51) 
0

>  <r_epik_State_Penalty>  (51) 
-0

>  <r_epik_Charging_Adjusted_Penalty>  (51) 
0

>  <i_epik_Tot_Q>  (51) 
0

>  <i_epik_Tot_abs_Q>  (51) 
0

>  <s_lp_Force_Field>  (51) 
OPLS3e

>  <r_lp_Energy>  (51) 
15.1873

>  <b_lp_Chiralities_Consistent>  (51) 
1

>  <s_lp_Variant>  (51) 
13:0-4

>  <s_i_glide_gridfile>  (51) 
pfpi4k_grid

>  <i_i_glide_lignum>  (51) 
20

>  <i_i_glide_rotatable_bonds>  (51) 
4

>  <r_i_docking_score>  (51) 
-2.05185

>  <r_i_glide_ligand_efficiency>  (51) 
-0.089211

>  <r_i_glide_ligand_efficiency_sa>  (51) 
-0.253704

>  <r_i_glide_ligand_efficiency_ln>  (51) 
-0.496157

>  <r_i_glide_gscore>  (51) 
-2.05185

>  <r_i_glide_lipo>  (51) 
-0.23197

>  <r_i_glide_hbond>  (51) 
-0.0714636

>  <r_i_glide_metal>  (51) 
-0

>  <r_i_glide_rewards>  (51) 
-1.37882

>  <r_i_glide_evdw>  (51) 
-22.1838

>  <r_i_glide_ecoul>  (51) 
-0.73396

>  <r_i_glide_erotb>  (51) 
0.769172

>  <r_i_glide_esite>  (51) 
0

>  <r_i_glide_emodel>  (51) 
-20.9462

>  <r_i_glide_energy>  (51) 
-22.9177

>  <r_i_glide_einternal>  (51) 
2.63898

>  <r_i_glide_intrahb_reward>  (51) 
-0

>  <i_i_glide_confnum>  (51) 
2

>  <i_i_glide_posenum>  (51) 
33

>  <r_i_glide_eff_state_penalty>  (51) 
0

>  <ligand_id>  (51) 
13

>  <original_smiles>  (51) 
CC(C)C=CC1C(C)C1C=CC=C1CCCC12C(=O)C=CC2=O

>  <smiles>  (51) 
[H]C1=C([H])C(=O)C2(C1=O)C(=C([H])C([H])=C([H])C1([H])C([H])(C([H])=C([H])C([H])(C([H])([H])[H])C([H])([H])[H])C1([H])C([H])([H])[H])C([H])([H])C([H])([H])C2([H])[H]

$$$$
13:4:0
     RDKit          3D

 49 51  0  0  1  0  0  0  0  0999 V2000
   -2.3990    3.7559    3.3200 C   0  0  0  0  0  0  0  0  0  0  0  0
   -2.3010    2.6115    4.3368 C   0  0  0  0  0  0  0  0  0  0  0  0
   -2.7717    3.0447    5.7334 C   0  0  0  0  0  0  0  0  0  0  0  0
   -0.8810    2.0748    4.3830 C   0  0  0  0  0  0  0  0  0  0  0  0
   -0.4864    0.8950    3.8765 C   0  0  0  0  0  0  0  0  0  0  0  0
    0.9031    0.3748    3.9128 C   0  0  2  0  0  0  0  0  0  0  0  0
    2.0928    1.3223    3.9206 C   0  0  1  0  0  0  0  0  0  0  0  0
    3.3173    1.0421    4.7726 C   0  0  0  0  0  0  0  0  0  0  0  0
    1.8037    0.4796    2.6889 C   0  0  1  0  0  0  0  0  0  0  0  0
    2.7314   -0.6166    2.3163 C   0  0  0  0  0  0  0  0  0  0  0  0
    3.1881   -0.8670    1.0691 C   0  0  0  0  0  0  0  0  0  0  0  0
    4.1446   -1.9416    0.8050 C   0  0  0  0  0  0  0  0  0  0  0  0
    4.4506   -2.4130   -0.4249 C   0  0  0  0  0  0  0  0  0  0  0  0
    3.8421   -1.9498   -1.7342 C   0  0  0  0  0  0  0  0  0  0  0  0
    4.6488   -2.6844   -2.8187 C   0  0  0  0  0  0  0  0  0  0  0  0
    5.2707   -3.9034   -2.1639 C   0  0  0  0  0  0  0  0  0  0  0  0
    5.4502   -3.5343   -0.7049 C   0  0  0  0  0  0  0  0  0  0  0  0
    5.3330   -4.7988    0.1828 C   0  0  0  0  0  0  0  0  0  0  0  0
    4.2899   -5.4705    0.2832 O   0  0  0  0  0  0  0  0  0  0  0  0
    6.6438   -4.9549    0.8944 C   0  0  0  0  0  0  0  0  0  0  0  0
    7.5206   -3.9569    0.5347 C   0  0  0  0  0  0  0  0  0  0  0  0
    6.8824   -3.0604   -0.4253 C   0  0  0  0  0  0  0  0  0  0  0  0
    7.4104   -2.0712   -0.9280 O   0  0  0  0  0  0  0  0  0  0  0  0
   -2.1184    3.4154    2.3219 H   0  0  0  0  0  0  0  0  0  0  0  0
   -1.7482    4.5907    3.5801 H   0  0  0  0  0  0  0  0  0  0  0  0
   -3.4177    4.1280    3.2488 H   0  0  0  0  0  0  0  0  0  0  0  0
   -2.9544    1.8079    4.0001 H   0  0  0  0  0  0  0  0  0  0  0  0
   -2.7467    2.2138    6.4406 H   0  0  0  0  0  0  0  0  0  0  0  0
   -3.8027    3.3941    5.6848 H   0  0  0  0  0  0  0  0  0  0  0  0
   -2.1541    3.8486    6.1378 H   0  0  0  0  0  0  0  0  0  0  0  0
   -0.1612    2.7114    4.8800 H   0  0  0  0  0  0  0  0  0  0  0  0
   -1.2206    0.2524    3.4004 H   0  0  0  0  0  0  0  0  0  0  0  0
    0.9819   -0.5506    4.5119 H   0  0  0  0  0  0  0  0  0  0  0  0
    1.8678    2.3923    3.8344 H   0  0  0  0  0  0  0  0  0  0  0  0
    3.5357   -0.0314    4.8348 H   0  0  0  0  0  0  0  0  0  0  0  0
    3.1712    1.4168    5.7865 H   0  0  0  0  0  0  0  0  0  0  0  0
    4.1821    1.5433    4.3349 H   0  0  0  0  0  0  0  0  0  0  0  0
    1.3834    1.0012    1.8136 H   0  0  0  0  0  0  0  0  0  0  0  0
    3.0701   -1.2636    3.1281 H   0  0  0  0  0  0  0  0  0  0  0  0
    2.8603   -0.2549    0.2412 H   0  0  0  0  0  0  0  0  0  0  0  0
    4.6527   -2.3525    1.6652 H   0  0  0  0  0  0  0  0  0  0  0  0
    2.7856   -2.2519   -1.7557 H   0  0  0  0  0  0  0  0  0  0  0  0
    3.8966   -0.8566   -1.8339 H   0  0  0  0  0  0  0  0  0  0  0  0
    4.0556   -2.9234   -3.7136 H   0  0  0  0  0  0  0  0  0  0  0  0
    5.4613   -2.0270   -3.1268 H   0  0  0  0  0  0  0  0  0  0  0  0
    4.6261   -4.7557   -2.2532 H   0  0  0  0  0  0  0  0  0  0  0  0
    6.1793   -4.1653   -2.6724 H   0  0  0  0  0  0  0  0  0  0  0  0
    6.7995   -5.8405    1.5478 H   0  0  0  0  0  0  0  0  0  0  0  0
    8.5550   -3.9147    0.8614 H   0  0  0  0  0  0  0  0  0  0  0  0
  1  2  1  0
  1 24  1  0
  1 25  1  0
  1 26  1  0
  2  3  1  0
  2  4  1  0
  2 27  1  0
  3 28  1  0
  3 29  1  0
  3 30  1  0
  4  5  2  3
  4 31  1  0
  5  6  1  0
  5 32  1  0
  6  9  1  0
  6  7  1  0
  6 33  1  1
  7  8  1  0
  7  9  1  0
  7 34  1  6
  8 35  1  0
  8 36  1  0
  8 37  1  0
  9 10  1  0
  9 38  1  6
 10 11  2  3
 10 39  1  0
 11 12  1  0
 11 40  1  0
 12 13  2  3
 12 41  1  0
 13 17  1  0
 13 14  1  0
 14 15  1  0
 14 42  1  0
 14 43  1  0
 15 16  1  0
 15 44  1  0
 15 45  1  0
 16 17  1  0
 16 46  1  0
 16 47  1  0
 17 22  1  0
 17 18  1  0
 18 19  2  0
 18 20  1  0
 20 21  2  0
 20 48  1  0
 21 22  1  0
 21 49  1  0
 22 23  2  0
M  END
>  <i_m_ct_stereo_status>  (52) 
1

>  <s_m_source_file>  (52) 
/var/tmp/pbs.5076255.sched01/tmpfev35gxg/05fxellcm.sdf

>  <i_m_source_file_index>  (52) 
21

>  <i_lp_mmshare_version>  (52) 
48012

>  <i_f3d_flags>  (52) 
0

>  <s_epik_input>  (52) 
W0NIM11bQ0hdKFtDSDNdKS9bQ0hdPVtDSF0vW0NAQEhdMVtDQEBIXShbQ0gzXSlbQ0BIXTEvW0NIXT1bQ0hdL1tDSF09QygvW0NIMl1bQ0gyXVtDSDJdMilDMjNDKD1PKVtDSF09W0NIXUMzPU8=

>  <s_epik_cmdline>  (52) 
J2VwaWtfcHl0aG9uJywgJy1waHQnLCAnMi4wJywgJy1waCcsICc3LjAnLCAnLXRuJywgJzgnLCAnLW1hJywgJzIwMCcsICctaW1hZScsICc8aW5maWxlLm1hZT4nLCAnLW9tYWUnLCAnPG91dGZpbGUubWFlPic=

>  <r_lp_tautomer_probability>  (52) 
1

>  <r_epik_Ionization_Penalty>  (52) 
0

>  <r_epik_Ionization_Penalty_Charging>  (52) 
0

>  <r_epik_Ionization_Penalty_Neutral>  (52) 
0

>  <r_epik_State_Penalty>  (52) 
-0

>  <r_epik_Charging_Adjusted_Penalty>  (52) 
0

>  <i_epik_Tot_Q>  (52) 
0

>  <i_epik_Tot_abs_Q>  (52) 
0

>  <s_lp_Force_Field>  (52) 
OPLS3e

>  <r_lp_Energy>  (52) 
10.1573

>  <b_lp_Chiralities_Consistent>  (52) 
1

>  <s_lp_Variant>  (52) 
13:0-5

>  <s_i_glide_gridfile>  (52) 
pfpi4k_grid

>  <i_i_glide_lignum>  (52) 
21

>  <i_i_glide_rotatable_bonds>  (52) 
4

>  <r_i_docking_score>  (52) 
-2.76545

>  <r_i_glide_ligand_efficiency>  (52) 
-0.120237

>  <r_i_glide_ligand_efficiency_sa>  (52) 
-0.341938

>  <r_i_glide_ligand_efficiency_ln>  (52) 
-0.668711

>  <r_i_glide_gscore>  (52) 
-2.76545

>  <r_i_glide_lipo>  (52) 
-0.490961

>  <r_i_glide_hbond>  (52) 
-0.16

>  <r_i_glide_metal>  (52) 
-0

>  <r_i_glide_rewards>  (52) 
-1.4864

>  <r_i_glide_evdw>  (52) 
-19.7476

>  <r_i_glide_ecoul>  (52) 
-2.73256

>  <r_i_glide_erotb>  (52) 
0.769172

>  <r_i_glide_esite>  (52) 
0

>  <r_i_glide_emodel>  (52) 
-25.3024

>  <r_i_glide_energy>  (52) 
-22.4801

>  <r_i_glide_einternal>  (52) 
1.88597

>  <r_i_glide_intrahb_reward>  (52) 
-0

>  <i_i_glide_confnum>  (52) 
4

>  <i_i_glide_posenum>  (52) 
13

>  <r_i_glide_eff_state_penalty>  (52) 
0

>  <ligand_id>  (52) 
13

>  <original_smiles>  (52) 
CC(C)C=CC1C(C)C1C=CC=C1CCCC12C(=O)C=CC2=O

>  <smiles>  (52) 
[H]C1=C([H])C(=O)C2(C1=O)C(=C([H])C([H])=C([H])C1([H])C([H])(C([H])=C([H])C([H])(C([H])([H])[H])C([H])([H])[H])C1([H])C([H])([H])[H])C([H])([H])C([H])([H])C2([H])[H]

$$$$
13:4:1
     RDKit          3D

 49 51  0  0  1  0  0  0  0  0999 V2000
   -1.8501    3.8684    3.4728 C   0  0  0  0  0  0  0  0  0  0  0  0
   -1.9916    2.6818    4.4424 C   0  0  0  0  0  0  0  0  0  0  0  0
   -2.4647    3.1505    5.8274 C   0  0  0  0  0  0  0  0  0  0  0  0
   -0.7195    1.8422    4.5550 C   0  0  0  0  0  0  0  0  0  0  0  0
    0.4545    2.0997    3.9447 C   0  0  0  0  0  0  0  0  0  0  0  0
    1.6862    1.2939    4.0530 C   0  0  2  0  0  0  0  0  0  0  0  0
    3.0260    1.9787    4.2585 C   0  0  1  0  0  0  0  0  0  0  0  0
    4.0627    1.3953    5.2009 C   0  0  0  0  0  0  0  0  0  0  0  0
    2.7170    1.3047    2.9253 C   0  0  1  0  0  0  0  0  0  0  0  0
    3.4270    0.0700    2.5223 C   0  0  0  0  0  0  0  0  0  0  0  0
    3.5757   -0.3679    1.2565 C   0  0  0  0  0  0  0  0  0  0  0  0
    4.3308   -1.5937    0.9747 C   0  0  0  0  0  0  0  0  0  0  0  0
    4.4958   -2.1325   -0.2538 C   0  0  0  0  0  0  0  0  0  0  0  0
    3.9202   -1.5868   -1.5488 C   0  0  0  0  0  0  0  0  0  0  0  0
    4.5534   -2.4452   -2.6493 C   0  0  0  0  0  0  0  0  0  0  0  0
    4.9956   -3.7466   -1.9874 C   0  0  0  0  0  0  0  0  0  0  0  0
    5.2861   -3.3928   -0.5616 C   0  0  0  0  0  0  0  0  0  0  0  0
    5.0121   -4.6183    0.3751 C   0  0  0  0  0  0  0  0  0  0  0  0
    3.8785   -5.1086    0.5511 O   0  0  0  0  0  0  0  0  0  0  0  0
    6.2985   -4.9721    1.0148 C   0  0  0  0  0  0  0  0  0  0  0  0
    7.3033   -4.1475    0.6161 C   0  0  0  0  0  0  0  0  0  0  0  0
    6.7751   -3.1526   -0.3259 C   0  0  0  0  0  0  0  0  0  0  0  0
    7.4263   -2.2566   -0.8499 O   0  0  0  0  0  0  0  0  0  0  0  0
   -1.5851    3.5242    2.4675 H   0  0  0  0  0  0  0  0  0  0  0  0
   -1.0737    4.5616    3.8024 H   0  0  0  0  0  0  0  0  0  0  0  0
   -2.7770    4.4325    3.3729 H   0  0  0  0  0  0  0  0  0  0  0  0
   -2.7581    2.0242    4.0352 H   0  0  0  0  0  0  0  0  0  0  0  0
   -2.6678    2.3074    6.4883 H   0  0  0  0  0  0  0  0  0  0  0  0
   -3.3865    3.7281    5.7460 H   0  0  0  0  0  0  0  0  0  0  0  0
   -1.7229    3.7872    6.3107 H   0  0  0  0  0  0  0  0  0  0  0  0
   -0.8038    0.9662    5.1853 H   0  0  0  0  0  0  0  0  0  0  0  0
    0.5416    2.9841    3.3043 H   0  0  0  0  0  0  0  0  0  0  0  0
    1.5271    0.3261    4.5773 H   0  0  0  0  0  0  0  0  0  0  0  0
    3.0005    3.0749    4.2625 H   0  0  0  0  0  0  0  0  0  0  0  0
    4.0371    0.2959    5.1768 H   0  0  0  0  0  0  0  0  0  0  0  0
    3.8962    1.7527    6.2258 H   0  0  0  0  0  0  0  0  0  0  0  0
    5.0554    1.7223    4.8859 H   0  0  0  0  0  0  0  0  0  0  0  0
    2.4894    1.9734    2.0732 H   0  0  0  0  0  0  0  0  0  0  0  0
    3.8643   -0.5101    3.3411 H   0  0  0  0  0  0  0  0  0  0  0  0
    3.1531    0.1874    0.4338 H   0  0  0  0  0  0  0  0  0  0  0  0
    4.7977   -2.0678    1.8190 H   0  0  0  0  0  0  0  0  0  0  0  0
    2.8281   -1.7154   -1.5266 H   0  0  0  0  0  0  0  0  0  0  0  0
    4.1553   -0.5232   -1.6548 H   0  0  0  0  0  0  0  0  0  0  0  0
    3.8837   -2.6007   -3.5149 H   0  0  0  0  0  0  0  0  0  0  0  0
    5.4433   -1.9436   -3.0350 H   0  0  0  0  0  0  0  0  0  0  0  0
    4.2094   -4.4653   -2.0353 H   0  0  0  0  0  0  0  0  0  0  0  0
    5.8217   -4.1603   -2.5344 H   0  0  0  0  0  0  0  0  0  0  0  0
    6.3215   -5.8792    1.6860 H   0  0  0  0  0  0  0  0  0  0  0  0
    8.3285   -4.2834    0.9091 H   0  0  0  0  0  0  0  0  0  0  0  0
  1  2  1  0
  1 24  1  0
  1 25  1  0
  1 26  1  0
  2  3  1  0
  2  4  1  0
  2 27  1  0
  3 28  1  0
  3 29  1  0
  3 30  1  0
  4  5  2  3
  4 31  1  0
  5  6  1  0
  5 32  1  0
  6  9  1  0
  6  7  1  0
  6 33  1  1
  7  8  1  0
  7  9  1  0
  7 34  1  6
  8 35  1  0
  8 36  1  0
  8 37  1  0
  9 10  1  0
  9 38  1  6
 10 11  2  3
 10 39  1  0
 11 12  1  0
 11 40  1  0
 12 13  2  3
 12 41  1  0
 13 17  1  0
 13 14  1  0
 14 15  1  0
 14 42  1  0
 14 43  1  0
 15 16  1  0
 15 44  1  0
 15 45  1  0
 16 17  1  0
 16 46  1  0
 16 47  1  0
 17 22  1  0
 17 18  1  0
 18 19  2  0
 18 20  1  0
 20 21  2  0
 20 48  1  0
 21 22  1  0
 21 49  1  0
 22 23  2  0
M  END
>  <i_m_ct_stereo_status>  (53) 
1

>  <s_m_source_file>  (53) 
/var/tmp/pbs.5076255.sched01/tmpfev35gxg/05fxellcm.sdf

>  <i_m_source_file_index>  (53) 
21

>  <i_lp_mmshare_version>  (53) 
48012

>  <i_f3d_flags>  (53) 
0

>  <s_epik_input>  (53) 
W0NIM11bQ0hdKFtDSDNdKS9bQ0hdPVtDSF0vW0NAQEhdMVtDQEBIXShbQ0gzXSlbQ0BIXTEvW0NIXT1bQ0hdL1tDSF09QygvW0NIMl1bQ0gyXVtDSDJdMilDMjNDKD1PKVtDSF09W0NIXUMzPU8=

>  <s_epik_cmdline>  (53) 
J2VwaWtfcHl0aG9uJywgJy1waHQnLCAnMi4wJywgJy1waCcsICc3LjAnLCAnLXRuJywgJzgnLCAnLW1hJywgJzIwMCcsICctaW1hZScsICc8aW5maWxlLm1hZT4nLCAnLW9tYWUnLCAnPG91dGZpbGUubWFlPic=

>  <r_lp_tautomer_probability>  (53) 
1

>  <r_epik_Ionization_Penalty>  (53) 
0

>  <r_epik_Ionization_Penalty_Charging>  (53) 
0

>  <r_epik_Ionization_Penalty_Neutral>  (53) 
0

>  <r_epik_State_Penalty>  (53) 
-0

>  <r_epik_Charging_Adjusted_Penalty>  (53) 
0

>  <i_epik_Tot_Q>  (53) 
0

>  <i_epik_Tot_abs_Q>  (53) 
0

>  <s_lp_Force_Field>  (53) 
OPLS3e

>  <r_lp_Energy>  (53) 
10.1573

>  <b_lp_Chiralities_Consistent>  (53) 
1

>  <s_lp_Variant>  (53) 
13:0-5

>  <s_i_glide_gridfile>  (53) 
pfpi4k_grid

>  <i_i_glide_lignum>  (53) 
21

>  <i_i_glide_rotatable_bonds>  (53) 
4

>  <r_i_docking_score>  (53) 
-2.71932

>  <r_i_glide_ligand_efficiency>  (53) 
-0.118231

>  <r_i_glide_ligand_efficiency_sa>  (53) 
-0.336234

>  <r_i_glide_ligand_efficiency_ln>  (53) 
-0.657556

>  <r_i_glide_gscore>  (53) 
-2.71932

>  <r_i_glide_lipo>  (53) 
-0.497142

>  <r_i_glide_hbond>  (53) 
-0.16

>  <r_i_glide_metal>  (53) 
-0

>  <r_i_glide_rewards>  (53) 
-1.50507

>  <r_i_glide_evdw>  (53) 
-21.8156

>  <r_i_glide_ecoul>  (53) 
-1.57

>  <r_i_glide_erotb>  (53) 
0.769172

>  <r_i_glide_esite>  (53) 
0

>  <r_i_glide_emodel>  (53) 
-26.7086

>  <r_i_glide_energy>  (53) 
-23.3856

>  <r_i_glide_einternal>  (53) 
1.13803

>  <r_i_glide_intrahb_reward>  (53) 
-0

>  <i_i_glide_confnum>  (53) 
1

>  <i_i_glide_posenum>  (53) 
39

>  <r_i_glide_eff_state_penalty>  (53) 
0

>  <ligand_id>  (53) 
13

>  <original_smiles>  (53) 
CC(C)C=CC1C(C)C1C=CC=C1CCCC12C(=O)C=CC2=O

>  <smiles>  (53) 
[H]C1=C([H])C(=O)C2(C1=O)C(=C([H])C([H])=C([H])C1([H])C([H])(C([H])=C([H])C([H])(C([H])([H])[H])C([H])([H])[H])C1([H])C([H])([H])[H])C([H])([H])C([H])([H])C2([H])[H]

$$$$
13:4:2
     RDKit          3D

 49 51  0  0  1  0  0  0  0  0999 V2000
   -3.3979    3.9554    2.8970 C   0  0  0  0  0  0  0  0  0  0  0  0
   -3.2277    2.9026    4.0016 C   0  0  0  0  0  0  0  0  0  0  0  0
   -3.7513    3.2602    5.3954 C   0  0  0  0  0  0  0  0  0  0  0  0
   -1.8328    2.3209    4.1106 C   0  0  0  0  0  0  0  0  0  0  0  0
   -0.8329    2.5798    3.2562 C   0  0  0  0  0  0  0  0  0  0  0  0
    0.5471    2.0553    3.3648 C   0  0  2  0  0  0  0  0  0  0  0  0
    1.6908    2.9341    2.9129 C   0  0  1  0  0  0  0  0  0  0  0  0
    2.9880    2.9739    3.6971 C   0  0  0  0  0  0  0  0  0  0  0  0
    1.3150    1.6964    2.1129 C   0  0  1  0  0  0  0  0  0  0  0  0
    2.2163    0.5108    2.1101 C   0  0  0  0  0  0  0  0  0  0  0  0
    2.6014   -0.1933    1.0306 C   0  0  0  0  0  0  0  0  0  0  0  0
    3.5289   -1.2989    1.0894 C   0  0  0  0  0  0  0  0  0  0  0  0
    3.8235   -2.1161    0.0514 C   0  0  0  0  0  0  0  0  0  0  0  0
    3.2607   -2.0683   -1.3548 C   0  0  0  0  0  0  0  0  0  0  0  0
    4.0669   -3.0958   -2.1677 C   0  0  0  0  0  0  0  0  0  0  0  0
    4.6118   -4.0882   -1.1561 C   0  0  0  0  0  0  0  0  0  0  0  0
    4.7933   -3.2855    0.1256 C   0  0  0  0  0  0  0  0  0  0  0  0
    4.6493   -4.1826    1.3452 C   0  0  0  0  0  0  0  0  0  0  0  0
    3.6184   -4.8056    1.6326 O   0  0  0  0  0  0  0  0  0  0  0  0
    5.9291   -4.1937    2.0785 C   0  0  0  0  0  0  0  0  0  0  0  0
    6.8240   -3.3959    1.4270 C   0  0  0  0  0  0  0  0  0  0  0  0
    6.2253   -2.7725    0.2611 C   0  0  0  0  0  0  0  0  0  0  0  0
    6.7735   -1.9780   -0.5060 O   0  0  0  0  0  0  0  0  0  0  0  0
   -3.1345    3.5402    1.9211 H   0  0  0  0  0  0  0  0  0  0  0  0
   -2.7821    4.8277    3.1037 H   0  0  0  0  0  0  0  0  0  0  0  0
   -4.4440    4.2547    2.8106 H   0  0  0  0  0  0  0  0  0  0  0  0
   -3.8964    2.1448    3.6238 H   0  0  0  0  0  0  0  0  0  0  0  0
   -3.6527    2.5049    6.1457 H   0  0  0  0  0  0  0  0  0  0  0  0
   -4.8351    3.3376    5.2959 H   0  0  0  0  0  0  0  0  0  0  0  0
   -3.2085    4.1278    5.7835 H   0  0  0  0  0  0  0  0  0  0  0  0
   -1.6675    1.6605    4.9511 H   0  0  0  0  0  0  0  0  0  0  0  0
   -1.0101    3.2226    2.4068 H   0  0  0  0  0  0  0  0  0  0  0  0
    0.7010    1.4434    4.2580 H   0  0  0  0  0  0  0  0  0  0  0  0
    1.4220    3.8989    2.4730 H   0  0  0  0  0  0  0  0  0  0  0  0
    3.2394    1.9926    4.1112 H   0  0  0  0  0  0  0  0  0  0  0  0
    2.9250    3.6919    4.5119 H   0  0  0  0  0  0  0  0  0  0  0  0
    3.7820    3.2985    3.0337 H   0  0  0  0  0  0  0  0  0  0  0  0
    0.7834    1.8426    1.1689 H   0  0  0  0  0  0  0  0  0  0  0  0
    2.6023    0.2116    3.0688 H   0  0  0  0  0  0  0  0  0  0  0  0
    2.2081    0.0999    0.0897 H   0  0  0  0  0  0  0  0  0  0  0  0
    4.0289   -1.4466    2.0333 H   0  0  0  0  0  0  0  0  0  0  0  0
    2.2135   -2.3758   -1.3154 H   0  0  0  0  0  0  0  0  0  0  0  0
    3.3245   -1.0577   -1.7697 H   0  0  0  0  0  0  0  0  0  0  0  0
    3.4688   -3.5933   -2.9290 H   0  0  0  0  0  0  0  0  0  0  0  0
    4.9051   -2.6048   -2.6594 H   0  0  0  0  0  0  0  0  0  0  0  0
    3.9095   -4.9005   -1.0037 H   0  0  0  0  0  0  0  0  0  0  0  0
    5.5382   -4.5471   -1.4902 H   0  0  0  0  0  0  0  0  0  0  0  0
    6.0713   -4.8240    2.9385 H   0  0  0  0  0  0  0  0  0  0  0  0
    7.8679   -3.2727    1.6409 H   0  0  0  0  0  0  0  0  0  0  0  0
  1  2  1  0
  1 24  1  0
  1 25  1  0
  1 26  1  0
  2  3  1  0
  2  4  1  0
  2 27  1  0
  3 28  1  0
  3 29  1  0
  3 30  1  0
  4  5  2  3
  4 31  1  0
  5  6  1  0
  5 32  1  0
  6  9  1  0
  6  7  1  0
  6 33  1  1
  7  8  1  0
  7  9  1  0
  7 34  1  6
  8 35  1  0
  8 36  1  0
  8 37  1  0
  9 10  1  0
  9 38  1  6
 10 11  2  3
 10 39  1  0
 11 12  1  0
 11 40  1  0
 12 13  2  3
 12 41  1  0
 13 17  1  0
 13 14  1  0
 14 15  1  0
 14 42  1  0
 14 43  1  0
 15 16  1  0
 15 44  1  0
 15 45  1  0
 16 17  1  0
 16 46  1  0
 16 47  1  0
 17 22  1  0
 17 18  1  0
 18 19  2  0
 18 20  1  0
 20 21  2  0
 20 48  1  0
 21 22  1  0
 21 49  1  0
 22 23  2  0
M  END
>  <i_m_ct_stereo_status>  (54) 
1

>  <s_m_source_file>  (54) 
/var/tmp/pbs.5076255.sched01/tmpfev35gxg/05fxellcm.sdf

>  <i_m_source_file_index>  (54) 
21

>  <i_lp_mmshare_version>  (54) 
48012

>  <i_f3d_flags>  (54) 
0

>  <s_epik_input>  (54) 
W0NIM11bQ0hdKFtDSDNdKS9bQ0hdPVtDSF0vW0NAQEhdMVtDQEBIXShbQ0gzXSlbQ0BIXTEvW0NIXT1bQ0hdL1tDSF09QygvW0NIMl1bQ0gyXVtDSDJdMilDMjNDKD1PKVtDSF09W0NIXUMzPU8=

>  <s_epik_cmdline>  (54) 
J2VwaWtfcHl0aG9uJywgJy1waHQnLCAnMi4wJywgJy1waCcsICc3LjAnLCAnLXRuJywgJzgnLCAnLW1hJywgJzIwMCcsICctaW1hZScsICc8aW5maWxlLm1hZT4nLCAnLW9tYWUnLCAnPG91dGZpbGUubWFlPic=

>  <r_lp_tautomer_probability>  (54) 
1

>  <r_epik_Ionization_Penalty>  (54) 
0

>  <r_epik_Ionization_Penalty_Charging>  (54) 
0

>  <r_epik_Ionization_Penalty_Neutral>  (54) 
0

>  <r_epik_State_Penalty>  (54) 
-0

>  <r_epik_Charging_Adjusted_Penalty>  (54) 
0

>  <i_epik_Tot_Q>  (54) 
0

>  <i_epik_Tot_abs_Q>  (54) 
0

>  <s_lp_Force_Field>  (54) 
OPLS3e

>  <r_lp_Energy>  (54) 
10.1573

>  <b_lp_Chiralities_Consistent>  (54) 
1

>  <s_lp_Variant>  (54) 
13:0-5

>  <s_i_glide_gridfile>  (54) 
pfpi4k_grid

>  <i_i_glide_lignum>  (54) 
21

>  <i_i_glide_rotatable_bonds>  (54) 
4

>  <r_i_docking_score>  (54) 
-1.57958

>  <r_i_glide_ligand_efficiency>  (54) 
-0.0686772

>  <r_i_glide_ligand_efficiency_sa>  (54) 
-0.195309

>  <r_i_glide_ligand_efficiency_ln>  (54) 
-0.381956

>  <r_i_glide_gscore>  (54) 
-1.57958

>  <r_i_glide_lipo>  (54) 
-0.113441

>  <r_i_glide_hbond>  (54) 
-0.150818

>  <r_i_glide_metal>  (54) 
-0

>  <r_i_glide_rewards>  (54) 
-1.41271

>  <r_i_glide_evdw>  (54) 
-6.40233

>  <r_i_glide_ecoul>  (54) 
-2.34442

>  <r_i_glide_erotb>  (54) 
0.769172

>  <r_i_glide_esite>  (54) 
0

>  <r_i_glide_emodel>  (54) 
-9.5267

>  <r_i_glide_energy>  (54) 
-8.74675

>  <r_i_glide_einternal>  (54) 
1.25499

>  <r_i_glide_intrahb_reward>  (54) 
-0

>  <i_i_glide_confnum>  (54) 
2

>  <i_i_glide_posenum>  (54) 
17

>  <r_i_glide_eff_state_penalty>  (54) 
0

>  <ligand_id>  (54) 
13

>  <original_smiles>  (54) 
CC(C)C=CC1C(C)C1C=CC=C1CCCC12C(=O)C=CC2=O

>  <smiles>  (54) 
[H]C1=C([H])C(=O)C2(C1=O)C(=C([H])C([H])=C([H])C1([H])C([H])(C([H])=C([H])C([H])(C([H])([H])[H])C([H])([H])[H])C1([H])C([H])([H])[H])C([H])([H])C([H])([H])C2([H])[H]

$$$$
13:5:0
     RDKit          3D

 49 51  0  0  1  0  0  0  0  0999 V2000
   -1.0199   -7.2237    3.0814 C   0  0  0  0  0  0  0  0  0  0  0  0
   -0.0597   -8.3434    3.5015 C   0  0  0  0  0  0  0  0  0  0  0  0
   -0.4891   -9.6895    2.8992 C   0  0  0  0  0  0  0  0  0  0  0  0
    0.0309   -8.4337    5.0188 C   0  0  0  0  0  0  0  0  0  0  0  0
    1.0689   -8.0497    5.7846 C   0  0  0  0  0  0  0  0  0  0  0  0
    2.3535   -7.4478    5.3435 C   0  0  2  0  0  0  0  0  0  0  0  0
    3.2849   -6.8213    6.3757 C   0  0  1  0  0  0  0  0  0  0  0  0
    4.7913   -6.9640    6.2651 C   0  0  0  0  0  0  0  0  0  0  0  0
    2.5455   -5.9417    5.3867 C   0  0  1  0  0  0  0  0  0  0  0  0
    3.2924   -5.2367    4.3068 C   0  0  0  0  0  0  0  0  0  0  0  0
    2.9579   -4.0404    3.7837 C   0  0  0  0  0  0  0  0  0  0  0  0
    3.7595   -3.4236    2.7382 C   0  0  0  0  0  0  0  0  0  0  0  0
    3.4653   -2.2447    2.1239 C   0  0  0  0  0  0  0  0  0  0  0  0
    2.2627   -1.3514    2.4245 C   0  0  0  0  0  0  0  0  0  0  0  0
    2.5347   -0.0492    1.6617 C   0  0  0  0  0  0  0  0  0  0  0  0
    3.5021   -0.4210    0.5317 C   0  0  0  0  0  0  0  0  0  0  0  0
    4.2976   -1.5710    1.0374 C   0  0  0  0  0  0  0  0  0  0  0  0
    5.6448   -1.1203    1.6227 C   0  0  0  0  0  0  0  0  0  0  0  0
    5.7760   -0.3882    2.6233 O   0  0  0  0  0  0  0  0  0  0  0  0
    6.7456   -1.7018    0.8267 C   0  0  0  0  0  0  0  0  0  0  0  0
    6.2218   -2.4807   -0.1636 C   0  0  0  0  0  0  0  0  0  0  0  0
    4.7426   -2.4780   -0.1377 C   0  0  0  0  0  0  0  0  0  0  0  0
    3.9260   -3.1052   -0.8598 O   0  0  0  0  0  0  0  0  0  0  0  0
   -0.6689   -6.2624    3.4544 H   0  0  0  0  0  0  0  0  0  0  0  0
   -2.0259   -7.3892    3.4693 H   0  0  0  0  0  0  0  0  0  0  0  0
   -1.0907   -7.1611    1.9960 H   0  0  0  0  0  0  0  0  0  0  0  0
    0.9256   -8.1027    3.1046 H   0  0  0  0  0  0  0  0  0  0  0  0
    0.2167  -10.4829    3.1525 H   0  0  0  0  0  0  0  0  0  0  0  0
   -0.5566   -9.6357    1.8130 H   0  0  0  0  0  0  0  0  0  0  0  0
   -1.4707   -9.9845    3.2697 H   0  0  0  0  0  0  0  0  0  0  0  0
   -0.8305   -8.8703    5.4995 H   0  0  0  0  0  0  0  0  0  0  0  0
    0.9664   -8.2021    6.8566 H   0  0  0  0  0  0  0  0  0  0  0  0
    2.8239   -8.0015    4.5110 H   0  0  0  0  0  0  0  0  0  0  0  0
    2.9287   -6.7862    7.4080 H   0  0  0  0  0  0  0  0  0  0  0  0
    5.0908   -7.2494    5.2546 H   0  0  0  0  0  0  0  0  0  0  0  0
    5.1617   -7.7256    6.9525 H   0  0  0  0  0  0  0  0  0  0  0  0
    5.2725   -6.0175    6.5109 H   0  0  0  0  0  0  0  0  0  0  0  0
    1.7017   -5.3529    5.7758 H   0  0  0  0  0  0  0  0  0  0  0  0
    4.1783   -5.7464    3.9244 H   0  0  0  0  0  0  0  0  0  0  0  0
    2.0827   -3.5266    4.1544 H   0  0  0  0  0  0  0  0  0  0  0  0
    4.6566   -3.9339    2.4385 H   0  0  0  0  0  0  0  0  0  0  0  0
    1.3631   -1.8588    2.0572 H   0  0  0  0  0  0  0  0  0  0  0  0
    2.1608   -1.1945    3.5044 H   0  0  0  0  0  0  0  0  0  0  0  0
    1.6186    0.4207    1.3015 H   0  0  0  0  0  0  0  0  0  0  0  0
    3.0260    0.6658    2.3160 H   0  0  0  0  0  0  0  0  0  0  0  0
    2.9431   -0.7041   -0.3565 H   0  0  0  0  0  0  0  0  0  0  0  0
    4.1090    0.4344    0.2494 H   0  0  0  0  0  0  0  0  0  0  0  0
    7.7906   -1.4859    0.9729 H   0  0  0  0  0  0  0  0  0  0  0  0
    6.7493   -3.0216   -0.9629 H   0  0  0  0  0  0  0  0  0  0  0  0
  1  2  1  0
  1 24  1  0
  1 25  1  0
  1 26  1  0
  2  3  1  0
  2  4  1  0
  2 27  1  0
  3 28  1  0
  3 29  1  0
  3 30  1  0
  4  5  2  3
  4 31  1  0
  5  6  1  0
  5 32  1  0
  6  9  1  0
  6  7  1  0
  6 33  1  6
  7  8  1  0
  7  9  1  0
  7 34  1  1
  8 35  1  0
  8 36  1  0
  8 37  1  0
  9 10  1  0
  9 38  1  1
 10 11  2  3
 10 39  1  0
 11 12  1  0
 11 40  1  0
 12 13  2  3
 12 41  1  0
 13 17  1  0
 13 14  1  0
 14 15  1  0
 14 42  1  0
 14 43  1  0
 15 16  1  0
 15 44  1  0
 15 45  1  0
 16 17  1  0
 16 46  1  0
 16 47  1  0
 17 22  1  0
 17 18  1  0
 18 19  2  0
 18 20  1  0
 20 21  2  0
 20 48  1  0
 21 22  1  0
 21 49  1  0
 22 23  2  0
M  END
>  <i_m_ct_stereo_status>  (55) 
1

>  <s_m_source_file>  (55) 
/var/tmp/pbs.5076255.sched01/tmpfev35gxg/05fxellcm.sdf

>  <i_m_source_file_index>  (55) 
22

>  <i_lp_mmshare_version>  (55) 
48012

>  <i_f3d_flags>  (55) 
0

>  <s_epik_input>  (55) 
W0NIM11bQ0hdKFtDSDNdKS9bQ0hdPVtDSF0vW0NAQEhdMVtDQEBIXShbQ0gzXSlbQ0BIXTEvW0NIXT1bQ0hdL1tDSF09QygvW0NIMl1bQ0gyXVtDSDJdMilDMjNDKD1PKVtDSF09W0NIXUMzPU8=

>  <s_epik_cmdline>  (55) 
J2VwaWtfcHl0aG9uJywgJy1waHQnLCAnMi4wJywgJy1waCcsICc3LjAnLCAnLXRuJywgJzgnLCAnLW1hJywgJzIwMCcsICctaW1hZScsICc8aW5maWxlLm1hZT4nLCAnLW9tYWUnLCAnPG91dGZpbGUubWFlPic=

>  <r_lp_tautomer_probability>  (55) 
1

>  <r_epik_Ionization_Penalty>  (55) 
0

>  <r_epik_Ionization_Penalty_Charging>  (55) 
0

>  <r_epik_Ionization_Penalty_Neutral>  (55) 
0

>  <r_epik_State_Penalty>  (55) 
-0

>  <r_epik_Charging_Adjusted_Penalty>  (55) 
0

>  <i_epik_Tot_Q>  (55) 
0

>  <i_epik_Tot_abs_Q>  (55) 
0

>  <s_lp_Force_Field>  (55) 
OPLS3e

>  <r_lp_Energy>  (55) 
9.24077

>  <b_lp_Chiralities_Consistent>  (55) 
1

>  <s_lp_Variant>  (55) 
13:0-6

>  <s_i_glide_gridfile>  (55) 
pfpi4k_grid

>  <i_i_glide_lignum>  (55) 
22

>  <i_i_glide_rotatable_bonds>  (55) 
4

>  <r_i_docking_score>  (55) 
-1.73869

>  <r_i_glide_ligand_efficiency>  (55) 
-0.0755952

>  <r_i_glide_ligand_efficiency_sa>  (55) 
-0.214983

>  <r_i_glide_ligand_efficiency_ln>  (55) 
-0.420431

>  <r_i_glide_gscore>  (55) 
-1.73869

>  <r_i_glide_lipo>  (55) 
-0.0204994

>  <r_i_glide_hbond>  (55) 
-0.0983473

>  <r_i_glide_metal>  (55) 
-0

>  <r_i_glide_rewards>  (55) 
-1.47091

>  <r_i_glide_evdw>  (55) 
-18.2795

>  <r_i_glide_ecoul>  (55) 
0.00578007

>  <r_i_glide_erotb>  (55) 
0.769172

>  <r_i_glide_esite>  (55) 
-0.00499457

>  <r_i_glide_emodel>  (55) 
-19.2628

>  <r_i_glide_energy>  (55) 
-18.2737

>  <r_i_glide_einternal>  (55) 
1.40295

>  <r_i_glide_intrahb_reward>  (55) 
-0

>  <i_i_glide_confnum>  (55) 
1

>  <i_i_glide_posenum>  (55) 
1

>  <r_i_glide_eff_state_penalty>  (55) 
0

>  <ligand_id>  (55) 
13

>  <original_smiles>  (55) 
CC(C)C=CC1C(C)C1C=CC=C1CCCC12C(=O)C=CC2=O

>  <smiles>  (55) 
[H]C1=C([H])C(=O)C2(C1=O)C(=C([H])C([H])=C([H])C1([H])C([H])(C([H])=C([H])C([H])(C([H])([H])[H])C([H])([H])[H])C1([H])C([H])([H])[H])C([H])([H])C([H])([H])C2([H])[H]

$$$$
13:6:0
     RDKit          3D

 49 51  0  0  1  0  0  0  0  0999 V2000
    3.3301   -0.8584   -3.1805 C   0  0  0  0  0  0  0  0  0  0  0  0
    3.4622   -2.3872   -3.1960 C   0  0  0  0  0  0  0  0  0  0  0  0
    2.0953   -3.0465   -3.4310 C   0  0  0  0  0  0  0  0  0  0  0  0
    4.1659   -2.8946   -1.9384 C   0  0  0  0  0  0  0  0  0  0  0  0
    3.6789   -3.8167   -1.0887 C   0  0  0  0  0  0  0  0  0  0  0  0
    4.3630   -4.3215    0.1262 C   0  0  2  0  0  0  0  0  0  0  0  0
    4.8186   -5.7668    0.1962 C   0  0  1  0  0  0  0  0  0  0  0  0
    6.1278   -6.1331    0.8602 C   0  0  0  0  0  0  0  0  0  0  0  0
    3.6482   -5.3094    1.0382 C   0  0  1  0  0  0  0  0  0  0  0  0
    3.8076   -5.2260    2.5147 C   0  0  0  0  0  0  0  0  0  0  0  0
    3.1427   -5.8992    3.4632 C   0  0  0  0  0  0  0  0  0  0  0  0
    2.0984   -6.8932    3.2418 C   0  0  0  0  0  0  0  0  0  0  0  0
    1.3115   -7.3538    4.2293 C   0  0  0  0  0  0  0  0  0  0  0  0
    1.3565   -6.8893    5.6809 C   0  0  0  0  0  0  0  0  0  0  0  0
    0.4253   -7.8313    6.4524 C   0  0  0  0  0  0  0  0  0  0  0  0
   -0.5464   -8.3863    5.4102 C   0  0  0  0  0  0  0  0  0  0  0  0
    0.2139   -8.4269    4.0922 C   0  0  0  0  0  0  0  0  0  0  0  0
   -0.7557   -8.2444    2.9020 C   0  0  0  0  0  0  0  0  0  0  0  0
   -1.3997   -7.2449    2.6375 O   0  0  0  0  0  0  0  0  0  0  0  0
   -0.7466   -9.4897    2.1059 C   0  0  0  0  0  0  0  0  0  0  0  0
    0.1286  -10.3674    2.5973 C   0  0  0  0  0  0  0  0  0  0  0  0
    0.8175   -9.8071    3.7867 C   0  0  0  0  0  0  0  0  0  0  0  0
    1.7151  -10.3307    4.4372 O   0  0  0  0  0  0  0  0  0  0  0  0
    4.3015   -0.3703   -3.0948 H   0  0  0  0  0  0  0  0  0  0  0  0
    2.7104   -0.5402   -2.3421 H   0  0  0  0  0  0  0  0  0  0  0  0
    2.8569   -0.4933   -4.0953 H   0  0  0  0  0  0  0  0  0  0  0  0
    4.1081   -2.6569   -4.0302 H   0  0  0  0  0  0  0  0  0  0  0  0
    2.2100   -4.1262   -3.5517 H   0  0  0  0  0  0  0  0  0  0  0  0
    1.5981   -2.6686   -4.3203 H   0  0  0  0  0  0  0  0  0  0  0  0
    1.4150   -2.8647   -2.6014 H   0  0  0  0  0  0  0  0  0  0  0  0
    5.1341   -2.4550   -1.7397 H   0  0  0  0  0  0  0  0  0  0  0  0
    2.7044   -4.2488   -1.2714 H   0  0  0  0  0  0  0  0  0  0  0  0
    5.0089   -3.5600    0.5778 H   0  0  0  0  0  0  0  0  0  0  0  0
    4.5737   -6.3981   -0.6583 H   0  0  0  0  0  0  0  0  0  0  0  0
    6.4384   -5.3533    1.5573 H   0  0  0  0  0  0  0  0  0  0  0  0
    6.9162   -6.2543    0.1187 H   0  0  0  0  0  0  0  0  0  0  0  0
    6.0088   -7.0648    1.4133 H   0  0  0  0  0  0  0  0  0  0  0  0
    2.6521   -5.6479    0.7433 H   0  0  0  0  0  0  0  0  0  0  0  0
    4.5659   -4.5296    2.8524 H   0  0  0  0  0  0  0  0  0  0  0  0
    3.4271   -5.6935    4.4782 H   0  0  0  0  0  0  0  0  0  0  0  0
    2.0047   -7.3077    2.2507 H   0  0  0  0  0  0  0  0  0  0  0  0
    2.3769   -6.8962    6.0721 H   0  0  0  0  0  0  0  0  0  0  0  0
    1.0172   -5.8524    5.7189 H   0  0  0  0  0  0  0  0  0  0  0  0
    0.9915   -8.6692    6.8672 H   0  0  0  0  0  0  0  0  0  0  0  0
   -0.0841   -7.3453    7.2809 H   0  0  0  0  0  0  0  0  0  0  0  0
   -0.9455   -9.3567    5.7261 H   0  0  0  0  0  0  0  0  0  0  0  0
   -1.3922   -7.7236    5.2857 H   0  0  0  0  0  0  0  0  0  0  0  0
   -1.3900   -9.5667    1.2610 H   0  0  0  0  0  0  0  0  0  0  0  0
    0.3085  -11.3597    2.1860 H   0  0  0  0  0  0  0  0  0  0  0  0
  1  2  1  0
  1 24  1  0
  1 25  1  0
  1 26  1  0
  2  3  1  0
  2  4  1  0
  2 27  1  0
  3 28  1  0
  3 29  1  0
  3 30  1  0
  4  5  2  3
  4 31  1  0
  5  6  1  0
  5 32  1  0
  6  9  1  0
  6  7  1  0
  6 33  1  1
  7  8  1  0
  7  9  1  0
  7 34  1  6
  8 35  1  0
  8 36  1  0
  8 37  1  0
  9 10  1  0
  9 38  1  1
 10 11  2  3
 10 39  1  0
 11 12  1  0
 11 40  1  0
 12 13  2  3
 12 41  1  0
 13 17  1  0
 13 14  1  0
 14 15  1  0
 14 42  1  0
 14 43  1  0
 15 16  1  0
 15 44  1  0
 15 45  1  0
 16 17  1  0
 16 46  1  0
 16 47  1  0
 17 22  1  0
 17 18  1  0
 18 19  2  0
 18 20  1  0
 20 21  2  0
 20 48  1  0
 21 22  1  0
 21 49  1  0
 22 23  2  0
M  END
>  <i_m_ct_stereo_status>  (56) 
1

>  <s_m_source_file>  (56) 
/var/tmp/pbs.5076255.sched01/tmpfev35gxg/05fxellcm.sdf

>  <i_m_source_file_index>  (56) 
23

>  <i_lp_mmshare_version>  (56) 
48012

>  <i_f3d_flags>  (56) 
0

>  <s_epik_input>  (56) 
W0NIM11bQ0hdKFtDSDNdKS9bQ0hdPVtDSF0vW0NAQEhdMVtDQEBIXShbQ0gzXSlbQ0BIXTEvW0NIXT1bQ0hdL1tDSF09QygvW0NIMl1bQ0gyXVtDSDJdMilDMjNDKD1PKVtDSF09W0NIXUMzPU8=

>  <s_epik_cmdline>  (56) 
J2VwaWtfcHl0aG9uJywgJy1waHQnLCAnMi4wJywgJy1waCcsICc3LjAnLCAnLXRuJywgJzgnLCAnLW1hJywgJzIwMCcsICctaW1hZScsICc8aW5maWxlLm1hZT4nLCAnLW9tYWUnLCAnPG91dGZpbGUubWFlPic=

>  <r_lp_tautomer_probability>  (56) 
1

>  <r_epik_Ionization_Penalty>  (56) 
0

>  <r_epik_Ionization_Penalty_Charging>  (56) 
0

>  <r_epik_Ionization_Penalty_Neutral>  (56) 
0

>  <r_epik_State_Penalty>  (56) 
-0

>  <r_epik_Charging_Adjusted_Penalty>  (56) 
0

>  <i_epik_Tot_Q>  (56) 
0

>  <i_epik_Tot_abs_Q>  (56) 
0

>  <s_lp_Force_Field>  (56) 
OPLS3e

>  <r_lp_Energy>  (56) 
8.5364

>  <b_lp_Chiralities_Consistent>  (56) 
1

>  <s_lp_Variant>  (56) 
13:0-7

>  <s_i_glide_gridfile>  (56) 
pfpi4k_grid

>  <i_i_glide_lignum>  (56) 
23

>  <i_i_glide_rotatable_bonds>  (56) 
4

>  <r_i_docking_score>  (56) 
-3.25631

>  <r_i_glide_ligand_efficiency>  (56) 
-0.141579

>  <r_i_glide_ligand_efficiency_sa>  (56) 
-0.402631

>  <r_i_glide_ligand_efficiency_ln>  (56) 
-0.787405

>  <r_i_glide_gscore>  (56) 
-3.25631

>  <r_i_glide_lipo>  (56) 
-0.887666

>  <r_i_glide_hbond>  (56) 
-0.146959

>  <r_i_glide_metal>  (56) 
-0

>  <r_i_glide_rewards>  (56) 
-1.29252

>  <r_i_glide_evdw>  (56) 
-23.519

>  <r_i_glide_ecoul>  (56) 
-2.99251

>  <r_i_glide_erotb>  (56) 
0.769172

>  <r_i_glide_esite>  (56) 
-0.0735086

>  <r_i_glide_emodel>  (56) 
-30.5053

>  <r_i_glide_energy>  (56) 
-26.5115

>  <r_i_glide_einternal>  (56) 
2.37891

>  <r_i_glide_intrahb_reward>  (56) 
-0

>  <i_i_glide_confnum>  (56) 
3

>  <i_i_glide_posenum>  (56) 
30

>  <r_i_glide_eff_state_penalty>  (56) 
0

>  <ligand_id>  (56) 
13

>  <original_smiles>  (56) 
CC(C)C=CC1C(C)C1C=CC=C1CCCC12C(=O)C=CC2=O

>  <smiles>  (56) 
[H]C1=C([H])C(=O)C2(C1=O)C(=C([H])C([H])=C([H])C1([H])C([H])(C([H])=C([H])C([H])(C([H])([H])[H])C([H])([H])[H])C1([H])C([H])([H])[H])C([H])([H])C([H])([H])C2([H])[H]

$$$$
13:6:1
     RDKit          3D

 49 51  0  0  1  0  0  0  0  0999 V2000
   -1.4081   -8.9835    3.0261 C   0  0  0  0  0  0  0  0  0  0  0  0
   -0.0515   -9.2868    3.6803 C   0  0  0  0  0  0  0  0  0  0  0  0
    0.1978   -8.3680    4.8903 C   0  0  0  0  0  0  0  0  0  0  0  0
    1.0779   -9.2484    2.6529 C   0  0  0  0  0  0  0  0  0  0  0  0
    2.1971   -8.5063    2.7484 C   0  0  0  0  0  0  0  0  0  0  0  0
    3.2958   -8.4684    1.7458 C   0  0  2  0  0  0  0  0  0  0  0  0
    4.7254   -8.2672    2.2152 C   0  0  1  0  0  0  0  0  0  0  0  0
    5.8703   -9.0014    1.5451 C   0  0  0  0  0  0  0  0  0  0  0  0
    4.0142   -7.1597    1.4746 C   0  0  1  0  0  0  0  0  0  0  0  0
    4.4404   -6.8203    0.0896 C   0  0  0  0  0  0  0  0  0  0  0  0
    4.7426   -5.6131   -0.4064 C   0  0  0  0  0  0  0  0  0  0  0  0
    4.7667   -4.3664    0.3300 C   0  0  0  0  0  0  0  0  0  0  0  0
    4.5932   -3.1732   -0.2667 C   0  0  0  0  0  0  0  0  0  0  0  0
    4.2993   -2.9638   -1.7425 C   0  0  0  0  0  0  0  0  0  0  0  0
    4.3666   -1.4609   -1.9864 C   0  0  0  0  0  0  0  0  0  0  0  0
    4.1004   -0.8335   -0.6256 C   0  0  0  0  0  0  0  0  0  0  0  0
    4.6189   -1.8087    0.4324 C   0  0  0  0  0  0  0  0  0  0  0  0
    3.8083   -1.6809    1.7364 C   0  0  0  0  0  0  0  0  0  0  0  0
    2.6192   -1.9216    1.8667 O   0  0  0  0  0  0  0  0  0  0  0  0
    4.7422   -1.1982    2.8024 C   0  0  0  0  0  0  0  0  0  0  0  0
    5.9813   -1.0689    2.3186 C   0  0  0  0  0  0  0  0  0  0  0  0
    6.0405   -1.4531    0.8912 C   0  0  0  0  0  0  0  0  0  0  0  0
    7.0339   -1.4566    0.1671 O   0  0  0  0  0  0  0  0  0  0  0  0
   -1.6308   -9.6961    2.2319 H   0  0  0  0  0  0  0  0  0  0  0  0
   -1.4338   -7.9814    2.5992 H   0  0  0  0  0  0  0  0  0  0  0  0
   -2.2135   -9.0557    3.7582 H   0  0  0  0  0  0  0  0  0  0  0  0
   -0.0935  -10.3107    4.0553 H   0  0  0  0  0  0  0  0  0  0  0  0
    1.1164   -8.6455    5.4087 H   0  0  0  0  0  0  0  0  0  0  0  0
   -0.6075   -8.4327    5.6215 H   0  0  0  0  0  0  0  0  0  0  0  0
    0.2846   -7.3245    4.5852 H   0  0  0  0  0  0  0  0  0  0  0  0
    0.9382   -9.8853    1.7888 H   0  0  0  0  0  0  0  0  0  0  0  0
    2.3530   -7.8717    3.6098 H   0  0  0  0  0  0  0  0  0  0  0  0
    3.1302   -9.1585    0.9110 H   0  0  0  0  0  0  0  0  0  0  0  0
    4.8789   -8.1025    3.2823 H   0  0  0  0  0  0  0  0  0  0  0  0
    5.5818   -9.3404    0.5499 H   0  0  0  0  0  0  0  0  0  0  0  0
    6.1610   -9.8735    2.1286 H   0  0  0  0  0  0  0  0  0  0  0  0
    6.7284   -8.3358    1.4490 H   0  0  0  0  0  0  0  0  0  0  0  0
    3.6906   -6.2879    2.0473 H   0  0  0  0  0  0  0  0  0  0  0  0
    4.4974   -7.6533   -0.5958 H   0  0  0  0  0  0  0  0  0  0  0  0
    5.0032   -5.5813   -1.4520 H   0  0  0  0  0  0  0  0  0  0  0  0
    4.9904   -4.4124    1.3885 H   0  0  0  0  0  0  0  0  0  0  0  0
    4.9992   -3.5106   -2.3698 H   0  0  0  0  0  0  0  0  0  0  0  0
    3.3040   -3.3543   -1.9458 H   0  0  0  0  0  0  0  0  0  0  0  0
    5.3621   -1.1671   -2.3109 H   0  0  0  0  0  0  0  0  0  0  0  0
    3.6537   -1.1176   -2.7332 H   0  0  0  0  0  0  0  0  0  0  0  0
    4.5761    0.1409   -0.5240 H   0  0  0  0  0  0  0  0  0  0  0  0
    3.0389   -0.6581   -0.5059 H   0  0  0  0  0  0  0  0  0  0  0  0
    4.3390   -0.9672    3.7847 H   0  0  0  0  0  0  0  0  0  0  0  0
    6.8355   -0.6878    2.8839 H   0  0  0  0  0  0  0  0  0  0  0  0
  1  2  1  0
  1 24  1  0
  1 25  1  0
  1 26  1  0
  2  3  1  0
  2  4  1  0
  2 27  1  0
  3 28  1  0
  3 29  1  0
  3 30  1  0
  4  5  2  3
  4 31  1  0
  5  6  1  0
  5 32  1  0
  6  9  1  0
  6  7  1  0
  6 33  1  6
  7  8  1  0
  7  9  1  0
  7 34  1  1
  8 35  1  0
  8 36  1  0
  8 37  1  0
  9 10  1  0
  9 38  1  1
 10 11  2  3
 10 39  1  0
 11 12  1  0
 11 40  1  0
 12 13  2  3
 12 41  1  0
 13 17  1  0
 13 14  1  0
 14 15  1  0
 14 42  1  0
 14 43  1  0
 15 16  1  0
 15 44  1  0
 15 45  1  0
 16 17  1  0
 16 46  1  0
 16 47  1  0
 17 22  1  0
 17 18  1  0
 18 19  2  0
 18 20  1  0
 20 21  2  0
 20 48  1  0
 21 22  1  0
 21 49  1  0
 22 23  2  0
M  END
>  <i_m_ct_stereo_status>  (57) 
1

>  <s_m_source_file>  (57) 
/var/tmp/pbs.5076255.sched01/tmpfev35gxg/05fxellcm.sdf

>  <i_m_source_file_index>  (57) 
23

>  <i_lp_mmshare_version>  (57) 
48012

>  <i_f3d_flags>  (57) 
0

>  <s_epik_input>  (57) 
W0NIM11bQ0hdKFtDSDNdKS9bQ0hdPVtDSF0vW0NAQEhdMVtDQEBIXShbQ0gzXSlbQ0BIXTEvW0NIXT1bQ0hdL1tDSF09QygvW0NIMl1bQ0gyXVtDSDJdMilDMjNDKD1PKVtDSF09W0NIXUMzPU8=

>  <s_epik_cmdline>  (57) 
J2VwaWtfcHl0aG9uJywgJy1waHQnLCAnMi4wJywgJy1waCcsICc3LjAnLCAnLXRuJywgJzgnLCAnLW1hJywgJzIwMCcsICctaW1hZScsICc8aW5maWxlLm1hZT4nLCAnLW9tYWUnLCAnPG91dGZpbGUubWFlPic=

>  <r_lp_tautomer_probability>  (57) 
1

>  <r_epik_Ionization_Penalty>  (57) 
0

>  <r_epik_Ionization_Penalty_Charging>  (57) 
0

>  <r_epik_Ionization_Penalty_Neutral>  (57) 
0

>  <r_epik_State_Penalty>  (57) 
-0

>  <r_epik_Charging_Adjusted_Penalty>  (57) 
0

>  <i_epik_Tot_Q>  (57) 
0

>  <i_epik_Tot_abs_Q>  (57) 
0

>  <s_lp_Force_Field>  (57) 
OPLS3e

>  <r_lp_Energy>  (57) 
8.5364

>  <b_lp_Chiralities_Consistent>  (57) 
1

>  <s_lp_Variant>  (57) 
13:0-7

>  <s_i_glide_gridfile>  (57) 
pfpi4k_grid

>  <i_i_glide_lignum>  (57) 
23

>  <i_i_glide_rotatable_bonds>  (57) 
4

>  <r_i_docking_score>  (57) 
-2.66027

>  <r_i_glide_ligand_efficiency>  (57) 
-0.115664

>  <r_i_glide_ligand_efficiency_sa>  (57) 
-0.328933

>  <r_i_glide_ligand_efficiency_ln>  (57) 
-0.643278

>  <r_i_glide_gscore>  (57) 
-2.66027

>  <r_i_glide_lipo>  (57) 
-0.48829

>  <r_i_glide_hbond>  (57) 
-0.07011

>  <r_i_glide_metal>  (57) 
-0

>  <r_i_glide_rewards>  (57) 
-1.49893

>  <r_i_glide_evdw>  (57) 
-23.9257

>  <r_i_glide_ecoul>  (57) 
-1.11951

>  <r_i_glide_erotb>  (57) 
0.769172

>  <r_i_glide_esite>  (57) 
-0.0078977

>  <r_i_glide_emodel>  (57) 
-27.5697

>  <r_i_glide_energy>  (57) 
-25.0452

>  <r_i_glide_einternal>  (57) 
3.23021

>  <r_i_glide_intrahb_reward>  (57) 
-0

>  <i_i_glide_confnum>  (57) 
3

>  <i_i_glide_posenum>  (57) 
16

>  <r_i_glide_eff_state_penalty>  (57) 
0

>  <ligand_id>  (57) 
13

>  <original_smiles>  (57) 
CC(C)C=CC1C(C)C1C=CC=C1CCCC12C(=O)C=CC2=O

>  <smiles>  (57) 
[H]C1=C([H])C(=O)C2(C1=O)C(=C([H])C([H])=C([H])C1([H])C([H])(C([H])=C([H])C([H])(C([H])([H])[H])C([H])([H])[H])C1([H])C([H])([H])[H])C([H])([H])C([H])([H])C2([H])[H]

$$$$
13:6:2
     RDKit          3D

 49 51  0  0  1  0  0  0  0  0999 V2000
    5.6063   -8.7503    1.5287 C   0  0  0  0  0  0  0  0  0  0  0  0
    4.3286   -8.2443    0.8399 C   0  0  0  0  0  0  0  0  0  0  0  0
    4.4802   -6.7741    0.3999 C   0  0  0  0  0  0  0  0  0  0  0  0
    3.0953   -8.4842    1.7116 C   0  0  0  0  0  0  0  0  0  0  0  0
    2.0374   -7.6553    1.8217 C   0  0  0  0  0  0  0  0  0  0  0  0
    0.8454   -7.8756    2.6728 C   0  0  2  0  0  0  0  0  0  0  0  0
   -0.5391   -7.5680    2.1353 C   0  0  1  0  0  0  0  0  0  0  0  0
   -1.7157   -8.4638    2.4593 C   0  0  0  0  0  0  0  0  0  0  0  0
    0.0687   -6.6858    3.2130 C   0  0  1  0  0  0  0  0  0  0  0  0
   -0.4873   -6.7125    4.5880 C   0  0  0  0  0  0  0  0  0  0  0  0
   -0.4706   -5.7376    5.5309 C   0  0  0  0  0  0  0  0  0  0  0  0
    0.1022   -4.4256    5.3712 C   0  0  0  0  0  0  0  0  0  0  0  0
    0.3602   -3.6080    6.4361 C   0  0  0  0  0  0  0  0  0  0  0  0
    0.1212   -3.9897    7.8787 C   0  0  0  0  0  0  0  0  0  0  0  0
    0.3623   -2.6947    8.6879 C   0  0  0  0  0  0  0  0  0  0  0  0
    1.2684   -1.8320    7.8196 C   0  0  0  0  0  0  0  0  0  0  0  0
    0.9347   -2.2013    6.3655 C   0  0  0  0  0  0  0  0  0  0  0  0
    2.1499   -1.9953    5.4425 C   0  0  0  0  0  0  0  0  0  0  0  0
    3.2171   -2.6166    5.5649 O   0  0  0  0  0  0  0  0  0  0  0  0
    1.8843   -0.9502    4.4743 C   0  0  0  0  0  0  0  0  0  0  0  0
    0.5941   -0.5074    4.6171 C   0  0  0  0  0  0  0  0  0  0  0  0
   -0.0539   -1.2332    5.7089 C   0  0  0  0  0  0  0  0  0  0  0  0
   -1.2337   -1.0945    6.0970 O   0  0  0  0  0  0  0  0  0  0  0  0
    5.5302   -9.8157    1.7536 H   0  0  0  0  0  0  0  0  0  0  0  0
    5.7964   -8.2185    2.4618 H   0  0  0  0  0  0  0  0  0  0  0  0
    6.4799   -8.6209    0.8874 H   0  0  0  0  0  0  0  0  0  0  0  0
    4.1999   -8.8559   -0.0525 H   0  0  0  0  0  0  0  0  0  0  0  0
    3.6283   -6.4299   -0.1872 H   0  0  0  0  0  0  0  0  0  0  0  0
    5.3563   -6.6240   -0.2281 H   0  0  0  0  0  0  0  0  0  0  0  0
    4.5805   -6.1166    1.2648 H   0  0  0  0  0  0  0  0  0  0  0  0
    3.1003   -9.4062    2.2786 H   0  0  0  0  0  0  0  0  0  0  0  0
    2.0157   -6.7372    1.2501 H   0  0  0  0  0  0  0  0  0  0  0  0
    0.9488   -8.7500    3.3244 H   0  0  0  0  0  0  0  0  0  0  0  0
   -0.5827   -7.1440    1.1313 H   0  0  0  0  0  0  0  0  0  0  0  0
   -1.5186   -9.0663    3.3486 H   0  0  0  0  0  0  0  0  0  0  0  0
   -1.9214   -9.1485    1.6392 H   0  0  0  0  0  0  0  0  0  0  0  0
   -2.5929   -7.8480    2.6469 H   0  0  0  0  0  0  0  0  0  0  0  0
    0.4341   -5.7047    2.9064 H   0  0  0  0  0  0  0  0  0  0  0  0
   -0.9632   -7.6283    4.8954 H   0  0  0  0  0  0  0  0  0  0  0  0
   -0.9463   -5.9890    6.4602 H   0  0  0  0  0  0  0  0  0  0  0  0
    0.2914   -4.0563    4.3762 H   0  0  0  0  0  0  0  0  0  0  0  0
   -0.8776   -4.3867    8.0410 H   0  0  0  0  0  0  0  0  0  0  0  0
    0.8361   -4.7627    8.1566 H   0  0  0  0  0  0  0  0  0  0  0  0
   -0.5755   -2.1734    8.8352 H   0  0  0  0  0  0  0  0  0  0  0  0
    0.7977   -2.8913    9.6615 H   0  0  0  0  0  0  0  0  0  0  0  0
    1.1473   -0.7633    8.0248 H   0  0  0  0  0  0  0  0  0  0  0  0
    2.3062   -2.0647    8.0591 H   0  0  0  0  0  0  0  0  0  0  0  0
    2.6563   -0.5983    3.8006 H   0  0  0  0  0  0  0  0  0  0  0  0
    0.1607    0.2896    4.0418 H   0  0  0  0  0  0  0  0  0  0  0  0
  1  2  1  0
  1 24  1  0
  1 25  1  0
  1 26  1  0
  2  3  1  0
  2  4  1  0
  2 27  1  0
  3 28  1  0
  3 29  1  0
  3 30  1  0
  4  5  2  3
  4 31  1  0
  5  6  1  0
  5 32  1  0
  6  9  1  0
  6  7  1  0
  6 33  1  1
  7  8  1  0
  7  9  1  0
  7 34  1  6
  8 35  1  0
  8 36  1  0
  8 37  1  0
  9 10  1  0
  9 38  1  6
 10 11  2  3
 10 39  1  0
 11 12  1  0
 11 40  1  0
 12 13  2  3
 12 41  1  0
 13 17  1  0
 13 14  1  0
 14 15  1  0
 14 42  1  0
 14 43  1  0
 15 16  1  0
 15 44  1  0
 15 45  1  0
 16 17  1  0
 16 46  1  0
 16 47  1  0
 17 22  1  0
 17 18  1  0
 18 19  2  0
 18 20  1  0
 20 21  2  0
 20 48  1  0
 21 22  1  0
 21 49  1  0
 22 23  2  0
M  END
>  <i_m_ct_stereo_status>  (58) 
1

>  <s_m_source_file>  (58) 
/var/tmp/pbs.5076255.sched01/tmpfev35gxg/05fxellcm.sdf

>  <i_m_source_file_index>  (58) 
23

>  <i_lp_mmshare_version>  (58) 
48012

>  <i_f3d_flags>  (58) 
0

>  <s_epik_input>  (58) 
W0NIM11bQ0hdKFtDSDNdKS9bQ0hdPVtDSF0vW0NAQEhdMVtDQEBIXShbQ0gzXSlbQ0BIXTEvW0NIXT1bQ0hdL1tDSF09QygvW0NIMl1bQ0gyXVtDSDJdMilDMjNDKD1PKVtDSF09W0NIXUMzPU8=

>  <s_epik_cmdline>  (58) 
J2VwaWtfcHl0aG9uJywgJy1waHQnLCAnMi4wJywgJy1waCcsICc3LjAnLCAnLXRuJywgJzgnLCAnLW1hJywgJzIwMCcsICctaW1hZScsICc8aW5maWxlLm1hZT4nLCAnLW9tYWUnLCAnPG91dGZpbGUubWFlPic=

>  <r_lp_tautomer_probability>  (58) 
1

>  <r_epik_Ionization_Penalty>  (58) 
0

>  <r_epik_Ionization_Penalty_Charging>  (58) 
0

>  <r_epik_Ionization_Penalty_Neutral>  (58) 
0

>  <r_epik_State_Penalty>  (58) 
-0

>  <r_epik_Charging_Adjusted_Penalty>  (58) 
0

>  <i_epik_Tot_Q>  (58) 
0

>  <i_epik_Tot_abs_Q>  (58) 
0

>  <s_lp_Force_Field>  (58) 
OPLS3e

>  <r_lp_Energy>  (58) 
8.5364

>  <b_lp_Chiralities_Consistent>  (58) 
1

>  <s_lp_Variant>  (58) 
13:0-7

>  <s_i_glide_gridfile>  (58) 
pfpi4k_grid

>  <i_i_glide_lignum>  (58) 
23

>  <i_i_glide_rotatable_bonds>  (58) 
4

>  <r_i_docking_score>  (58) 
-2.21638

>  <r_i_glide_ligand_efficiency>  (58) 
-0.0963642

>  <r_i_glide_ligand_efficiency_sa>  (58) 
-0.274047

>  <r_i_glide_ligand_efficiency_ln>  (58) 
-0.53594

>  <r_i_glide_gscore>  (58) 
-2.21638

>  <r_i_glide_lipo>  (58) 
-0.325872

>  <r_i_glide_hbond>  (58) 
-0.0335142

>  <r_i_glide_metal>  (58) 
-0

>  <r_i_glide_rewards>  (58) 
-1.29252

>  <r_i_glide_evdw>  (58) 
-18.6758

>  <r_i_glide_ecoul>  (58) 
-2.51299

>  <r_i_glide_erotb>  (58) 
0.769172

>  <r_i_glide_esite>  (58) 
-0.0228988

>  <r_i_glide_emodel>  (58) 
-23.4258

>  <r_i_glide_energy>  (58) 
-21.1888

>  <r_i_glide_einternal>  (58) 
2.3254

>  <r_i_glide_intrahb_reward>  (58) 
-0

>  <i_i_glide_confnum>  (58) 
3

>  <i_i_glide_posenum>  (58) 
4

>  <r_i_glide_eff_state_penalty>  (58) 
0

>  <ligand_id>  (58) 
13

>  <original_smiles>  (58) 
CC(C)C=CC1C(C)C1C=CC=C1CCCC12C(=O)C=CC2=O

>  <smiles>  (58) 
[H]C1=C([H])C(=O)C2(C1=O)C(=C([H])C([H])=C([H])C1([H])C([H])(C([H])=C([H])C([H])(C([H])([H])[H])C([H])([H])[H])C1([H])C([H])([H])[H])C([H])([H])C([H])([H])C2([H])[H]

$$$$
13:7:0
     RDKit          3D

 49 51  0  0  1  0  0  0  0  0999 V2000
   -0.4337   -9.7041    2.4806 C   0  0  0  0  0  0  0  0  0  0  0  0
    1.0042  -10.1123    2.8355 C   0  0  0  0  0  0  0  0  0  0  0  0
    1.0456  -11.4865    3.5195 C   0  0  0  0  0  0  0  0  0  0  0  0
    1.6716   -9.0577    3.7051 C   0  0  0  0  0  0  0  0  0  0  0  0
    2.8071   -8.3794    3.4459 C   0  0  0  0  0  0  0  0  0  0  0  0
    3.6987   -8.4913    2.2525 C   0  0  2  0  0  0  0  0  0  0  0  0
    5.2039   -8.4052    2.4198 C   0  0  1  0  0  0  0  0  0  0  0  0
    6.1340   -9.2965    1.6080 C   0  0  0  0  0  0  0  0  0  0  0  0
    4.4479   -7.2673    1.7578 C   0  0  1  0  0  0  0  0  0  0  0  0
    4.6143   -7.0238    0.2876 C   0  0  0  0  0  0  0  0  0  0  0  0
    4.8107   -5.8586   -0.3423 C   0  0  0  0  0  0  0  0  0  0  0  0
    4.8818   -4.5598    0.3053 C   0  0  0  0  0  0  0  0  0  0  0  0
    4.5948   -3.3837   -0.2967 C   0  0  0  0  0  0  0  0  0  0  0  0
    4.1375   -3.1900   -1.7380 C   0  0  0  0  0  0  0  0  0  0  0  0
    3.6966   -1.7141   -1.8025 C   0  0  0  0  0  0  0  0  0  0  0  0
    4.4308   -0.9979   -0.6766 C   0  0  0  0  0  0  0  0  0  0  0  0
    4.6407   -2.0285    0.3948 C   0  0  0  0  0  0  0  0  0  0  0  0
    3.5549   -1.9919    1.4842 C   0  0  0  0  0  0  0  0  0  0  0  0
    2.3787   -2.2563    1.3022 O   0  0  0  0  0  0  0  0  0  0  0  0
    4.1715   -1.6594    2.7715 C   0  0  0  0  0  0  0  0  0  0  0  0
    5.5019   -1.5078    2.6168 C   0  0  0  0  0  0  0  0  0  0  0  0
    5.9056   -1.7192    1.2004 C   0  0  0  0  0  0  0  0  0  0  0  0
    7.0562   -1.7048    0.6987 O   0  0  0  0  0  0  0  0  0  0  0  0
   -0.4493   -8.7553    1.9422 H   0  0  0  0  0  0  0  0  0  0  0  0
   -1.0496   -9.5947    3.3746 H   0  0  0  0  0  0  0  0  0  0  0  0
   -0.9040  -10.4542    1.8428 H   0  0  0  0  0  0  0  0  0  0  0  0
    1.5461  -10.2066    1.8973 H   0  0  0  0  0  0  0  0  0  0  0  0
    2.0730  -11.7959    3.7167 H   0  0  0  0  0  0  0  0  0  0  0  0
    0.6042  -12.2527    2.8823 H   0  0  0  0  0  0  0  0  0  0  0  0
    0.5079  -11.4830    4.4700 H   0  0  0  0  0  0  0  0  0  0  0  0
    1.1577   -8.8492    4.6327 H   0  0  0  0  0  0  0  0  0  0  0  0
    3.1196   -7.6608    4.1985 H   0  0  0  0  0  0  0  0  0  0  0  0
    3.3318   -9.1898    1.4884 H   0  0  0  0  0  0  0  0  0  0  0  0
    5.5662   -8.2209    3.4348 H   0  0  0  0  0  0  0  0  0  0  0  0
    5.7570   -9.4561    0.5929 H   0  0  0  0  0  0  0  0  0  0  0  0
    6.2350  -10.2767    2.0813 H   0  0  0  0  0  0  0  0  0  0  0  0
    7.1191   -8.8283    1.5402 H   0  0  0  0  0  0  0  0  0  0  0  0
    4.3254   -6.3479    2.3467 H   0  0  0  0  0  0  0  0  0  0  0  0
    4.5751   -7.9102   -0.3397 H   0  0  0  0  0  0  0  0  0  0  0  0
    4.9371   -5.8807   -1.4154 H   0  0  0  0  0  0  0  0  0  0  0  0
    5.1844   -4.5574    1.3441 H   0  0  0  0  0  0  0  0  0  0  0  0
    4.9749   -3.3845   -2.4213 H   0  0  0  0  0  0  0  0  0  0  0  0
    3.3199   -3.8860   -1.9691 H   0  0  0  0  0  0  0  0  0  0  0  0
    3.8435   -1.2564   -2.7900 H   0  0  0  0  0  0  0  0  0  0  0  0
    2.6284   -1.6679   -1.5992 H   0  0  0  0  0  0  0  0  0  0  0  0
    5.3584   -0.6138   -1.0714 H   0  0  0  0  0  0  0  0  0  0  0  0
    3.8643   -0.1553   -0.3242 H   0  0  0  0  0  0  0  0  0  0  0  0
    3.6628   -1.4686    3.7095 H   0  0  0  0  0  0  0  0  0  0  0  0
    6.2741   -1.1837    3.3345 H   0  0  0  0  0  0  0  0  0  0  0  0
  1  2  1  0
  1 24  1  0
  1 25  1  0
  1 26  1  0
  2  3  1  0
  2  4  1  0
  2 27  1  0
  3 28  1  0
  3 29  1  0
  3 30  1  0
  4  5  2  3
  4 31  1  0
  5  6  1  0
  5 32  1  0
  6  9  1  0
  6  7  1  0
  6 33  1  6
  7  8  1  0
  7  9  1  0
  7 34  1  1
  8 35  1  0
  8 36  1  0
  8 37  1  0
  9 10  1  0
  9 38  1  1
 10 11  2  3
 10 39  1  0
 11 12  1  0
 11 40  1  0
 12 13  2  3
 12 41  1  0
 13 17  1  0
 13 14  1  0
 14 15  1  0
 14 42  1  0
 14 43  1  0
 15 16  1  0
 15 44  1  0
 15 45  1  0
 16 17  1  0
 16 46  1  0
 16 47  1  0
 17 22  1  0
 17 18  1  0
 18 19  2  0
 18 20  1  0
 20 21  2  0
 20 48  1  0
 21 22  1  0
 21 49  1  0
 22 23  2  0
M  END
>  <i_m_ct_stereo_status>  (59) 
1

>  <s_m_source_file>  (59) 
/var/tmp/pbs.5076255.sched01/tmpfev35gxg/05fxellcm.sdf

>  <i_m_source_file_index>  (59) 
24

>  <i_lp_mmshare_version>  (59) 
48012

>  <i_f3d_flags>  (59) 
0

>  <s_epik_input>  (59) 
W0NIM11bQ0hdKFtDSDNdKS9bQ0hdPVtDSF0vW0NAQEhdMVtDQEBIXShbQ0gzXSlbQ0BIXTEvW0NIXT1bQ0hdL1tDSF09QygvW0NIMl1bQ0gyXVtDSDJdMilDMjNDKD1PKVtDSF09W0NIXUMzPU8=

>  <s_epik_cmdline>  (59) 
J2VwaWtfcHl0aG9uJywgJy1waHQnLCAnMi4wJywgJy1waCcsICc3LjAnLCAnLXRuJywgJzgnLCAnLW1hJywgJzIwMCcsICctaW1hZScsICc8aW5maWxlLm1hZT4nLCAnLW9tYWUnLCAnPG91dGZpbGUubWFlPic=

>  <r_lp_tautomer_probability>  (59) 
1

>  <r_epik_Ionization_Penalty>  (59) 
0

>  <r_epik_Ionization_Penalty_Charging>  (59) 
0

>  <r_epik_Ionization_Penalty_Neutral>  (59) 
0

>  <r_epik_State_Penalty>  (59) 
-0

>  <r_epik_Charging_Adjusted_Penalty>  (59) 
0

>  <i_epik_Tot_Q>  (59) 
0

>  <i_epik_Tot_abs_Q>  (59) 
0

>  <s_lp_Force_Field>  (59) 
OPLS3e

>  <r_lp_Energy>  (59) 
12.0502

>  <b_lp_Chiralities_Consistent>  (59) 
1

>  <s_lp_Variant>  (59) 
13:0-8

>  <s_i_glide_gridfile>  (59) 
pfpi4k_grid

>  <i_i_glide_lignum>  (59) 
24

>  <i_i_glide_rotatable_bonds>  (59) 
4

>  <r_i_docking_score>  (59) 
-2.64971

>  <r_i_glide_ligand_efficiency>  (59) 
-0.115205

>  <r_i_glide_ligand_efficiency_sa>  (59) 
-0.327627

>  <r_i_glide_ligand_efficiency_ln>  (59) 
-0.640725

>  <r_i_glide_gscore>  (59) 
-2.64971

>  <r_i_glide_lipo>  (59) 
-0.821538

>  <r_i_glide_hbond>  (59) 
0

>  <r_i_glide_metal>  (59) 
-0

>  <r_i_glide_rewards>  (59) 
-1.49364

>  <r_i_glide_evdw>  (59) 
-22.5133

>  <r_i_glide_ecoul>  (59) 
0.228726

>  <r_i_glide_erotb>  (59) 
0.769172

>  <r_i_glide_esite>  (59) 
-0.0123494

>  <r_i_glide_emodel>  (59) 
-24.685

>  <r_i_glide_energy>  (59) 
-22.2845

>  <r_i_glide_einternal>  (59) 
2.06701

>  <r_i_glide_intrahb_reward>  (59) 
-0

>  <i_i_glide_confnum>  (59) 
1

>  <i_i_glide_posenum>  (59) 
1

>  <r_i_glide_eff_state_penalty>  (59) 
0

>  <ligand_id>  (59) 
13

>  <original_smiles>  (59) 
CC(C)C=CC1C(C)C1C=CC=C1CCCC12C(=O)C=CC2=O

>  <smiles>  (59) 
[H]C1=C([H])C(=O)C2(C1=O)C(=C([H])C([H])=C([H])C1([H])C([H])(C([H])=C([H])C([H])(C([H])([H])[H])C([H])([H])[H])C1([H])C([H])([H])[H])C([H])([H])C([H])([H])C2([H])[H]

$$$$
13:7:1
     RDKit          3D

 49 51  0  0  1  0  0  0  0  0999 V2000
   -1.1682    0.7714    4.0950 C   0  0  0  0  0  0  0  0  0  0  0  0
   -0.9012    0.3998    5.5604 C   0  0  0  0  0  0  0  0  0  0  0  0
   -1.1108    1.6068    6.4869 C   0  0  0  0  0  0  0  0  0  0  0  0
    0.4966   -0.1773    5.7314 C   0  0  0  0  0  0  0  0  0  0  0  0
    0.8328   -1.3613    6.2780 C   0  0  0  0  0  0  0  0  0  0  0  0
   -0.0700   -2.3964    6.8632 C   0  0  2  0  0  0  0  0  0  0  0  0
    0.3994   -3.2417    8.0344 C   0  0  1  0  0  0  0  0  0  0  0  0
   -0.5419   -3.6056    9.1734 C   0  0  0  0  0  0  0  0  0  0  0  0
    0.2357   -3.8703    6.6605 C   0  0  1  0  0  0  0  0  0  0  0  0
   -0.8765   -4.8436    6.4129 C   0  0  0  0  0  0  0  0  0  0  0  0
   -0.9055   -5.8663    5.5317 C   0  0  0  0  0  0  0  0  0  0  0  0
    0.1567   -6.2130    4.5974 C   0  0  0  0  0  0  0  0  0  0  0  0
    0.1850   -7.3226    3.8285 C   0  0  0  0  0  0  0  0  0  0  0  0
   -0.8621   -8.4283    3.7846 C   0  0  0  0  0  0  0  0  0  0  0  0
   -0.4563   -9.2911    2.5763 C   0  0  0  0  0  0  0  0  0  0  0  0
    1.0354   -9.0605    2.3596 C   0  0  0  0  0  0  0  0  0  0  0  0
    1.2895   -7.6352    2.8250 C   0  0  0  0  0  0  0  0  0  0  0  0
    1.2478   -6.6144    1.6664 C   0  0  0  0  0  0  0  0  0  0  0  0
    0.2526   -6.3351    1.0014 O   0  0  0  0  0  0  0  0  0  0  0  0
    2.5751   -5.9769    1.5725 C   0  0  0  0  0  0  0  0  0  0  0  0
    3.3967   -6.4520    2.5117 C   0  0  0  0  0  0  0  0  0  0  0  0
    2.7394   -7.4867    3.3534 C   0  0  0  0  0  0  0  0  0  0  0  0
    3.1752   -8.0698    4.3377 O   0  0  0  0  0  0  0  0  0  0  0  0
   -1.0803   -0.1014    3.4475 H   0  0  0  0  0  0  0  0  0  0  0  0
   -0.4655    1.5243    3.7336 H   0  0  0  0  0  0  0  0  0  0  0  0
   -2.1756    1.1733    3.9731 H   0  0  0  0  0  0  0  0  0  0  0  0
   -1.6398   -0.3508    5.8294 H   0  0  0  0  0  0  0  0  0  0  0  0
   -0.9765    1.3295    7.5333 H   0  0  0  0  0  0  0  0  0  0  0  0
   -2.1175    2.0135    6.3782 H   0  0  0  0  0  0  0  0  0  0  0  0
   -0.4044    2.4086    6.2646 H   0  0  0  0  0  0  0  0  0  0  0  0
    1.2944    0.4555    5.3641 H   0  0  0  0  0  0  0  0  0  0  0  0
    1.8954   -1.5949    6.3003 H   0  0  0  0  0  0  0  0  0  0  0  0
   -1.1304   -2.1153    6.8529 H   0  0  0  0  0  0  0  0  0  0  0  0
    1.4330   -3.0786    8.3591 H   0  0  0  0  0  0  0  0  0  0  0  0
   -1.5596   -3.7932    8.8129 H   0  0  0  0  0  0  0  0  0  0  0  0
   -0.5503   -2.8102    9.9237 H   0  0  0  0  0  0  0  0  0  0  0  0
   -0.1814   -4.5180    9.6520 H   0  0  0  0  0  0  0  0  0  0  0  0
    1.1667   -4.0946    6.1189 H   0  0  0  0  0  0  0  0  0  0  0  0
   -1.7695   -4.7180    7.0194 H   0  0  0  0  0  0  0  0  0  0  0  0
   -1.7979   -6.4646    5.5149 H   0  0  0  0  0  0  0  0  0  0  0  0
    0.9694   -5.5032    4.5031 H   0  0  0  0  0  0  0  0  0  0  0  0
   -0.8074   -8.9992    4.7208 H   0  0  0  0  0  0  0  0  0  0  0  0
   -1.8778   -8.0201    3.6874 H   0  0  0  0  0  0  0  0  0  0  0  0
   -0.6872  -10.3467    2.7177 H   0  0  0  0  0  0  0  0  0  0  0  0
   -1.0076   -8.9490    1.6994 H   0  0  0  0  0  0  0  0  0  0  0  0
    1.6012   -9.7697    2.9454 H   0  0  0  0  0  0  0  0  0  0  0  0
    1.3364   -9.2019    1.3325 H   0  0  0  0  0  0  0  0  0  0  0  0
    2.8524   -5.2623    0.7852 H   0  0  0  0  0  0  0  0  0  0  0  0
    4.4694   -6.2451    2.6960 H   0  0  0  0  0  0  0  0  0  0  0  0
  1  2  1  0
  1 24  1  0
  1 25  1  0
  1 26  1  0
  2  3  1  0
  2  4  1  0
  2 27  1  0
  3 28  1  0
  3 29  1  0
  3 30  1  0
  4  5  2  3
  4 31  1  0
  5  6  1  0
  5 32  1  0
  6  9  1  0
  6  7  1  0
  6 33  1  1
  7  8  1  0
  7  9  1  0
  7 34  1  1
  8 35  1  0
  8 36  1  0
  8 37  1  0
  9 10  1  0
  9 38  1  6
 10 11  2  3
 10 39  1  0
 11 12  1  0
 11 40  1  0
 12 13  2  3
 12 41  1  0
 13 17  1  0
 13 14  1  0
 14 15  1  0
 14 42  1  0
 14 43  1  0
 15 16  1  0
 15 44  1  0
 15 45  1  0
 16 17  1  0
 16 46  1  0
 16 47  1  0
 17 22  1  0
 17 18  1  0
 18 19  2  0
 18 20  1  0
 20 21  2  0
 20 48  1  0
 21 22  1  0
 21 49  1  0
 22 23  2  0
M  END
>  <i_m_ct_stereo_status>  (60) 
1

>  <s_m_source_file>  (60) 
/var/tmp/pbs.5076255.sched01/tmpfev35gxg/05fxellcm.sdf

>  <i_m_source_file_index>  (60) 
24

>  <i_lp_mmshare_version>  (60) 
48012

>  <i_f3d_flags>  (60) 
0

>  <s_epik_input>  (60) 
W0NIM11bQ0hdKFtDSDNdKS9bQ0hdPVtDSF0vW0NAQEhdMVtDQEBIXShbQ0gzXSlbQ0BIXTEvW0NIXT1bQ0hdL1tDSF09QygvW0NIMl1bQ0gyXVtDSDJdMilDMjNDKD1PKVtDSF09W0NIXUMzPU8=

>  <s_epik_cmdline>  (60) 
J2VwaWtfcHl0aG9uJywgJy1waHQnLCAnMi4wJywgJy1waCcsICc3LjAnLCAnLXRuJywgJzgnLCAnLW1hJywgJzIwMCcsICctaW1hZScsICc8aW5maWxlLm1hZT4nLCAnLW9tYWUnLCAnPG91dGZpbGUubWFlPic=

>  <r_lp_tautomer_probability>  (60) 
1

>  <r_epik_Ionization_Penalty>  (60) 
0

>  <r_epik_Ionization_Penalty_Charging>  (60) 
0

>  <r_epik_Ionization_Penalty_Neutral>  (60) 
0

>  <r_epik_State_Penalty>  (60) 
-0

>  <r_epik_Charging_Adjusted_Penalty>  (60) 
0

>  <i_epik_Tot_Q>  (60) 
0

>  <i_epik_Tot_abs_Q>  (60) 
0

>  <s_lp_Force_Field>  (60) 
OPLS3e

>  <r_lp_Energy>  (60) 
12.0502

>  <b_lp_Chiralities_Consistent>  (60) 
1

>  <s_lp_Variant>  (60) 
13:0-8

>  <s_i_glide_gridfile>  (60) 
pfpi4k_grid

>  <i_i_glide_lignum>  (60) 
24

>  <i_i_glide_rotatable_bonds>  (60) 
4

>  <r_i_docking_score>  (60) 
-2.28225

>  <r_i_glide_ligand_efficiency>  (60) 
-0.0992283

>  <r_i_glide_ligand_efficiency_sa>  (60) 
-0.282192

>  <r_i_glide_ligand_efficiency_ln>  (60) 
-0.551869

>  <r_i_glide_gscore>  (60) 
-2.28225

>  <r_i_glide_lipo>  (60) 
-0.0803065

>  <r_i_glide_hbond>  (60) 
-0.16

>  <r_i_glide_metal>  (60) 
-0

>  <r_i_glide_rewards>  (60) 
-1.29252

>  <r_i_glide_evdw>  (60) 
-16.7636

>  <r_i_glide_ecoul>  (60) 
-4.13275

>  <r_i_glide_erotb>  (60) 
0.769172

>  <r_i_glide_esite>  (60) 
-0.0604983

>  <r_i_glide_emodel>  (60) 
-23.8315

>  <r_i_glide_energy>  (60) 
-20.8964

>  <r_i_glide_einternal>  (60) 
0.521959

>  <r_i_glide_intrahb_reward>  (60) 
-0

>  <i_i_glide_confnum>  (60) 
3

>  <i_i_glide_posenum>  (60) 
13

>  <r_i_glide_eff_state_penalty>  (60) 
0

>  <ligand_id>  (60) 
13

>  <original_smiles>  (60) 
CC(C)C=CC1C(C)C1C=CC=C1CCCC12C(=O)C=CC2=O

>  <smiles>  (60) 
[H]C1=C([H])C(=O)C2(C1=O)C(=C([H])C([H])=C([H])C1([H])C([H])(C([H])=C([H])C([H])(C([H])([H])[H])C([H])([H])[H])C1([H])C([H])([H])[H])C([H])([H])C([H])([H])C2([H])[H]

$$$$
13:7:2
     RDKit          3D

 49 51  0  0  1  0  0  0  0  0999 V2000
    1.0615   -0.2998    2.1657 C   0  0  0  0  0  0  0  0  0  0  0  0
    1.8179   -0.1281    3.4910 C   0  0  0  0  0  0  0  0  0  0  0  0
    2.2289    1.3346    3.7127 C   0  0  0  0  0  0  0  0  0  0  0  0
    3.0222   -1.0482    3.5563 C   0  0  0  0  0  0  0  0  0  0  0  0
    3.2722   -2.0201    4.4542 C   0  0  0  0  0  0  0  0  0  0  0  0
    2.4311   -2.4436    5.6205 C   0  0  2  0  0  0  0  0  0  0  0  0
    3.0901   -2.8618    6.9174 C   0  0  1  0  0  0  0  0  0  0  0  0
    2.5120   -2.4468    8.2609 C   0  0  0  0  0  0  0  0  0  0  0  0
    2.3981   -3.9023    6.0462 C   0  0  1  0  0  0  0  0  0  0  0  0
    1.1209   -4.5363    6.5145 C   0  0  0  0  0  0  0  0  0  0  0  0
    0.4670   -5.5973    5.9904 C   0  0  0  0  0  0  0  0  0  0  0  0
    0.9057   -6.3362    4.8357 C   0  0  0  0  0  0  0  0  0  0  0  0
    0.1785   -7.2985    4.2222 C   0  0  0  0  0  0  0  0  0  0  0  0
   -1.2242   -7.7342    4.5748 C   0  0  0  0  0  0  0  0  0  0  0  0
   -1.6815   -8.6200    3.4012 C   0  0  0  0  0  0  0  0  0  0  0  0
   -0.4084   -9.1769    2.7862 C   0  0  0  0  0  0  0  0  0  0  0  0
    0.6450   -8.0715    2.9900 C   0  0  0  0  0  0  0  0  0  0  0  0
    0.7846   -7.1219    1.7980 C   0  0  0  0  0  0  0  0  0  0  0  0
   -0.1231   -6.3888    1.3905 O   0  0  0  0  0  0  0  0  0  0  0  0
    2.1443   -7.2060    1.2743 C   0  0  0  0  0  0  0  0  0  0  0  0
    2.8823   -8.1104    1.9918 C   0  0  0  0  0  0  0  0  0  0  0  0
    2.0472   -8.6601    3.0865 C   0  0  0  0  0  0  0  0  0  0  0  0
    2.4416   -9.4474    3.9235 O   0  0  0  0  0  0  0  0  0  0  0  0
    0.7173   -1.3267    2.0423 H   0  0  0  0  0  0  0  0  0  0  0  0
    1.6883   -0.0546    1.3064 H   0  0  0  0  0  0  0  0  0  0  0  0
    0.1852    0.3483    2.1267 H   0  0  0  0  0  0  0  0  0  0  0  0
    1.1204   -0.3862    4.2879 H   0  0  0  0  0  0  0  0  0  0  0  0
    2.7084    1.4638    4.6836 H   0  0  0  0  0  0  0  0  0  0  0  0
    1.3589    1.9917    3.6866 H   0  0  0  0  0  0  0  0  0  0  0  0
    2.9258    1.6785    2.9466 H   0  0  0  0  0  0  0  0  0  0  0  0
    3.7578   -0.8851    2.7735 H   0  0  0  0  0  0  0  0  0  0  0  0
    4.1941   -2.5688    4.3272 H   0  0  0  0  0  0  0  0  0  0  0  0
    1.4985   -1.8930    5.7084 H   0  0  0  0  0  0  0  0  0  0  0  0
    4.1793   -2.8831    6.9117 H   0  0  0  0  0  0  0  0  0  0  0  0
    1.4206   -2.4088    8.2401 H   0  0  0  0  0  0  0  0  0  0  0  0
    2.8680   -1.4580    8.5465 H   0  0  0  0  0  0  0  0  0  0  0  0
    2.8159   -3.1668    9.0226 H   0  0  0  0  0  0  0  0  0  0  0  0
    3.0522   -4.5729    5.4939 H   0  0  0  0  0  0  0  0  0  0  0  0
    0.6463   -4.1116    7.3718 H   0  0  0  0  0  0  0  0  0  0  0  0
   -0.4435   -5.8937    6.4908 H   0  0  0  0  0  0  0  0  0  0  0  0
    1.8932   -6.1264    4.4485 H   0  0  0  0  0  0  0  0  0  0  0  0
   -1.1601   -8.3409    5.4839 H   0  0  0  0  0  0  0  0  0  0  0  0
   -1.8936   -6.8799    4.7323 H   0  0  0  0  0  0  0  0  0  0  0  0
   -2.3557   -9.4348    3.6655 H   0  0  0  0  0  0  0  0  0  0  0  0
   -2.2040   -8.0158    2.6512 H   0  0  0  0  0  0  0  0  0  0  0  0
   -0.1210  -10.0996    3.2798 H   0  0  0  0  0  0  0  0  0  0  0  0
   -0.5559   -9.3850    1.7419 H   0  0  0  0  0  0  0  0  0  0  0  0
    2.4895   -6.6627    0.4108 H   0  0  0  0  0  0  0  0  0  0  0  0
    3.8762   -8.4442    1.8437 H   0  0  0  0  0  0  0  0  0  0  0  0
  1  2  1  0
  1 24  1  0
  1 25  1  0
  1 26  1  0
  2  3  1  0
  2  4  1  0
  2 27  1  0
  3 28  1  0
  3 29  1  0
  3 30  1  0
  4  5  2  3
  4 31  1  0
  5  6  1  0
  5 32  1  0
  6  9  1  0
  6  7  1  0
  6 33  1  1
  7  8  1  0
  7  9  1  0
  7 34  1  6
  8 35  1  0
  8 36  1  0
  8 37  1  0
  9 10  1  0
  9 38  1  6
 10 11  2  3
 10 39  1  0
 11 12  1  0
 11 40  1  0
 12 13  2  3
 12 41  1  0
 13 17  1  0
 13 14  1  0
 14 15  1  0
 14 42  1  0
 14 43  1  0
 15 16  1  0
 15 44  1  0
 15 45  1  0
 16 17  1  0
 16 46  1  0
 16 47  1  0
 17 22  1  0
 17 18  1  0
 18 19  2  0
 18 20  1  0
 20 21  2  0
 20 48  1  0
 21 22  1  0
 21 49  1  0
 22 23  2  0
M  END
>  <i_m_ct_stereo_status>  (61) 
1

>  <s_m_source_file>  (61) 
/var/tmp/pbs.5076255.sched01/tmpfev35gxg/05fxellcm.sdf

>  <i_m_source_file_index>  (61) 
24

>  <i_lp_mmshare_version>  (61) 
48012

>  <i_f3d_flags>  (61) 
0

>  <s_epik_input>  (61) 
W0NIM11bQ0hdKFtDSDNdKS9bQ0hdPVtDSF0vW0NAQEhdMVtDQEBIXShbQ0gzXSlbQ0BIXTEvW0NIXT1bQ0hdL1tDSF09QygvW0NIMl1bQ0gyXVtDSDJdMilDMjNDKD1PKVtDSF09W0NIXUMzPU8=

>  <s_epik_cmdline>  (61) 
J2VwaWtfcHl0aG9uJywgJy1waHQnLCAnMi4wJywgJy1waCcsICc3LjAnLCAnLXRuJywgJzgnLCAnLW1hJywgJzIwMCcsICctaW1hZScsICc8aW5maWxlLm1hZT4nLCAnLW9tYWUnLCAnPG91dGZpbGUubWFlPic=

>  <r_lp_tautomer_probability>  (61) 
1

>  <r_epik_Ionization_Penalty>  (61) 
0

>  <r_epik_Ionization_Penalty_Charging>  (61) 
0

>  <r_epik_Ionization_Penalty_Neutral>  (61) 
0

>  <r_epik_State_Penalty>  (61) 
-0

>  <r_epik_Charging_Adjusted_Penalty>  (61) 
0

>  <i_epik_Tot_Q>  (61) 
0

>  <i_epik_Tot_abs_Q>  (61) 
0

>  <s_lp_Force_Field>  (61) 
OPLS3e

>  <r_lp_Energy>  (61) 
12.0502

>  <b_lp_Chiralities_Consistent>  (61) 
1

>  <s_lp_Variant>  (61) 
13:0-8

>  <s_i_glide_gridfile>  (61) 
pfpi4k_grid

>  <i_i_glide_lignum>  (61) 
24

>  <i_i_glide_rotatable_bonds>  (61) 
4

>  <r_i_docking_score>  (61) 
-2.2715

>  <r_i_glide_ligand_efficiency>  (61) 
-0.0987609

>  <r_i_glide_ligand_efficiency_sa>  (61) 
-0.280863

>  <r_i_glide_ligand_efficiency_ln>  (61) 
-0.54927

>  <r_i_glide_gscore>  (61) 
-2.2715

>  <r_i_glide_lipo>  (61) 
0

>  <r_i_glide_hbond>  (61) 
-0.299058

>  <r_i_glide_metal>  (61) 
-0

>  <r_i_glide_rewards>  (61) 
-1.29252

>  <r_i_glide_evdw>  (61) 
-16.0986

>  <r_i_glide_ecoul>  (61) 
-3.82758

>  <r_i_glide_erotb>  (61) 
0.769172

>  <r_i_glide_esite>  (61) 
-0.0700256

>  <r_i_glide_emodel>  (61) 
-22.4675

>  <r_i_glide_energy>  (61) 
-19.9262

>  <r_i_glide_einternal>  (61) 
0.967305

>  <r_i_glide_intrahb_reward>  (61) 
-0

>  <i_i_glide_confnum>  (61) 
3

>  <i_i_glide_posenum>  (61) 
18

>  <r_i_glide_eff_state_penalty>  (61) 
0

>  <ligand_id>  (61) 
13

>  <original_smiles>  (61) 
CC(C)C=CC1C(C)C1C=CC=C1CCCC12C(=O)C=CC2=O

>  <smiles>  (61) 
[H]C1=C([H])C(=O)C2(C1=O)C(=C([H])C([H])=C([H])C1([H])C([H])(C([H])=C([H])C([H])(C([H])([H])[H])C([H])([H])[H])C1([H])C([H])([H])[H])C([H])([H])C([H])([H])C2([H])[H]

$$$$
15:0:0
     RDKit          3D

 39 44  0  0  1  0  0  0  0  0999 V2000
    2.0637   -5.3291    0.1214 O   0  0  0  0  0  0  0  0  0  0  0  0
    3.3582   -5.3150    0.7027 C   0  0  2  0  0  0  0  0  0  0  0  0
    3.2386   -5.7305    2.1393 C   0  0  0  0  0  0  0  0  0  0  0  0
    3.7519   -4.8377    2.9673 C   0  0  0  0  0  0  0  0  0  0  0  0
    4.3357   -3.6619    2.2578 C   0  0  1  0  0  0  0  0  0  0  0  0
    5.6987   -3.5914    2.6315 O   0  0  0  0  0  0  0  0  0  0  0  0
    4.0909   -3.9054    0.7156 C   0  0  0  0  0  0  0  0  0  0  0  0
    3.1276   -2.7214   -0.0893 C   0  0  2  0  0  0  0  0  0  0  0  0
    3.4109   -1.8148   -1.7269 C   0  0  2  0  0  0  0  0  0  0  0  0
    3.0504   -2.7872   -2.7168 C   0  0  0  0  0  0  0  0  0  0  0  0
    3.8027   -3.1967   -1.5197 C   0  0  2  0  0  0  0  0  0  0  0  0
    3.9406   -1.7931   -0.2317 C   0  0  2  0  0  0  0  0  0  0  0  0
    5.3419   -1.5119    0.4155 C   0  0  0  0  0  0  0  0  0  0  0  0
    6.1970   -2.5327   -0.2429 C   0  0  2  0  0  0  0  0  0  0  0  0
    6.0040   -2.4177   -1.7930 C   0  0  2  0  0  0  0  0  0  0  0  0
    4.9808   -1.2937   -2.3347 C   0  0  0  0  0  0  0  0  0  0  0  0
    5.2076   -3.6993   -1.6319 C   0  0  1  0  0  0  0  0  0  0  0  0
    5.4908   -3.9133   -0.1422 C   0  0  2  0  0  0  0  0  0  0  0  0
    6.3184   -5.0061    0.1949 O   0  0  0  0  0  0  0  0  0  0  0  0
    2.1617   -5.2236   -0.8193 H   0  0  0  0  0  0  0  0  0  0  0  0
    3.9428   -6.0590    0.1580 H   0  0  0  0  0  0  0  0  0  0  0  0
    2.8073   -6.6768    2.4290 H   0  0  0  0  0  0  0  0  0  0  0  0
    3.8241   -4.9348    4.0395 H   0  0  0  0  0  0  0  0  0  0  0  0
    3.8366   -2.7614    2.6063 H   0  0  0  0  0  0  0  0  0  0  0  0
    6.1812   -4.2432    2.1330 H   0  0  0  0  0  0  0  0  0  0  0  0
    2.1707   -2.5139    0.4084 H   0  0  0  0  0  0  0  0  0  0  0  0
    2.6874   -0.9910   -1.9170 H   0  0  0  0  0  0  0  0  0  0  0  0
    1.9892   -3.0412   -2.7191 H   0  0  0  0  0  0  0  0  0  0  0  0
    3.5536   -2.8175   -3.6810 H   0  0  0  0  0  0  0  0  0  0  0  0
    3.2970   -4.1992   -1.5219 H   0  0  0  0  0  0  0  0  0  0  0  0
    3.2864   -0.9667    0.1737 H   0  0  0  0  0  0  0  0  0  0  0  0
    5.6790   -0.5037    0.1412 H   0  0  0  0  0  0  0  0  0  0  0  0
    5.3527   -1.4993    1.5020 H   0  0  0  0  0  0  0  0  0  0  0  0
    7.2411   -2.5581    0.0781 H   0  0  0  0  0  0  0  0  0  0  0  0
    6.9399   -2.5560   -2.3485 H   0  0  0  0  0  0  0  0  0  0  0  0
    4.9963   -1.2202   -3.4192 H   0  0  0  0  0  0  0  0  0  0  0  0
    5.2383   -0.2902   -1.9872 H   0  0  0  0  0  0  0  0  0  0  0  0
    5.4073   -4.5136   -2.3289 H   0  0  0  0  0  0  0  0  0  0  0  0
    5.8023   -5.7830    0.0357 H   0  0  0  0  0  0  0  0  0  0  0  0
  1  2  1  0
  1 20  1  0
  2  7  1  0
  2  3  1  0
  2 21  1  6
  3  4  2  0
  3 22  1  0
  4  5  1  0
  4 23  1  0
  5  6  1  0
  5  7  1  0
  5 24  1  1
  6 25  1  0
  7 18  1  0
  7  8  1  0
  8 12  1  0
  8  9  1  0
  8 26  1  1
  9 16  1  0
  9 10  1  0
  9 27  1  1
 10 11  1  0
 10 28  1  0
 10 29  1  0
 11 17  1  0
 11 12  1  0
 11 30  1  1
 12 13  1  0
 12 31  1  6
 13 14  1  0
 13 32  1  0
 13 33  1  0
 14 18  1  0
 14 15  1  0
 14 34  1  6
 15 16  1  0
 15 17  1  0
 15 35  1  6
 16 36  1  0
 16 37  1  0
 17 18  1  0
 17 38  1  6
 18 19  1  6
 19 39  1  0
M  END
>  <i_m_ct_stereo_status>  (62) 
1

>  <s_m_source_file>  (62) 
/var/tmp/pbs.5076255.sched01/tmpfev35gxg/05fxellcm.sdf

>  <i_m_source_file_index>  (62) 
26

>  <i_lp_mmshare_version>  (62) 
48012

>  <i_f3d_flags>  (62) 
0

>  <s_epik_input>  (62) 
W09IXVtDQEBIXTFbQ0hdPVtDSF1bQ0BASF0oW09IXSlbQ0BdMTJbQ0BASF0zW0NAQEhdNFtDSDJdW0NAQEhdNVtDQEBIXTNbQ0gyXVtDQEBIXTZbQ0BIXShbQ0gyXTQpW0NASF01W0NAXTI2W09IXQ==

>  <s_epik_cmdline>  (62) 
J2VwaWtfcHl0aG9uJywgJy1waHQnLCAnMi4wJywgJy1waCcsICc3LjAnLCAnLXRuJywgJzgnLCAnLW1hJywgJzIwMCcsICctaW1hZScsICc8aW5maWxlLm1hZT4nLCAnLW9tYWUnLCAnPG91dGZpbGUubWFlPic=

>  <r_lp_tautomer_probability>  (62) 
1

>  <r_epik_Ionization_Penalty>  (62) 
6.8175e-07

>  <r_epik_Ionization_Penalty_Charging>  (62) 
0

>  <r_epik_Ionization_Penalty_Neutral>  (62) 
6.8175e-07

>  <r_epik_State_Penalty>  (62) 
-0

>  <r_epik_Charging_Adjusted_Penalty>  (62) 
0

>  <i_epik_Tot_Q>  (62) 
0

>  <i_epik_Tot_abs_Q>  (62) 
0

>  <s_lp_Force_Field>  (62) 
OPLS3e

>  <r_lp_Energy>  (62) 
509.902

>  <b_lp_Chiralities_Consistent>  (62) 
1

>  <s_lp_Variant>  (62) 
15:0-1

>  <s_i_glide_gridfile>  (62) 
pfpi4k_grid

>  <i_i_glide_lignum>  (62) 
26

>  <i_i_glide_rotatable_bonds>  (62) 
3

>  <r_i_docking_score>  (62) 
-3.91073

>  <r_i_glide_ligand_efficiency>  (62) 
-0.205828

>  <r_i_glide_ligand_efficiency_sa>  (62) 
-0.549232

>  <r_i_glide_ligand_efficiency_ln>  (62) 
-0.991455

>  <r_i_glide_gscore>  (62) 
-3.91073

>  <r_i_glide_lipo>  (62) 
-0.1927

>  <r_i_glide_hbond>  (62) 
-0.241317

>  <r_i_glide_metal>  (62) 
-0

>  <r_i_glide_rewards>  (62) 
-1.63413

>  <r_i_glide_evdw>  (62) 
-20.9028

>  <r_i_glide_ecoul>  (62) 
-5.31634

>  <r_i_glide_erotb>  (62) 
0

>  <r_i_glide_esite>  (62) 
0

>  <r_i_glide_emodel>  (62) 
-32.0874

>  <r_i_glide_energy>  (62) 
-26.2192

>  <r_i_glide_einternal>  (62) 
1.10727

>  <r_i_glide_intrahb_reward>  (62) 
-0

>  <i_i_glide_confnum>  (62) 
2

>  <i_i_glide_posenum>  (62) 
27

>  <r_i_glide_eff_state_penalty>  (62) 
0

>  <ligand_id>  (62) 
15

>  <original_smiles>  (62) 
OC1C=CC(O)C12C1C3CC4C1CC1C(C3)C4C12O

>  <smiles>  (62) 
[H]OC1([H])C([H])=C([H])C([H])(O[H])C12C1([H])C3([H])C([H])([H])C4([H])C1([H])C([H])([H])C1([H])C([H])(C3([H])[H])C4([H])C12O[H]

$$$$
15:0:1
     RDKit          3D

 39 44  0  0  1  0  0  0  0  0999 V2000
    2.5512   -0.1527    1.0136 O   0  0  0  0  0  0  0  0  0  0  0  0
    2.8568   -1.3399    1.7125 C   0  0  2  0  0  0  0  0  0  0  0  0
    2.9011   -1.0019    3.1657 C   0  0  0  0  0  0  0  0  0  0  0  0
    4.0787   -1.3022    3.7135 C   0  0  0  0  0  0  0  0  0  0  0  0
    5.0170   -1.9153    2.7327 C   0  0  1  0  0  0  0  0  0  0  0  0
    5.3846   -3.1660    3.2979 O   0  0  0  0  0  0  0  0  0  0  0  0
    4.2503   -1.9950    1.3452 C   0  0  0  0  0  0  0  0  0  0  0  0
    4.9865   -1.1421    0.0416 C   0  0  2  0  0  0  0  0  0  0  0  0
    5.3236   -1.6617   -1.7453 C   0  0  2  0  0  0  0  0  0  0  0  0
    4.0488   -1.5548   -2.3868 C   0  0  0  0  0  0  0  0  0  0  0  0
    4.1459   -2.0964   -1.0221 C   0  0  2  0  0  0  0  0  0  0  0  0
    5.8927   -1.9188   -0.2924 C   0  0  2  0  0  0  0  0  0  0  0  0
    6.5411   -3.1533    0.4307 C   0  0  0  0  0  0  0  0  0  0  0  0
    5.4542   -4.1702    0.3193 C   0  0  2  0  0  0  0  0  0  0  0  0
    5.0422   -4.2584   -1.1933 C   0  0  2  0  0  0  0  0  0  0  0  0
    5.7931   -3.2905   -2.2432 C   0  0  0  0  0  0  0  0  0  0  0  0
    3.7981   -3.5174   -0.7334 C   0  0  1  0  0  0  0  0  0  0  0  0
    4.1018   -3.5314    0.7645 C   0  0  2  0  0  0  0  0  0  0  0  0
    3.2242   -4.3227    1.5430 O   0  0  0  0  0  0  0  0  0  0  0  0
    1.9577   -0.3861    0.2957 H   0  0  0  0  0  0  0  0  0  0  0  0
    2.0310   -2.0322    1.5404 H   0  0  0  0  0  0  0  0  0  0  0  0
    2.0693   -0.5598    3.6789 H   0  0  0  0  0  0  0  0  0  0  0  0
    4.3406   -1.1709    4.7483 H   0  0  0  0  0  0  0  0  0  0  0  0
    5.9019   -1.2853    2.6639 H   0  0  0  0  0  0  0  0  0  0  0  0
    5.7343   -3.7119    2.6093 H   0  0  0  0  0  0  0  0  0  0  0  0
    5.2299   -0.0988    0.2805 H   0  0  0  0  0  0  0  0  0  0  0  0
    5.9339   -0.9220   -2.2985 H   0  0  0  0  0  0  0  0  0  0  0  0
    3.6781   -0.5336   -2.4635 H   0  0  0  0  0  0  0  0  0  0  0  0
    3.7700   -2.2380   -3.1848 H   0  0  0  0  0  0  0  0  0  0  0  0
    3.1478   -1.6338   -0.7606 H   0  0  0  0  0  0  0  0  0  0  0  0
    6.7156   -1.1519   -0.2811 H   0  0  0  0  0  0  0  0  0  0  0  0
    7.4326   -3.4848   -0.1194 H   0  0  0  0  0  0  0  0  0  0  0  0
    6.9421   -2.9394    1.4166 H   0  0  0  0  0  0  0  0  0  0  0  0
    5.6493   -5.1461    0.7743 H   0  0  0  0  0  0  0  0  0  0  0  0
    4.8436   -5.2883   -1.4959 H   0  0  0  0  0  0  0  0  0  0  0  0
    5.5084   -3.5159   -3.2696 H   0  0  0  0  0  0  0  0  0  0  0  0
    6.8784   -3.4351   -2.2177 H   0  0  0  0  0  0  0  0  0  0  0  0
    2.8382   -3.9059   -1.0637 H   0  0  0  0  0  0  0  0  0  0  0  0
    3.3551   -5.2215    1.2865 H   0  0  0  0  0  0  0  0  0  0  0  0
  1  2  1  0
  1 20  1  0
  2  7  1  0
  2  3  1  0
  2 21  1  1
  3  4  2  0
  3 22  1  0
  4  5  1  0
  4 23  1  0
  5  6  1  0
  5  7  1  0
  5 24  1  6
  6 25  1  0
  7 18  1  0
  7  8  1  0
  8 12  1  0
  8  9  1  0
  8 26  1  6
  9 16  1  0
  9 10  1  0
  9 27  1  6
 10 11  1  0
 10 28  1  0
 10 29  1  0
 11 17  1  0
 11 12  1  0
 11 30  1  1
 12 13  1  0
 12 31  1  6
 13 14  1  0
 13 32  1  0
 13 33  1  0
 14 18  1  0
 14 15  1  0
 14 34  1  1
 15 16  1  0
 15 17  1  0
 15 35  1  6
 16 36  1  0
 16 37  1  0
 17 18  1  0
 17 38  1  1
 18 19  1  1
 19 39  1  0
M  END
>  <i_m_ct_stereo_status>  (63) 
1

>  <s_m_source_file>  (63) 
/var/tmp/pbs.5076255.sched01/tmpfev35gxg/05fxellcm.sdf

>  <i_m_source_file_index>  (63) 
26

>  <i_lp_mmshare_version>  (63) 
48012

>  <i_f3d_flags>  (63) 
0

>  <s_epik_input>  (63) 
W09IXVtDQEBIXTFbQ0hdPVtDSF1bQ0BASF0oW09IXSlbQ0BdMTJbQ0BASF0zW0NAQEhdNFtDSDJdW0NAQEhdNVtDQEBIXTNbQ0gyXVtDQEBIXTZbQ0BIXShbQ0gyXTQpW0NASF01W0NAXTI2W09IXQ==

>  <s_epik_cmdline>  (63) 
J2VwaWtfcHl0aG9uJywgJy1waHQnLCAnMi4wJywgJy1waCcsICc3LjAnLCAnLXRuJywgJzgnLCAnLW1hJywgJzIwMCcsICctaW1hZScsICc8aW5maWxlLm1hZT4nLCAnLW9tYWUnLCAnPG91dGZpbGUubWFlPic=

>  <r_lp_tautomer_probability>  (63) 
1

>  <r_epik_Ionization_Penalty>  (63) 
6.8175e-07

>  <r_epik_Ionization_Penalty_Charging>  (63) 
0

>  <r_epik_Ionization_Penalty_Neutral>  (63) 
6.8175e-07

>  <r_epik_State_Penalty>  (63) 
-0

>  <r_epik_Charging_Adjusted_Penalty>  (63) 
0

>  <i_epik_Tot_Q>  (63) 
0

>  <i_epik_Tot_abs_Q>  (63) 
0

>  <s_lp_Force_Field>  (63) 
OPLS3e

>  <r_lp_Energy>  (63) 
509.902

>  <b_lp_Chiralities_Consistent>  (63) 
1

>  <s_lp_Variant>  (63) 
15:0-1

>  <s_i_glide_gridfile>  (63) 
pfpi4k_grid

>  <i_i_glide_lignum>  (63) 
26

>  <i_i_glide_rotatable_bonds>  (63) 
3

>  <r_i_docking_score>  (63) 
-3.86989

>  <r_i_glide_ligand_efficiency>  (63) 
-0.203679

>  <r_i_glide_ligand_efficiency_sa>  (63) 
-0.543496

>  <r_i_glide_ligand_efficiency_ln>  (63) 
-0.981101

>  <r_i_glide_gscore>  (63) 
-3.86989

>  <r_i_glide_lipo>  (63) 
-0.511278

>  <r_i_glide_hbond>  (63) 
-0.16

>  <r_i_glide_metal>  (63) 
-0

>  <r_i_glide_rewards>  (63) 
-1.63413

>  <r_i_glide_evdw>  (63) 
-20.3486

>  <r_i_glide_ecoul>  (63) 
-3.64706

>  <r_i_glide_erotb>  (63) 
0

>  <r_i_glide_esite>  (63) 
0

>  <r_i_glide_emodel>  (63) 
-29.6494

>  <r_i_glide_energy>  (63) 
-23.9956

>  <r_i_glide_einternal>  (63) 
1.42612

>  <r_i_glide_intrahb_reward>  (63) 
-0

>  <i_i_glide_confnum>  (63) 
2

>  <i_i_glide_posenum>  (63) 
6

>  <r_i_glide_eff_state_penalty>  (63) 
0

>  <ligand_id>  (63) 
15

>  <original_smiles>  (63) 
OC1C=CC(O)C12C1C3CC4C1CC1C(C3)C4C12O

>  <smiles>  (63) 
[H]OC1([H])C([H])=C([H])C([H])(O[H])C12C1([H])C3([H])C([H])([H])C4([H])C1([H])C([H])([H])C1([H])C([H])(C3([H])[H])C4([H])C12O[H]

$$$$
15:0:2
     RDKit          3D

 39 44  0  0  1  0  0  0  0  0999 V2000
    2.1538   -0.7415    1.4183 O   0  0  0  0  0  0  0  0  0  0  0  0
    2.5566   -1.9988    1.9295 C   0  0  2  0  0  0  0  0  0  0  0  0
    2.5382   -1.8913    3.4199 C   0  0  0  0  0  0  0  0  0  0  0  0
    3.7236   -2.1648    3.9592 C   0  0  0  0  0  0  0  0  0  0  0  0
    4.7413   -2.5503    2.9368 C   0  0  1  0  0  0  0  0  0  0  0  0
    5.2028   -3.8542    3.2915 O   0  0  0  0  0  0  0  0  0  0  0  0
    4.0167   -2.4538    1.5226 C   0  0  0  0  0  0  0  0  0  0  0  0
    4.6928   -1.3193    0.3987 C   0  0  2  0  0  0  0  0  0  0  0  0
    5.1284   -1.5151   -1.4406 C   0  0  2  0  0  0  0  0  0  0  0  0
    3.8643   -1.4410   -2.1133 C   0  0  0  0  0  0  0  0  0  0  0  0
    3.9744   -2.1642   -0.8331 C   0  0  2  0  0  0  0  0  0  0  0  0
    5.6825   -1.9431   -0.0117 C   0  0  2  0  0  0  0  0  0  0  0  0
    6.4231   -3.2129    0.5270 C   0  0  0  0  0  0  0  0  0  0  0  0
    5.4483   -4.2997    0.2079 C   0  0  2  0  0  0  0  0  0  0  0  0
    5.0891   -4.1778   -1.3138 C   0  0  2  0  0  0  0  0  0  0  0  0
    5.7697   -2.9910   -2.1738 C   0  0  0  0  0  0  0  0  0  0  0  0
    3.7667   -3.6465   -0.7853 C   0  0  1  0  0  0  0  0  0  0  0  0
    4.0293   -3.8715    0.7030 C   0  0  2  0  0  0  0  0  0  0  0  0
    3.2009   -4.8572    1.2858 O   0  0  0  0  0  0  0  0  0  0  0  0
    1.6656   -0.8619    0.6006 H   0  0  0  0  0  0  0  0  0  0  0  0
    1.8087   -2.7316    1.6277 H   0  0  0  0  0  0  0  0  0  0  0  0
    1.6450   -1.6281    3.9666 H   0  0  0  0  0  0  0  0  0  0  0  0
    3.9370   -2.1605    5.0166 H   0  0  0  0  0  0  0  0  0  0  0  0
    5.5653   -1.8413    3.0071 H   0  0  0  0  0  0  0  0  0  0  0  0
    5.7213   -3.8071    4.0839 H   0  0  0  0  0  0  0  0  0  0  0  0
    4.8237   -0.3060    0.8007 H   0  0  0  0  0  0  0  0  0  0  0  0
    5.6875   -0.6380   -1.8466 H   0  0  0  0  0  0  0  0  0  0  0  0
    3.3925   -0.4639   -2.0599 H   0  0  0  0  0  0  0  0  0  0  0  0
    3.6685   -2.0197   -3.0114 H   0  0  0  0  0  0  0  0  0  0  0  0
    2.9283   -1.8526   -0.5406 H   0  0  0  0  0  0  0  0  0  0  0  0
    6.4315   -1.1117    0.1417 H   0  0  0  0  0  0  0  0  0  0  0  0
    7.3628   -3.3638   -0.0310 H   0  0  0  0  0  0  0  0  0  0  0  0
    6.7535   -3.1427    1.5610 H   0  0  0  0  0  0  0  0  0  0  0  0
    5.7374   -5.3108    0.5121 H   0  0  0  0  0  0  0  0  0  0  0  0
    5.0184   -5.1624   -1.7931 H   0  0  0  0  0  0  0  0  0  0  0  0
    5.5263   -3.0726   -3.2338 H   0  0  0  0  0  0  0  0  0  0  0  0
    6.8620   -3.0345   -2.1292 H   0  0  0  0  0  0  0  0  0  0  0  0
    2.8559   -4.0641   -1.2123 H   0  0  0  0  0  0  0  0  0  0  0  0
    3.4337   -5.6798    0.8857 H   0  0  0  0  0  0  0  0  0  0  0  0
  1  2  1  0
  1 20  1  0
  2  7  1  0
  2  3  1  0
  2 21  1  1
  3  4  2  0
  3 22  1  0
  4  5  1  0
  4 23  1  0
  5  6  1  0
  5  7  1  0
  5 24  1  6
  6 25  1  0
  7 18  1  0
  7  8  1  0
  8 12  1  0
  8  9  1  0
  8 26  1  1
  9 16  1  0
  9 10  1  0
  9 27  1  6
 10 11  1  0
 10 28  1  0
 10 29  1  0
 11 17  1  0
 11 12  1  0
 11 30  1  1
 12 13  1  0
 12 31  1  6
 13 14  1  0
 13 32  1  0
 13 33  1  0
 14 18  1  0
 14 15  1  0
 14 34  1  6
 15 16  1  0
 15 17  1  0
 15 35  1  6
 16 36  1  0
 16 37  1  0
 17 18  1  0
 17 38  1  6
 18 19  1  1
 19 39  1  0
M  END
>  <i_m_ct_stereo_status>  (64) 
1

>  <s_m_source_file>  (64) 
/var/tmp/pbs.5076255.sched01/tmpfev35gxg/05fxellcm.sdf

>  <i_m_source_file_index>  (64) 
26

>  <i_lp_mmshare_version>  (64) 
48012

>  <i_f3d_flags>  (64) 
0

>  <s_epik_input>  (64) 
W09IXVtDQEBIXTFbQ0hdPVtDSF1bQ0BASF0oW09IXSlbQ0BdMTJbQ0BASF0zW0NAQEhdNFtDSDJdW0NAQEhdNVtDQEBIXTNbQ0gyXVtDQEBIXTZbQ0BIXShbQ0gyXTQpW0NASF01W0NAXTI2W09IXQ==

>  <s_epik_cmdline>  (64) 
J2VwaWtfcHl0aG9uJywgJy1waHQnLCAnMi4wJywgJy1waCcsICc3LjAnLCAnLXRuJywgJzgnLCAnLW1hJywgJzIwMCcsICctaW1hZScsICc8aW5maWxlLm1hZT4nLCAnLW9tYWUnLCAnPG91dGZpbGUubWFlPic=

>  <r_lp_tautomer_probability>  (64) 
1

>  <r_epik_Ionization_Penalty>  (64) 
6.8175e-07

>  <r_epik_Ionization_Penalty_Charging>  (64) 
0

>  <r_epik_Ionization_Penalty_Neutral>  (64) 
6.8175e-07

>  <r_epik_State_Penalty>  (64) 
-0

>  <r_epik_Charging_Adjusted_Penalty>  (64) 
0

>  <i_epik_Tot_Q>  (64) 
0

>  <i_epik_Tot_abs_Q>  (64) 
0

>  <s_lp_Force_Field>  (64) 
OPLS3e

>  <r_lp_Energy>  (64) 
509.902

>  <b_lp_Chiralities_Consistent>  (64) 
1

>  <s_lp_Variant>  (64) 
15:0-1

>  <s_i_glide_gridfile>  (64) 
pfpi4k_grid

>  <i_i_glide_lignum>  (64) 
26

>  <i_i_glide_rotatable_bonds>  (64) 
3

>  <r_i_docking_score>  (64) 
-3.6886

>  <r_i_glide_ligand_efficiency>  (64) 
-0.194137

>  <r_i_glide_ligand_efficiency_sa>  (64) 
-0.518035

>  <r_i_glide_ligand_efficiency_ln>  (64) 
-0.935139

>  <r_i_glide_gscore>  (64) 
-3.6886

>  <r_i_glide_lipo>  (64) 
-0.346107

>  <r_i_glide_hbond>  (64) 
-0.16

>  <r_i_glide_metal>  (64) 
-0

>  <r_i_glide_rewards>  (64) 
-1.63413

>  <r_i_glide_evdw>  (64) 
-19.5702

>  <r_i_glide_ecoul>  (64) 
-3.79905

>  <r_i_glide_erotb>  (64) 
0

>  <r_i_glide_esite>  (64) 
0

>  <r_i_glide_emodel>  (64) 
-28.7823

>  <r_i_glide_energy>  (64) 
-23.3692

>  <r_i_glide_einternal>  (64) 
1.19477

>  <r_i_glide_intrahb_reward>  (64) 
-0

>  <i_i_glide_confnum>  (64) 
2

>  <i_i_glide_posenum>  (64) 
1

>  <r_i_glide_eff_state_penalty>  (64) 
0

>  <ligand_id>  (64) 
15

>  <original_smiles>  (64) 
OC1C=CC(O)C12C1C3CC4C1CC1C(C3)C4C12O

>  <smiles>  (64) 
[H]OC1([H])C([H])=C([H])C([H])(O[H])C12C1([H])C3([H])C([H])([H])C4([H])C1([H])C([H])([H])C1([H])C([H])(C3([H])[H])C4([H])C12O[H]

$$$$
16:0:0
     RDKit          3D

 81 90  0  0  1  0  0  0  0  0999 V2000
    5.6642   -4.0435   -1.2610 C   0  0  0  0  0  0  0  0  0  0  0  0
    4.5498   -3.2955   -0.5392 C   0  0  2  0  0  0  0  0  0  0  0  0
    4.9578   -2.7303    0.8213 C   0  0  0  0  0  0  0  0  0  0  0  0
    3.6234   -2.6351    1.5583 C   0  0  2  0  0  0  0  0  0  0  0  0
    3.0009   -1.2298    1.4781 C   0  0  0  0  0  0  0  0  0  0  0  0
    3.7789   -3.0173    2.9155 O   0  0  0  0  0  0  0  0  0  0  0  0
    2.7125   -3.8910    3.2667 C   0  0  2  0  0  0  0  0  0  0  0  0
    3.0023   -4.4894    4.7177 C   0  0  0  0  0  0  0  0  0  0  0  0
    3.7409   -5.8742    4.8861 C   0  0  1  0  0  0  0  0  0  0  0  0
    4.9316   -5.5796    5.8548 C   0  0  0  0  0  0  0  0  0  0  0  0
    2.9192   -7.0729    5.7783 C   0  0  2  0  0  0  0  0  0  0  0  0
    3.5998   -8.4923    5.8815 C   0  0  0  0  0  0  0  0  0  0  0  0
    2.5832   -9.6657    6.0819 C   0  0  1  0  0  0  0  0  0  0  0  0
    1.6696   -9.4396    7.3050 C   0  0  1  0  0  0  0  0  0  0  0  0
    2.3570   -9.4832    8.6809 C   0  0  0  0  0  0  0  0  0  0  0  0
    3.0248  -10.7034    8.8801 O   0  0  0  0  0  0  0  0  0  0  0  0
    0.9712   -8.1063    7.0554 C   0  0  0  0  0  0  0  0  0  0  0  0
    0.2175   -7.5857    7.8740 O   0  0  0  0  0  0  0  0  0  0  0  0
    1.3460   -7.4611    5.7127 C   0  0  2  0  0  0  0  0  0  0  0  0
    0.8474   -8.5265    4.5465 C   0  0  1  0  0  0  0  0  0  0  0  0
    0.9100   -8.0362    2.9541 C   0  0  1  0  0  0  0  0  0  0  0  0
    0.4746   -6.5992    2.1792 C   0  0  1  0  0  0  0  0  0  0  0  0
    0.8332   -6.1838    3.4626 C   0  0  0  0  0  0  0  0  0  0  0  0
    2.0673   -7.2363    2.9986 C   0  0  2  0  0  0  0  0  0  0  0  0
    3.1132   -7.1921    1.8952 C   0  0  2  0  0  0  0  0  0  0  0  0
    4.3302   -8.1303    2.1344 C   0  0  1  0  0  0  0  0  0  0  0  0
    5.0460   -8.4923    0.8225 C   0  0  0  0  0  0  0  0  0  0  0  0
    5.2439   -7.3378    3.1101 C   0  0  0  0  0  0  0  0  0  0  0  0
    4.4800   -6.0436    3.4442 C   0  0  1  0  0  0  0  0  0  0  0  0
    3.7055   -5.8453    2.0923 C   0  0  2  0  0  0  0  0  0  0  0  0
    2.5611   -4.8256    1.9860 C   0  0  1  0  0  0  0  0  0  0  0  0
    1.2808   -5.5000    1.5202 O   0  0  0  0  0  0  0  0  0  0  0  0
    2.7858   -3.7319    0.9034 C   0  0  2  0  0  0  0  0  0  0  0  0
    3.5061   -4.2066   -0.2318 O   0  0  0  0  0  0  0  0  0  0  0  0
    1.6859   -9.8238    4.8040 C   0  0  0  0  0  0  0  0  0  0  0  0
    1.0144  -11.1656    4.5745 C   0  0  0  0  0  0  0  0  0  0  0  0
    2.1662  -10.7709    3.7109 C   0  0  0  0  0  0  0  0  0  0  0  0
    6.5042   -3.3972   -1.5097 H   0  0  0  0  0  0  0  0  0  0  0  0
    5.2939   -4.4875   -2.1849 H   0  0  0  0  0  0  0  0  0  0  0  0
    6.0366   -4.8582   -0.6352 H   0  0  0  0  0  0  0  0  0  0  0  0
    4.1472   -2.4963   -1.1640 H   0  0  0  0  0  0  0  0  0  0  0  0
    5.6086   -3.4337    1.3365 H   0  0  0  0  0  0  0  0  0  0  0  0
    5.4677   -1.7734    0.7470 H   0  0  0  0  0  0  0  0  0  0  0  0
    2.8694   -0.9006    0.4492 H   0  0  0  0  0  0  0  0  0  0  0  0
    3.6282   -0.4929    1.9815 H   0  0  0  0  0  0  0  0  0  0  0  0
    2.0187   -1.1993    1.9552 H   0  0  0  0  0  0  0  0  0  0  0  0
    1.8350   -3.2445    3.3325 H   0  0  0  0  0  0  0  0  0  0  0  0
    3.5726   -3.7154    5.2269 H   0  0  0  0  0  0  0  0  0  0  0  0
    2.0830   -4.5190    5.3042 H   0  0  0  0  0  0  0  0  0  0  0  0
    5.5452   -6.4659    6.0281 H   0  0  0  0  0  0  0  0  0  0  0  0
    4.5701   -5.2338    6.8310 H   0  0  0  0  0  0  0  0  0  0  0  0
    5.5906   -4.7899    5.4900 H   0  0  0  0  0  0  0  0  0  0  0  0
    2.9830   -6.6727    6.7866 H   0  0  0  0  0  0  0  0  0  0  0  0
    4.1404   -8.7496    4.9818 H   0  0  0  0  0  0  0  0  0  0  0  0
    4.3432   -8.4908    6.6836 H   0  0  0  0  0  0  0  0  0  0  0  0
    3.1418  -10.5960    6.2117 H   0  0  0  0  0  0  0  0  0  0  0  0
    0.8994  -10.2144    7.3015 H   0  0  0  0  0  0  0  0  0  0  0  0
    3.0665   -8.6641    8.8189 H   0  0  0  0  0  0  0  0  0  0  0  0
    1.6072   -9.3958    9.4719 H   0  0  0  0  0  0  0  0  0  0  0  0
    2.4541  -11.4007    8.5165 H   0  0  0  0  0  0  0  0  0  0  0  0
    0.7599   -6.5350    5.7702 H   0  0  0  0  0  0  0  0  0  0  0  0
   -0.1905   -8.7952    4.7770 H   0  0  0  0  0  0  0  0  0  0  0  0
    0.9237   -8.8323    2.1924 H   0  0  0  0  0  0  0  0  0  0  0  0
   -0.5959   -6.5465    1.9862 H   0  0  0  0  0  0  0  0  0  0  0  0
    0.8237   -5.1160    3.6039 H   0  0  0  0  0  0  0  0  0  0  0  0
   -0.0850   -6.4133    4.0245 H   0  0  0  0  0  0  0  0  0  0  0  0
    2.6684   -7.7732    3.6982 H   0  0  0  0  0  0  0  0  0  0  0  0
    2.6975   -7.3417    0.8887 H   0  0  0  0  0  0  0  0  0  0  0  0
    4.0086   -9.0654    2.5894 H   0  0  0  0  0  0  0  0  0  0  0  0
    5.3657   -7.5874    0.3113 H   0  0  0  0  0  0  0  0  0  0  0  0
    4.3822   -9.0438    0.1552 H   0  0  0  0  0  0  0  0  0  0  0  0
    5.9210   -9.1142    1.0049 H   0  0  0  0  0  0  0  0  0  0  0  0
    5.6269   -7.8847    3.9623 H   0  0  0  0  0  0  0  0  0  0  0  0
    6.1492   -7.0426    2.5698 H   0  0  0  0  0  0  0  0  0  0  0  0
    5.2271   -5.2506    3.4209 H   0  0  0  0  0  0  0  0  0  0  0  0
    4.4421   -5.6799    1.3067 H   0  0  0  0  0  0  0  0  0  0  0  0
    1.8387   -3.3075    0.5758 H   0  0  0  0  0  0  0  0  0  0  0  0
    1.2098  -11.9577    5.2859 H   0  0  0  0  0  0  0  0  0  0  0  0
    0.0135  -11.1629    4.1587 H   0  0  0  0  0  0  0  0  0  0  0  0
    1.9535  -10.5905    2.6619 H   0  0  0  0  0  0  0  0  0  0  0  0
    3.1067  -11.2784    3.8908 H   0  0  0  0  0  0  0  0  0  0  0  0
  1  2  1  0
  1 38  1  0
  1 39  1  0
  1 40  1  0
  2 34  1  0
  2  3  1  0
  2 41  1  6
  3  4  1  0
  3 42  1  0
  3 43  1  0
  4 33  1  0
  4  5  1  1
  4  6  1  0
  5 44  1  0
  5 45  1  0
  5 46  1  0
  6  7  1  0
  7 31  1  0
  7  8  1  0
  7 47  1  1
  8  9  1  0
  8 48  1  0
  8 49  1  0
  9 29  1  0
  9 10  1  1
  9 11  1  0
 10 50  1  0
 10 51  1  0
 10 52  1  0
 11 19  1  0
 11 12  1  0
 11 53  1  1
 12 13  1  0
 12 54  1  0
 12 55  1  0
 13 35  1  0
 13 14  1  0
 13 56  1  1
 14 15  1  0
 14 17  1  0
 14 57  1  1
 15 16  1  0
 15 58  1  0
 15 59  1  0
 16 60  1  0
 17 18  2  0
 17 19  1  0
 19 20  1  0
 19 61  1  6
 20 21  1  0
 20 35  1  0
 20 62  1  1
 21 24  1  0
 21 22  1  0
 21 63  1  6
 22 32  1  0
 22 23  1  0
 22 64  1  1
 23 24  1  0
 23 65  1  0
 23 66  1  0
 24 25  1  0
 24 67  1  1
 25 30  1  0
 25 26  1  0
 25 68  1  6
 26 27  1  0
 26 28  1  0
 26 69  1  1
 27 70  1  0
 27 71  1  0
 27 72  1  0
 28 29  1  0
 28 73  1  0
 28 74  1  0
 29 30  1  0
 29 75  1  1
 30 31  1  0
 30 76  1  6
 31 32  1  6
 31 33  1  0
 33 34  1  0
 33 77  1  6
 35 37  1  0
 35 36  1  0
 36 37  1  0
 36 78  1  0
 36 79  1  0
 37 80  1  0
 37 81  1  0
M  END
>  <i_m_ct_stereo_status>  (65) 
1

>  <s_m_source_file>  (65) 
/var/tmp/pbs.5076255.sched01/tmpfev35gxg/05fxellcm.sdf

>  <i_m_source_file_index>  (65) 
27

>  <i_lp_mmshare_version>  (65) 
48012

>  <i_f3d_flags>  (65) 
0

>  <s_epik_input>  (65) 
W0NIM11bQ0BIXShbQ0gyXTEpT1tDQEBIXTJbQ0BAXTEoW0NIM10pT1tDQEBIXShbQ0BAXTIzNClbQ0gyXVtDQEBdNShbQ0gzXSlbQ0BIXTZbQ0BIXTdbQ0BIXShDOChbQ0gyXVtDSDJdOClbQ0BASF0oW0NIMl02KVtDQEhdKEM3PU8pW0NIMl1bT0hdKVtDQEhdOVtDQEBIXShPNClbQ0gyXVtDQEBIXTlbQ0BIXTFbQ0BASF0zW0NAQEhdNVtDSDJdW0NAQEhdMVtDSDNd

>  <s_epik_cmdline>  (65) 
J2VwaWtfcHl0aG9uJywgJy1waHQnLCAnMi4wJywgJy1waCcsICc3LjAnLCAnLXRuJywgJzgnLCAnLW1hJywgJzIwMCcsICctaW1hZScsICc8aW5maWxlLm1hZT4nLCAnLW9tYWUnLCAnPG91dGZpbGUubWFlPic=

>  <r_lp_tautomer_probability>  (65) 
1

>  <r_epik_Ionization_Penalty>  (65) 
8.75453e-08

>  <r_epik_Ionization_Penalty_Charging>  (65) 
0

>  <r_epik_Ionization_Penalty_Neutral>  (65) 
8.75453e-08

>  <r_epik_State_Penalty>  (65) 
-0

>  <r_epik_Charging_Adjusted_Penalty>  (65) 
0

>  <i_epik_Tot_Q>  (65) 
0

>  <i_epik_Tot_abs_Q>  (65) 
0

>  <s_lp_Force_Field>  (65) 
OPLS3e

>  <r_lp_Energy>  (65) 
308.072

>  <b_lp_Chiralities_Consistent>  (65) 
1

>  <s_lp_Variant>  (65) 
16:0-1

>  <s_i_glide_gridfile>  (65) 
pfpi4k_grid

>  <i_i_glide_lignum>  (65) 
27

>  <i_i_glide_rotatable_bonds>  (65) 
2

>  <r_i_docking_score>  (65) 
-2.39815

>  <r_i_glide_ligand_efficiency>  (65) 
-0.0648149

>  <r_i_glide_ligand_efficiency_sa>  (65) 
-0.215977

>  <r_i_glide_ligand_efficiency_ln>  (65) 
-0.520102

>  <r_i_glide_gscore>  (65) 
-2.39815

>  <r_i_glide_lipo>  (65) 
-0.151386

>  <r_i_glide_hbond>  (65) 
-0.269758

>  <r_i_glide_metal>  (65) 
-0

>  <r_i_glide_rewards>  (65) 
0

>  <r_i_glide_evdw>  (65) 
-18.4143

>  <r_i_glide_ecoul>  (65) 
-7.41168

>  <r_i_glide_erotb>  (65) 
0.0791259

>  <r_i_glide_esite>  (65) 
-0.0236647

>  <r_i_glide_emodel>  (65) 
-28.4063

>  <r_i_glide_energy>  (65) 
-25.826

>  <r_i_glide_einternal>  (65) 
2.80275

>  <r_i_glide_intrahb_reward>  (65) 
-0

>  <i_i_glide_confnum>  (65) 
4

>  <i_i_glide_posenum>  (65) 
2

>  <r_i_glide_eff_state_penalty>  (65) 
0

>  <ligand_id>  (65) 
16

>  <original_smiles>  (65) 
CC1CC2(C)OC3CC4(C)C5CC6C(CO)C(=O)C5C(C5C7CC5C5C(C)CC4C5C3(O7)C2O1)C61CC1

>  <smiles>  (65) 
[H]OC([H])([H])C1([H])C(=O)C2([H])C3([H])C([H])([H])C1([H])C1(C([H])([H])C1([H])[H])C2([H])C1([H])C2([H])OC45C([H])(OC6(C([H])([H])[H])C([H])([H])C([H])(C([H])([H])[H])OC64[H])C([H])([H])C3(C([H])([H])[H])C3([H])C([H])([H])C([H])(C([H])([H])[H])C([H])(C1([H])C2([H])[H])C35[H]

$$$$
16:0:1
     RDKit          3D

 81 90  0  0  1  0  0  0  0  0999 V2000
    2.5925   -1.5966    1.8972 C   0  0  0  0  0  0  0  0  0  0  0  0
    3.1130   -1.8298    3.3190 C   0  0  2  0  0  0  0  0  0  0  0  0
    4.5622   -2.3099    3.3897 C   0  0  0  0  0  0  0  0  0  0  0  0
    4.6162   -3.0304    4.7292 C   0  0  2  0  0  0  0  0  0  0  0  0
    5.1619   -2.1519    5.8670 C   0  0  0  0  0  0  0  0  0  0  0  0
    5.4006   -4.2067    4.6154 O   0  0  0  0  0  0  0  0  0  0  0  0
    4.7095   -5.2734    5.2599 C   0  0  2  0  0  0  0  0  0  0  0  0
    5.4827   -6.6380    4.9534 C   0  0  0  0  0  0  0  0  0  0  0  0
    5.0519   -7.5505    3.7363 C   0  0  1  0  0  0  0  0  0  0  0  0
    6.3661   -7.7813    2.9290 C   0  0  0  0  0  0  0  0  0  0  0  0
    4.6367   -9.1607    4.0953 C   0  0  2  0  0  0  0  0  0  0  0  0
    4.1221  -10.0605    2.9090 C   0  0  0  0  0  0  0  0  0  0  0  0
    3.1572  -11.2090    3.3574 C   0  0  1  0  0  0  0  0  0  0  0  0
    3.7879  -12.1141    4.4461 C   0  0  1  0  0  0  0  0  0  0  0  0
    4.9933  -12.9556    3.9937 C   0  0  0  0  0  0  0  0  0  0  0  0
    4.6793  -13.7558    2.8699 O   0  0  0  0  0  0  0  0  0  0  0  0
    4.1492  -11.1669    5.5953 C   0  0  0  0  0  0  0  0  0  0  0  0
    4.7511  -11.5274    6.6074 O   0  0  0  0  0  0  0  0  0  0  0  0
    3.7397   -9.7076    5.3391 C   0  0  2  0  0  0  0  0  0  0  0  0
    2.0952   -9.7229    5.1763 C   0  0  1  0  0  0  0  0  0  0  0  0
    1.2988   -8.2573    5.1102 C   0  0  1  0  0  0  0  0  0  0  0  0
    1.4600   -6.8233    6.0032 C   0  0  1  0  0  0  0  0  0  0  0  0
    2.7436   -7.3667    6.0193 C   0  0  0  0  0  0  0  0  0  0  0  0
    2.2629   -7.4997    4.4028 C   0  0  2  0  0  0  0  0  0  0  0  0
    1.9166   -6.4740    3.3329 C   0  0  2  0  0  0  0  0  0  0  0  0
    2.0024   -7.0280    1.8795 C   0  0  1  0  0  0  0  0  0  0  0  0
    1.1561   -6.2122    0.8887 C   0  0  0  0  0  0  0  0  0  0  0  0
    3.5162   -6.9881    1.5278 C   0  0  0  0  0  0  0  0  0  0  0  0
    4.2268   -6.5020    2.8023 C   0  0  1  0  0  0  0  0  0  0  0  0
    3.0949   -5.5774    3.3955 C   0  0  2  0  0  0  0  0  0  0  0  0
    3.1932   -5.0461    4.8372 C   0  0  1  0  0  0  0  0  0  0  0  0
    1.9695   -5.4399    5.6615 O   0  0  0  0  0  0  0  0  0  0  0  0
    3.1707   -3.4973    4.9333 C   0  0  2  0  0  0  0  0  0  0  0  0
    2.3723   -2.8741    3.9272 O   0  0  0  0  0  0  0  0  0  0  0  0
    1.8188  -10.6098    3.9169 C   0  0  0  0  0  0  0  0  0  0  0  0
    0.6110  -11.5229    3.9260 C   0  0  0  0  0  0  0  0  0  0  0  0
    0.6675  -10.3846    2.9479 C   0  0  0  0  0  0  0  0  0  0  0  0
    3.1386   -0.8020    1.3882 H   0  0  0  0  0  0  0  0  0  0  0  0
    1.5397   -1.3143    1.9083 H   0  0  0  0  0  0  0  0  0  0  0  0
    2.6789   -2.5006    1.2948 H   0  0  0  0  0  0  0  0  0  0  0  0
    3.0058   -0.9285    3.9265 H   0  0  0  0  0  0  0  0  0  0  0  0
    4.7587   -3.0161    2.5864 H   0  0  0  0  0  0  0  0  0  0  0  0
    5.2848   -1.4970    3.3220 H   0  0  0  0  0  0  0  0  0  0  0  0
    4.5920   -1.2284    5.9755 H   0  0  0  0  0  0  0  0  0  0  0  0
    6.1999   -1.8747    5.6833 H   0  0  0  0  0  0  0  0  0  0  0  0
    5.1335   -2.6703    6.8248 H   0  0  0  0  0  0  0  0  0  0  0  0
    4.8046   -5.0573    6.3315 H   0  0  0  0  0  0  0  0  0  0  0  0
    6.5283   -6.3558    4.8483 H   0  0  0  0  0  0  0  0  0  0  0  0
    5.4935   -7.2598    5.8500 H   0  0  0  0  0  0  0  0  0  0  0  0
    6.1892   -8.3790    2.0336 H   0  0  0  0  0  0  0  0  0  0  0  0
    7.1134   -8.3036    3.5345 H   0  0  0  0  0  0  0  0  0  0  0  0
    6.8390   -6.8475    2.6174 H   0  0  0  0  0  0  0  0  0  0  0  0
    5.6055   -9.5833    4.3494 H   0  0  0  0  0  0  0  0  0  0  0  0
    3.5534   -9.4940    2.1863 H   0  0  0  0  0  0  0  0  0  0  0  0
    4.9681  -10.4738    2.3601 H   0  0  0  0  0  0  0  0  0  0  0  0
    2.9075  -11.8196    2.4810 H   0  0  0  0  0  0  0  0  0  0  0  0
    3.0314  -12.8074    4.8140 H   0  0  0  0  0  0  0  0  0  0  0  0
    5.8627  -12.3398    3.7632 H   0  0  0  0  0  0  0  0  0  0  0  0
    5.2896  -13.6328    4.8019 H   0  0  0  0  0  0  0  0  0  0  0  0
    4.4048  -13.1999    2.1600 H   0  0  0  0  0  0  0  0  0  0  0  0
    4.1093   -9.2379    6.2588 H   0  0  0  0  0  0  0  0  0  0  0  0
    1.7048  -10.2890    6.0306 H   0  0  0  0  0  0  0  0  0  0  0  0
    0.2987   -8.2560    4.6540 H   0  0  0  0  0  0  0  0  0  0  0  0
    0.9586   -6.8919    6.9731 H   0  0  0  0  0  0  0  0  0  0  0  0
    3.4783   -6.7404    6.4965 H   0  0  0  0  0  0  0  0  0  0  0  0
    2.6370   -8.1122    6.8272 H   0  0  0  0  0  0  0  0  0  0  0  0
    2.6613   -8.2308    3.7408 H   0  0  0  0  0  0  0  0  0  0  0  0
    0.9668   -5.9513    3.5022 H   0  0  0  0  0  0  0  0  0  0  0  0
    1.6408   -8.0553    1.8439 H   0  0  0  0  0  0  0  0  0  0  0  0
    1.4816   -5.1701    0.8769 H   0  0  0  0  0  0  0  0  0  0  0  0
    0.1013   -6.2568    1.1595 H   0  0  0  0  0  0  0  0  0  0  0  0
    1.2513   -6.5922   -0.1241 H   0  0  0  0  0  0  0  0  0  0  0  0
    3.9334   -7.8781    1.0726 H   0  0  0  0  0  0  0  0  0  0  0  0
    3.6686   -6.2217    0.7687 H   0  0  0  0  0  0  0  0  0  0  0  0
    4.9789   -5.7919    2.4585 H   0  0  0  0  0  0  0  0  0  0  0  0
    2.9405   -4.7578    2.6899 H   0  0  0  0  0  0  0  0  0  0  0  0
    2.8264   -3.1903    5.9210 H   0  0  0  0  0  0  0  0  0  0  0  0
    0.7319  -12.5289    3.5251 H   0  0  0  0  0  0  0  0  0  0  0  0
   -0.0438  -11.4577    4.7883 H   0  0  0  0  0  0  0  0  0  0  0  0
   -0.0522   -9.5848    3.0748 H   0  0  0  0  0  0  0  0  0  0  0  0
    0.8625  -10.6104    1.9063 H   0  0  0  0  0  0  0  0  0  0  0  0
  1  2  1  0
  1 38  1  0
  1 39  1  0
  1 40  1  0
  2 34  1  0
  2  3  1  0
  2 41  1  1
  3  4  1  0
  3 42  1  0
  3 43  1  0
  4 33  1  0
  4  5  1  1
  4  6  1  0
  5 44  1  0
  5 45  1  0
  5 46  1  0
  6  7  1  0
  7 31  1  0
  7  8  1  0
  7 47  1  1
  8  9  1  0
  8 48  1  0
  8 49  1  0
  9 29  1  0
  9 10  1  6
  9 11  1  0
 10 50  1  0
 10 51  1  0
 10 52  1  0
 11 19  1  0
 11 12  1  0
 11 53  1  1
 12 13  1  0
 12 54  1  0
 12 55  1  0
 13 35  1  0
 13 14  1  0
 13 56  1  6
 14 15  1  0
 14 17  1  0
 14 57  1  1
 15 16  1  0
 15 58  1  0
 15 59  1  0
 16 60  1  0
 17 18  2  0
 17 19  1  0
 19 20  1  0
 19 61  1  1
 20 21  1  0
 20 35  1  0
 20 62  1  1
 21 24  1  0
 21 22  1  0
 21 63  1  6
 22 32  1  0
 22 23  1  0
 22 64  1  1
 23 24  1  0
 23 65  1  0
 23 66  1  0
 24 25  1  0
 24 67  1  6
 25 30  1  0
 25 26  1  0
 25 68  1  1
 26 27  1  0
 26 28  1  0
 26 69  1  1
 27 70  1  0
 27 71  1  0
 27 72  1  0
 28 29  1  0
 28 73  1  0
 28 74  1  0
 29 30  1  0
 29 75  1  6
 30 31  1  0
 30 76  1  6
 31 32  1  1
 31 33  1  0
 33 34  1  0
 33 77  1  1
 35 37  1  0
 35 36  1  0
 36 37  1  0
 36 78  1  0
 36 79  1  0
 37 80  1  0
 37 81  1  0
M  END
>  <i_m_ct_stereo_status>  (66) 
1

>  <s_m_source_file>  (66) 
/var/tmp/pbs.5076255.sched01/tmpfev35gxg/05fxellcm.sdf

>  <i_m_source_file_index>  (66) 
27

>  <i_lp_mmshare_version>  (66) 
48012

>  <i_f3d_flags>  (66) 
0

>  <s_epik_input>  (66) 
W0NIM11bQ0BIXShbQ0gyXTEpT1tDQEBIXTJbQ0BAXTEoW0NIM10pT1tDQEBIXShbQ0BAXTIzNClbQ0gyXVtDQEBdNShbQ0gzXSlbQ0BIXTZbQ0BIXTdbQ0BIXShDOChbQ0gyXVtDSDJdOClbQ0BASF0oW0NIMl02KVtDQEhdKEM3PU8pW0NIMl1bT0hdKVtDQEhdOVtDQEBIXShPNClbQ0gyXVtDQEBIXTlbQ0BIXTFbQ0BASF0zW0NAQEhdNVtDSDJdW0NAQEhdMVtDSDNd

>  <s_epik_cmdline>  (66) 
J2VwaWtfcHl0aG9uJywgJy1waHQnLCAnMi4wJywgJy1waCcsICc3LjAnLCAnLXRuJywgJzgnLCAnLW1hJywgJzIwMCcsICctaW1hZScsICc8aW5maWxlLm1hZT4nLCAnLW9tYWUnLCAnPG91dGZpbGUubWFlPic=

>  <r_lp_tautomer_probability>  (66) 
1

>  <r_epik_Ionization_Penalty>  (66) 
8.75453e-08

>  <r_epik_Ionization_Penalty_Charging>  (66) 
0

>  <r_epik_Ionization_Penalty_Neutral>  (66) 
8.75453e-08

>  <r_epik_State_Penalty>  (66) 
-0

>  <r_epik_Charging_Adjusted_Penalty>  (66) 
0

>  <i_epik_Tot_Q>  (66) 
0

>  <i_epik_Tot_abs_Q>  (66) 
0

>  <s_lp_Force_Field>  (66) 
OPLS3e

>  <r_lp_Energy>  (66) 
308.072

>  <b_lp_Chiralities_Consistent>  (66) 
1

>  <s_lp_Variant>  (66) 
16:0-1

>  <s_i_glide_gridfile>  (66) 
pfpi4k_grid

>  <i_i_glide_lignum>  (66) 
27

>  <i_i_glide_rotatable_bonds>  (66) 
2

>  <r_i_docking_score>  (66) 
-1.64556

>  <r_i_glide_ligand_efficiency>  (66) 
-0.0444745

>  <r_i_glide_ligand_efficiency_sa>  (66) 
-0.148199

>  <r_i_glide_ligand_efficiency_ln>  (66) 
-0.356882

>  <r_i_glide_gscore>  (66) 
-1.64556

>  <r_i_glide_lipo>  (66) 
-0.260161

>  <r_i_glide_hbond>  (66) 
-0.117329

>  <r_i_glide_metal>  (66) 
-0

>  <r_i_glide_rewards>  (66) 
0

>  <r_i_glide_evdw>  (66) 
-20.9713

>  <r_i_glide_ecoul>  (66) 
-1.75928

>  <r_i_glide_erotb>  (66) 
0.0791259

>  <r_i_glide_esite>  (66) 
-0.0347334

>  <r_i_glide_emodel>  (66) 
-23.9751

>  <r_i_glide_energy>  (66) 
-22.7306

>  <r_i_glide_einternal>  (66) 
2.69043

>  <r_i_glide_intrahb_reward>  (66) 
-0

>  <i_i_glide_confnum>  (66) 
2

>  <i_i_glide_posenum>  (66) 
7

>  <r_i_glide_eff_state_penalty>  (66) 
0

>  <ligand_id>  (66) 
16

>  <original_smiles>  (66) 
CC1CC2(C)OC3CC4(C)C5CC6C(CO)C(=O)C5C(C5C7CC5C5C(C)CC4C5C3(O7)C2O1)C61CC1

>  <smiles>  (66) 
[H]OC([H])([H])C1([H])C(=O)C2([H])C3([H])C([H])([H])C1([H])C1(C([H])([H])C1([H])[H])C2([H])C1([H])C2([H])OC45C([H])(OC6(C([H])([H])[H])C([H])([H])C([H])(C([H])([H])[H])OC64[H])C([H])([H])C3(C([H])([H])[H])C3([H])C([H])([H])C([H])(C([H])([H])[H])C([H])(C1([H])C2([H])[H])C35[H]

$$$$
16:0:2
     RDKit          3D

 81 90  0  0  1  0  0  0  0  0999 V2000
    5.4106   -4.2279   -1.4219 C   0  0  0  0  0  0  0  0  0  0  0  0
    4.4138   -3.4271   -0.6000 C   0  0  2  0  0  0  0  0  0  0  0  0
    4.9785   -2.9034    0.7216 C   0  0  0  0  0  0  0  0  0  0  0  0
    3.7252   -2.7439    1.5792 C   0  0  2  0  0  0  0  0  0  0  0  0
    3.1689   -1.3096    1.5660 C   0  0  0  0  0  0  0  0  0  0  0  0
    3.9858   -3.1592    2.9102 O   0  0  0  0  0  0  0  0  0  0  0  0
    2.9128   -3.9838    3.3529 C   0  0  2  0  0  0  0  0  0  0  0  0
    3.3067   -4.5904    4.7705 C   0  0  0  0  0  0  0  0  0  0  0  0
    3.9733   -6.0135    4.8552 C   0  0  1  0  0  0  0  0  0  0  0  0
    5.2666   -5.7992    5.7144 C   0  0  0  0  0  0  0  0  0  0  0  0
    3.1965   -7.1840    5.8139 C   0  0  2  0  0  0  0  0  0  0  0  0
    3.8082   -8.6347    5.8201 C   0  0  0  0  0  0  0  0  0  0  0  0
    2.7458   -9.7484    6.1420 C   0  0  1  0  0  0  0  0  0  0  0  0
    1.9864   -9.4434    7.4548 C   0  0  1  0  0  0  0  0  0  0  0  0
    2.7814   -9.5994    8.7623 C   0  0  0  0  0  0  0  0  0  0  0  0
    3.7739   -8.6057    8.9364 O   0  0  0  0  0  0  0  0  0  0  0  0
    1.3043   -8.1141    7.2571 C   0  0  0  0  0  0  0  0  0  0  0  0
    0.5735   -7.5963    8.1012 O   0  0  0  0  0  0  0  0  0  0  0  0
    1.6101   -7.4826    5.8938 C   0  0  2  0  0  0  0  0  0  0  0  0
    0.9426   -8.5216    4.7914 C   0  0  1  0  0  0  0  0  0  0  0  0
    0.8907   -8.0166    3.1982 C   0  0  1  0  0  0  0  0  0  0  0  0
    0.4547   -6.5784    2.4722 C   0  0  1  0  0  0  0  0  0  0  0  0
    0.9540   -6.1714    3.7014 C   0  0  0  0  0  0  0  0  0  0  0  0
    2.0845   -7.2826    3.1277 C   0  0  2  0  0  0  0  0  0  0  0  0
    3.0255   -7.2664    1.9198 C   0  0  2  0  0  0  0  0  0  0  0  0
    4.2028   -8.2695    2.0566 C   0  0  1  0  0  0  0  0  0  0  0  0
    4.7746   -8.6574    0.6749 C   0  0  0  0  0  0  0  0  0  0  0  0
    5.2448   -7.5370    2.9482 C   0  0  0  0  0  0  0  0  0  0  0  0
    4.5746   -6.2089    3.3558 C   0  0  1  0  0  0  0  0  0  0  0  0
    3.6967   -5.9629    2.0818 C   0  0  2  0  0  0  0  0  0  0  0  0
    2.5950   -4.8997    2.0910 C   0  0  1  0  0  0  0  0  0  0  0  0
    1.2490   -5.5146    1.7296 O   0  0  0  0  0  0  0  0  0  0  0  0
    2.7693   -3.7959    1.0050 C   0  0  2  0  0  0  0  0  0  0  0  0
    3.3515   -4.2836   -0.2028 O   0  0  0  0  0  0  0  0  0  0  0  0
    1.7342   -9.8464    4.9479 C   0  0  0  0  0  0  0  0  0  0  0  0
    0.9838  -11.1619    4.7615 C   0  0  0  0  0  0  0  0  0  0  0  0
    2.0701  -10.8224    3.8014 C   0  0  0  0  0  0  0  0  0  0  0  0
    6.2658   -3.6288   -1.7278 H   0  0  0  0  0  0  0  0  0  0  0  0
    4.9533   -4.6460   -2.3159 H   0  0  0  0  0  0  0  0  0  0  0  0
    5.7633   -5.0634   -0.8179 H   0  0  0  0  0  0  0  0  0  0  0  0
    3.9986   -2.5968   -1.1740 H   0  0  0  0  0  0  0  0  0  0  0  0
    5.6370   -3.6467    1.1722 H   0  0  0  0  0  0  0  0  0  0  0  0
    5.5261   -1.9674    0.6108 H   0  0  0  0  0  0  0  0  0  0  0  0
    2.9622   -0.9684    0.5537 H   0  0  0  0  0  0  0  0  0  0  0  0
    3.8800   -0.6131    2.0123 H   0  0  0  0  0  0  0  0  0  0  0  0
    2.2415   -1.2366    2.1336 H   0  0  0  0  0  0  0  0  0  0  0  0
    2.0855   -3.2857    3.5028 H   0  0  0  0  0  0  0  0  0  0  0  0
    3.9573   -3.8607    5.2412 H   0  0  0  0  0  0  0  0  0  0  0  0
    2.4429   -4.6020    5.4280 H   0  0  0  0  0  0  0  0  0  0  0  0
    5.8545   -6.7184    5.8314 H   0  0  0  0  0  0  0  0  0  0  0  0
    5.0195   -5.4474    6.7270 H   0  0  0  0  0  0  0  0  0  0  0  0
    5.9358   -5.0377    5.3030 H   0  0  0  0  0  0  0  0  0  0  0  0
    3.3695   -6.8038    6.8232 H   0  0  0  0  0  0  0  0  0  0  0  0
    4.2358   -8.9213    4.8652 H   0  0  0  0  0  0  0  0  0  0  0  0
    4.6375   -8.6863    6.5219 H   0  0  0  0  0  0  0  0  0  0  0  0
    3.2622  -10.7077    6.2330 H   0  0  0  0  0  0  0  0  0  0  0  0
    1.1702  -10.1660    7.5117 H   0  0  0  0  0  0  0  0  0  0  0  0
    2.0963   -9.5522    9.6127 H   0  0  0  0  0  0  0  0  0  0  0  0
    3.2385  -10.5884    8.8049 H   0  0  0  0  0  0  0  0  0  0  0  0
    4.2744   -8.7790    9.7215 H   0  0  0  0  0  0  0  0  0  0  0  0
    1.0769   -6.5488    6.0052 H   0  0  0  0  0  0  0  0  0  0  0  0
   -0.0777   -8.7457    5.1048 H   0  0  0  0  0  0  0  0  0  0  0  0
    0.7823   -8.7918    2.4238 H   0  0  0  0  0  0  0  0  0  0  0  0
   -0.6260   -6.4682    2.3879 H   0  0  0  0  0  0  0  0  0  0  0  0
    0.9968   -5.1115    3.8415 H   0  0  0  0  0  0  0  0  0  0  0  0
    0.0724   -6.3680    4.3482 H   0  0  0  0  0  0  0  0  0  0  0  0
    2.6944   -7.8600    3.7567 H   0  0  0  0  0  0  0  0  0  0  0  0
    2.5137   -7.3982    0.9673 H   0  0  0  0  0  0  0  0  0  0  0  0
    3.8862   -9.1961    2.5296 H   0  0  0  0  0  0  0  0  0  0  0  0
    5.0455   -7.7709    0.1080 H   0  0  0  0  0  0  0  0  0  0  0  0
    4.0298   -9.1974    0.0952 H   0  0  0  0  0  0  0  0  0  0  0  0
    5.6427   -9.3076    0.7767 H   0  0  0  0  0  0  0  0  0  0  0  0
    5.6831   -8.1110    3.7584 H   0  0  0  0  0  0  0  0  0  0  0  0
    6.1109   -7.2817    2.3259 H   0  0  0  0  0  0  0  0  0  0  0  0
    5.3639   -5.4611    3.2750 H   0  0  0  0  0  0  0  0  0  0  0  0
    4.3647   -5.8258    1.2325 H   0  0  0  0  0  0  0  0  0  0  0  0
    1.8242   -3.3152    0.7694 H   0  0  0  0  0  0  0  0  0  0  0  0
    1.2067  -11.9387    5.4707 H   0  0  0  0  0  0  0  0  0  0  0  0
   -0.0401  -11.1139    4.4396 H   0  0  0  0  0  0  0  0  0  0  0  0
    1.7788  -10.6445    2.7835 H   0  0  0  0  0  0  0  0  0  0  0  0
    2.9939  -11.3777    3.9016 H   0  0  0  0  0  0  0  0  0  0  0  0
  1  2  1  0
  1 38  1  0
  1 39  1  0
  1 40  1  0
  2 34  1  0
  2  3  1  0
  2 41  1  6
  3  4  1  0
  3 42  1  0
  3 43  1  0
  4 33  1  0
  4  5  1  1
  4  6  1  0
  5 44  1  0
  5 45  1  0
  5 46  1  0
  6  7  1  0
  7 31  1  0
  7  8  1  0
  7 47  1  1
  8  9  1  0
  8 48  1  0
  8 49  1  0
  9 29  1  0
  9 10  1  1
  9 11  1  0
 10 50  1  0
 10 51  1  0
 10 52  1  0
 11 19  1  0
 11 12  1  0
 11 53  1  1
 12 13  1  0
 12 54  1  0
 12 55  1  0
 13 35  1  0
 13 14  1  0
 13 56  1  1
 14 15  1  0
 14 17  1  0
 14 57  1  1
 15 16  1  0
 15 58  1  0
 15 59  1  0
 16 60  1  0
 17 18  2  0
 17 19  1  0
 19 20  1  0
 19 61  1  1
 20 21  1  0
 20 35  1  0
 20 62  1  1
 21 24  1  0
 21 22  1  0
 21 63  1  6
 22 32  1  0
 22 23  1  0
 22 64  1  1
 23 24  1  0
 23 65  1  0
 23 66  1  0
 24 25  1  0
 24 67  1  1
 25 30  1  0
 25 26  1  0
 25 68  1  6
 26 27  1  0
 26 28  1  0
 26 69  1  1
 27 70  1  0
 27 71  1  0
 27 72  1  0
 28 29  1  0
 28 73  1  0
 28 74  1  0
 29 30  1  0
 29 75  1  6
 30 31  1  0
 30 76  1  6
 31 32  1  1
 31 33  1  0
 33 34  1  0
 33 77  1  6
 35 37  1  0
 35 36  1  0
 36 37  1  0
 36 78  1  0
 36 79  1  0
 37 80  1  0
 37 81  1  0
M  END
>  <i_m_ct_stereo_status>  (67) 
1

>  <s_m_source_file>  (67) 
/var/tmp/pbs.5076255.sched01/tmpfev35gxg/05fxellcm.sdf

>  <i_m_source_file_index>  (67) 
27

>  <i_lp_mmshare_version>  (67) 
48012

>  <i_f3d_flags>  (67) 
0

>  <s_epik_input>  (67) 
W0NIM11bQ0BIXShbQ0gyXTEpT1tDQEBIXTJbQ0BAXTEoW0NIM10pT1tDQEBIXShbQ0BAXTIzNClbQ0gyXVtDQEBdNShbQ0gzXSlbQ0BIXTZbQ0BIXTdbQ0BIXShDOChbQ0gyXVtDSDJdOClbQ0BASF0oW0NIMl02KVtDQEhdKEM3PU8pW0NIMl1bT0hdKVtDQEhdOVtDQEBIXShPNClbQ0gyXVtDQEBIXTlbQ0BIXTFbQ0BASF0zW0NAQEhdNVtDSDJdW0NAQEhdMVtDSDNd

>  <s_epik_cmdline>  (67) 
J2VwaWtfcHl0aG9uJywgJy1waHQnLCAnMi4wJywgJy1waCcsICc3LjAnLCAnLXRuJywgJzgnLCAnLW1hJywgJzIwMCcsICctaW1hZScsICc8aW5maWxlLm1hZT4nLCAnLW9tYWUnLCAnPG91dGZpbGUubWFlPic=

>  <r_lp_tautomer_probability>  (67) 
1

>  <r_epik_Ionization_Penalty>  (67) 
8.75453e-08

>  <r_epik_Ionization_Penalty_Charging>  (67) 
0

>  <r_epik_Ionization_Penalty_Neutral>  (67) 
8.75453e-08

>  <r_epik_State_Penalty>  (67) 
-0

>  <r_epik_Charging_Adjusted_Penalty>  (67) 
0

>  <i_epik_Tot_Q>  (67) 
0

>  <i_epik_Tot_abs_Q>  (67) 
0

>  <s_lp_Force_Field>  (67) 
OPLS3e

>  <r_lp_Energy>  (67) 
308.072

>  <b_lp_Chiralities_Consistent>  (67) 
1

>  <s_lp_Variant>  (67) 
16:0-1

>  <s_i_glide_gridfile>  (67) 
pfpi4k_grid

>  <i_i_glide_lignum>  (67) 
27

>  <i_i_glide_rotatable_bonds>  (67) 
2

>  <r_i_docking_score>  (67) 
-1.59735

>  <r_i_glide_ligand_efficiency>  (67) 
-0.0431716

>  <r_i_glide_ligand_efficiency_sa>  (67) 
-0.143857

>  <r_i_glide_ligand_efficiency_ln>  (67) 
-0.346427

>  <r_i_glide_gscore>  (67) 
-1.59735

>  <r_i_glide_lipo>  (67) 
-0.125934

>  <r_i_glide_hbond>  (67) 
-0.101586

>  <r_i_glide_metal>  (67) 
-0

>  <r_i_glide_rewards>  (67) 
0

>  <r_i_glide_evdw>  (67) 
-19.1488

>  <r_i_glide_ecoul>  (67) 
-3.13485

>  <r_i_glide_erotb>  (67) 
0.0791259

>  <r_i_glide_esite>  (67) 
-0.021289

>  <r_i_glide_emodel>  (67) 
-23.5877

>  <r_i_glide_energy>  (67) 
-22.2836

>  <r_i_glide_einternal>  (67) 
2.3794

>  <r_i_glide_intrahb_reward>  (67) 
-0

>  <i_i_glide_confnum>  (67) 
4

>  <i_i_glide_posenum>  (67) 
1

>  <r_i_glide_eff_state_penalty>  (67) 
0

>  <ligand_id>  (67) 
16

>  <original_smiles>  (67) 
CC1CC2(C)OC3CC4(C)C5CC6C(CO)C(=O)C5C(C5C7CC5C5C(C)CC4C5C3(O7)C2O1)C61CC1

>  <smiles>  (67) 
[H]OC([H])([H])C1([H])C(=O)C2([H])C3([H])C([H])([H])C1([H])C1(C([H])([H])C1([H])[H])C2([H])C1([H])C2([H])OC45C([H])(OC6(C([H])([H])[H])C([H])([H])C([H])(C([H])([H])[H])OC64[H])C([H])([H])C3(C([H])([H])[H])C3([H])C([H])([H])C([H])(C([H])([H])[H])C([H])(C1([H])C2([H])[H])C35[H]

$$$$
17:0:0
     RDKit          3D

 72 77  0  0  1  0  0  0  0  0999 V2000
    8.2036   -7.1442    2.8861 C   0  0  0  0  0  0  0  0  0  0  0  0
    6.7836   -7.3311    2.8383 O   0  0  0  0  0  0  0  0  0  0  0  0
    5.9379   -6.1718    2.9955 C   0  0  2  0  0  0  0  0  0  0  0  0
    5.8958   -5.8977    4.4924 C   0  0  0  0  0  0  0  0  0  0  0  0
    4.5957   -6.7359    4.5087 C   0  0  2  0  0  0  0  0  0  0  0  0
    4.4768   -8.0974    5.0696 C   0  0  0  0  0  0  0  0  0  0  0  0
    5.3830   -8.7464    5.5839 O   0  0  0  0  0  0  0  0  0  0  0  0
    3.0323   -8.6714    5.0525 C   0  0  2  0  0  0  0  0  0  0  0  0
    2.6682   -9.0303    6.5215 C   0  0  0  0  0  0  0  0  0  0  0  0
    2.9592   -9.9372    4.1375 C   0  0  1  0  0  0  0  0  0  0  0  0
    1.4365  -10.1521    3.8598 C   0  0  0  0  0  0  0  0  0  0  0  0
    0.7071   -8.8481    4.2397 C   0  0  2  0  0  0  0  0  0  0  0  0
   -0.3364   -8.2746    3.2480 C   0  0  1  0  0  0  0  0  0  0  0  0
   -1.4804   -9.2213    2.8406 C   0  0  0  0  0  0  0  0  0  0  0  0
   -0.9098   -6.9654    3.8372 C   0  0  0  0  0  0  0  0  0  0  0  0
   -0.0110   -6.2787    4.8939 C   0  0  0  0  0  0  0  0  0  0  0  0
    1.5081   -6.3444    4.5878 C   0  0  2  0  0  0  0  0  0  0  0  0
    1.8854   -5.4617    3.3139 C   0  0  1  0  0  0  0  0  0  0  0  0
    1.3024   -4.0277    3.4008 C   0  0  0  0  0  0  0  0  0  0  0  0
    3.3800   -5.3031    2.8600 C   0  0  0  0  0  0  0  0  0  0  0  0
    4.3926   -6.4772    3.0057 C   0  0  1  0  0  0  0  0  0  0  0  0
    4.3078   -7.4647    1.7886 C   0  0  0  0  0  0  0  0  0  0  0  0
    4.9422   -7.0138    0.6637 C   0  0  0  0  0  0  0  0  0  0  0  0
    5.8520   -5.7764    0.5219 C   0  0  1  0  0  0  0  0  0  0  0  0
    5.2867   -4.7256   -0.4558 C   0  0  0  0  0  0  0  0  0  0  0  0
    6.2104   -5.1780    1.8920 C   0  0  0  0  0  0  0  0  0  0  0  0
    6.5827   -4.0089    1.9434 O   0  0  0  0  0  0  0  0  0  0  0  0
    3.5211   -8.8149    1.7244 C   0  0  1  0  0  0  0  0  0  0  0  0
    3.7756   -9.4529    0.4843 O   0  0  0  0  0  0  0  0  0  0  0  0
    3.7778   -9.9431    2.7889 C   0  0  1  0  0  0  0  0  0  0  0  0
    5.2629  -10.3473    2.9036 C   0  0  0  0  0  0  0  0  0  0  0  0
    1.8734   -7.8521    4.3823 C   0  0  1  0  0  0  0  0  0  0  0  0
    8.6978   -8.1015    2.7212 H   0  0  0  0  0  0  0  0  0  0  0  0
    8.5336   -6.7739    3.8542 H   0  0  0  0  0  0  0  0  0  0  0  0
    8.5765   -6.4684    2.1183 H   0  0  0  0  0  0  0  0  0  0  0  0
    6.6987   -6.3263    5.0914 H   0  0  0  0  0  0  0  0  0  0  0  0
    5.7151   -4.8466    4.7241 H   0  0  0  0  0  0  0  0  0  0  0  0
    3.9429   -6.0968    5.0923 H   0  0  0  0  0  0  0  0  0  0  0  0
    1.8088   -9.6937    6.5968 H   0  0  0  0  0  0  0  0  0  0  0  0
    2.4442   -8.1341    7.1004 H   0  0  0  0  0  0  0  0  0  0  0  0
    3.4761   -9.5544    7.0336 H   0  0  0  0  0  0  0  0  0  0  0  0
    3.3056  -10.7979    4.7153 H   0  0  0  0  0  0  0  0  0  0  0  0
    1.2391  -10.4368    2.8253 H   0  0  0  0  0  0  0  0  0  0  0  0
    1.0549  -10.9711    4.4753 H   0  0  0  0  0  0  0  0  0  0  0  0
    0.2185   -9.0088    5.2019 H   0  0  0  0  0  0  0  0  0  0  0  0
    0.1913   -8.0412    2.3214 H   0  0  0  0  0  0  0  0  0  0  0  0
   -2.1208   -9.4373    3.6864 H   0  0  0  0  0  0  0  0  0  0  0  0
   -1.1123  -10.1475    2.3935 H   0  0  0  0  0  0  0  0  0  0  0  0
   -2.1354   -8.7474    2.1076 H   0  0  0  0  0  0  0  0  0  0  0  0
   -1.0574   -6.2901    3.0016 H   0  0  0  0  0  0  0  0  0  0  0  0
   -1.9020   -7.1269    4.2645 H   0  0  0  0  0  0  0  0  0  0  0  0
   -0.3435   -5.2583    5.0806 H   0  0  0  0  0  0  0  0  0  0  0  0
   -0.1737   -6.7808    5.8477 H   0  0  0  0  0  0  0  0  0  0  0  0
    1.9923   -5.9523    5.4808 H   0  0  0  0  0  0  0  0  0  0  0  0
    1.3947   -5.9259    2.4585 H   0  0  0  0  0  0  0  0  0  0  0  0
    1.6210   -3.5256    4.3177 H   0  0  0  0  0  0  0  0  0  0  0  0
    0.2150   -4.0246    3.3706 H   0  0  0  0  0  0  0  0  0  0  0  0
    1.6439   -3.4120    2.5666 H   0  0  0  0  0  0  0  0  0  0  0  0
    3.3809   -4.9231    1.8407 H   0  0  0  0  0  0  0  0  0  0  0  0
    3.7746   -4.4600    3.4360 H   0  0  0  0  0  0  0  0  0  0  0  0
    4.8940   -7.5745   -0.2503 H   0  0  0  0  0  0  0  0  0  0  0  0
    6.7965   -6.1305    0.1135 H   0  0  0  0  0  0  0  0  0  0  0  0
    4.3377   -4.3202   -0.1099 H   0  0  0  0  0  0  0  0  0  0  0  0
    5.1197   -5.1481   -1.4461 H   0  0  0  0  0  0  0  0  0  0  0  0
    5.9734   -3.8861   -0.5751 H   0  0  0  0  0  0  0  0  0  0  0  0
    2.4594   -8.6074    1.6232 H   0  0  0  0  0  0  0  0  0  0  0  0
    3.8193  -10.4157    0.6060 H   0  0  0  0  0  0  0  0  0  0  0  0
    3.3636  -10.8427    2.3286 H   0  0  0  0  0  0  0  0  0  0  0  0
    5.9059   -9.5335    3.2239 H   0  0  0  0  0  0  0  0  0  0  0  0
    5.6508  -10.6784    1.9395 H   0  0  0  0  0  0  0  0  0  0  0  0
    5.3970  -11.1694    3.6044 H   0  0  0  0  0  0  0  0  0  0  0  0
    2.1840   -7.7569    3.3770 H   0  0  0  0  0  0  0  0  0  0  0  0
  1  2  1  0
  1 33  1  0
  1 34  1  0
  1 35  1  0
  3  2  1  1
  3 21  1  0
  3 26  1  0
  3  4  1  0
  4  5  1  0
  4 36  1  0
  4 37  1  0
  5 21  1  0
  5  6  1  0
  5 38  1  1
  6  7  2  0
  6  8  1  0
  8 32  1  0
  8  9  1  1
  8 10  1  0
  9 39  1  0
  9 40  1  0
  9 41  1  0
 10 30  1  0
 10 11  1  0
 10 42  1  1
 11 12  1  0
 11 43  1  0
 11 44  1  0
 12 32  1  0
 12 13  1  0
 12 45  1  1
 13 14  1  0
 13 15  1  0
 13 46  1  6
 14 47  1  0
 14 48  1  0
 14 49  1  0
 15 16  1  0
 15 50  1  0
 15 51  1  0
 16 17  1  0
 16 52  1  0
 16 53  1  0
 17 18  1  0
 17 32  1  0
 17 54  1  1
 18 19  1  0
 18 20  1  0
 18 55  1  6
 19 56  1  0
 19 57  1  0
 19 58  1  0
 21 20  1  1
 20 59  1  0
 20 60  1  0
 21 22  1  0
 22 23  2  0
 22 28  1  0
 23 24  1  0
 23 61  1  0
 24 25  1  0
 24 26  1  0
 24 62  1  6
 25 63  1  0
 25 64  1  0
 25 65  1  0
 26 27  2  0
 28 29  1  0
 28 30  1  0
 28 66  1  6
 29 67  1  0
 30 31  1  0
 30 68  1  6
 31 69  1  0
 31 70  1  0
 31 71  1  0
 32 72  1  6
M  END
>  <i_m_ct_stereo_status>  (68) 
1

>  <s_m_source_file>  (68) 
/var/tmp/pbs.5076255.sched01/tmpfev35gxg/05fxellcm.sdf

>  <i_m_source_file_index>  (68) 
29

>  <i_lp_mmshare_version>  (68) 
48012

>  <i_f3d_flags>  (68) 
0

>  <s_epik_input>  (68) 
W0NIM11PW0NAQF0xKFtDQEBdMjM0KVtDSDJdW0NAQEhdMkMoPU8pW0NAXTUoW0NIM10pW0NASF0oW0NASF0oW0NIM10pW0NASF0oW09IXSlDND1bQ0hdW0NAQEhdKFtDSDNdKUMxPU8pW0NIMl1bQ0BIXTZbQ0BIXTVbQ0BASF0oW0NAQEhdKFtDSDNdKVtDSDJdMylbQ0gyXVtDSDJdW0NAQEhdNltDSDNd

>  <s_epik_cmdline>  (68) 
J2VwaWtfcHl0aG9uJywgJy1waHQnLCAnMi4wJywgJy1waCcsICc3LjAnLCAnLXRuJywgJzgnLCAnLW1hJywgJzIwMCcsICctaW1hZScsICc8aW5maWxlLm1hZT4nLCAnLW9tYWUnLCAnPG91dGZpbGUubWFlPic=

>  <r_lp_tautomer_probability>  (68) 
1

>  <r_epik_Ionization_Penalty>  (68) 
4.28607e-08

>  <r_epik_Ionization_Penalty_Charging>  (68) 
0

>  <r_epik_Ionization_Penalty_Neutral>  (68) 
4.28607e-08

>  <r_epik_State_Penalty>  (68) 
-0

>  <r_epik_Charging_Adjusted_Penalty>  (68) 
0

>  <i_epik_Tot_Q>  (68) 
0

>  <i_epik_Tot_abs_Q>  (68) 
0

>  <s_lp_Force_Field>  (68) 
OPLS3e

>  <r_lp_Energy>  (68) 
122.676

>  <b_lp_Chiralities_Consistent>  (68) 
1

>  <s_lp_Variant>  (68) 
17:0-1

>  <s_i_glide_gridfile>  (68) 
pfpi4k_grid

>  <i_i_glide_lignum>  (68) 
29

>  <i_i_glide_rotatable_bonds>  (68) 
2

>  <r_i_docking_score>  (68) 
-2.53217

>  <r_i_glide_ligand_efficiency>  (68) 
-0.0791303

>  <r_i_glide_ligand_efficiency_sa>  (68) 
-0.251223

>  <r_i_glide_ligand_efficiency_ln>  (68) 
-0.567022

>  <r_i_glide_gscore>  (68) 
-2.53217

>  <r_i_glide_lipo>  (68) 
-0.244583

>  <r_i_glide_hbond>  (68) 
-0.16

>  <r_i_glide_metal>  (68) 
-0

>  <r_i_glide_rewards>  (68) 
-0.480994

>  <r_i_glide_evdw>  (68) 
-19.081

>  <r_i_glide_ecoul>  (68) 
-4.61696

>  <r_i_glide_erotb>  (68) 
0

>  <r_i_glide_esite>  (68) 
0

>  <r_i_glide_emodel>  (68) 
-26.8324

>  <r_i_glide_energy>  (68) 
-23.6979

>  <r_i_glide_einternal>  (68) 
1.10701

>  <r_i_glide_intrahb_reward>  (68) 
-0

>  <i_i_glide_confnum>  (68) 
2

>  <i_i_glide_posenum>  (68) 
5

>  <r_i_glide_eff_state_penalty>  (68) 
0

>  <ligand_id>  (68) 
17

>  <original_smiles>  (68) 
COC12CC3C(=O)C4(C)C5CC6C(C)CCC(C(C)CC31C(=CC(C)C2=O)C(O)C5C)C64

>  <smiles>  (68) 
[H]OC1([H])C2=C([H])C([H])(C([H])([H])[H])C(=O)C3(OC([H])([H])[H])C([H])([H])C4([H])C(=O)C5(C([H])([H])[H])C([H])(C([H])([H])C6([H])C([H])(C([H])([H])[H])C([H])([H])C([H])([H])C([H])(C([H])(C([H])([H])[H])C([H])([H])C243)C65[H])C1([H])C([H])([H])[H]

$$$$
17:0:1
     RDKit          3D

 72 77  0  0  1  0  0  0  0  0999 V2000
    1.2986  -11.7184    3.9503 C   0  0  0  0  0  0  0  0  0  0  0  0
    1.4658  -10.2978    3.9963 O   0  0  0  0  0  0  0  0  0  0  0  0
    2.7868   -9.7851    4.2754 C   0  0  2  0  0  0  0  0  0  0  0  0
    2.9870   -9.9269    5.7731 C   0  0  0  0  0  0  0  0  0  0  0  0
    2.4974   -8.4696    5.8703 C   0  0  2  0  0  0  0  0  0  0  0  0
    1.1842   -8.0567    6.4104 C   0  0  0  0  0  0  0  0  0  0  0  0
    0.2977   -8.8033    6.8270 O   0  0  0  0  0  0  0  0  0  0  0  0
    0.9902   -6.5245    6.5044 C   0  0  2  0  0  0  0  0  0  0  0  0
    0.6542   -6.2059    7.9881 C   0  0  0  0  0  0  0  0  0  0  0  0
   -0.1655   -6.0721    5.5577 C   0  0  1  0  0  0  0  0  0  0  0  0
    0.0071   -4.5259    5.4204 C   0  0  0  0  0  0  0  0  0  0  0  0
    1.4283   -4.1773    5.8986 C   0  0  2  0  0  0  0  0  0  0  0  0
    2.2798   -3.2184    5.0376 C   0  0  1  0  0  0  0  0  0  0  0  0
    1.6359   -1.8513    4.7264 C   0  0  0  0  0  0  0  0  0  0  0  0
    3.6737   -3.0447    5.6900 C   0  0  0  0  0  0  0  0  0  0  0  0
    4.0542   -4.1664    6.6916 C   0  0  0  0  0  0  0  0  0  0  0  0
    3.6352   -5.5933    6.2449 C   0  0  2  0  0  0  0  0  0  0  0  0
    4.4586   -6.0705    4.9650 C   0  0  1  0  0  0  0  0  0  0  0  0
    5.9839   -5.8609    5.1417 C   0  0  0  0  0  0  0  0  0  0  0  0
    4.2692   -7.5174    4.3829 C   0  0  0  0  0  0  0  0  0  0  0  0
    2.8756   -8.2170    4.3981 C   0  0  1  0  0  0  0  0  0  0  0  0
    2.0071   -7.8003    3.1503 C   0  0  0  0  0  0  0  0  0  0  0  0
    2.3376   -8.4518    1.9957 C   0  0  0  0  0  0  0  0  0  0  0  0
    3.3427   -9.6160    1.8402 C   0  0  1  0  0  0  0  0  0  0  0  0
    4.5439   -9.2431    0.9517 C   0  0  0  0  0  0  0  0  0  0  0  0
    3.7453  -10.2332    3.2040 C   0  0  0  0  0  0  0  0  0  0  0  0
    4.7576  -10.9215    3.3286 O   0  0  0  0  0  0  0  0  0  0  0  0
    0.8999   -6.6926    3.1238 C   0  0  1  0  0  0  0  0  0  0  0  0
    0.2802   -6.6075    1.8427 O   0  0  0  0  0  0  0  0  0  0  0  0
   -0.3033   -6.7593    4.1372 C   0  0  1  0  0  0  0  0  0  0  0  0
   -1.0685   -8.1017    4.1104 C   0  0  0  0  0  0  0  0  0  0  0  0
    2.0997   -5.5594    5.9614 C   0  0  1  0  0  0  0  0  0  0  0  0
    0.2602  -11.9477    3.7122 H   0  0  0  0  0  0  0  0  0  0  0  0
    1.5233  -12.1934    4.9038 H   0  0  0  0  0  0  0  0  0  0  0  0
    1.9099  -12.1929    3.1825 H   0  0  0  0  0  0  0  0  0  0  0  0
    2.3542  -10.6533    6.2818 H   0  0  0  0  0  0  0  0  0  0  0  0
    4.0370  -10.0375    6.0455 H   0  0  0  0  0  0  0  0  0  0  0  0
    3.2444   -8.0493    6.5293 H   0  0  0  0  0  0  0  0  0  0  0  0
    0.2226   -5.2157    8.1202 H   0  0  0  0  0  0  0  0  0  0  0  0
    1.5522   -6.2629    8.6065 H   0  0  0  0  0  0  0  0  0  0  0  0
   -0.0756   -6.9029    8.4085 H   0  0  0  0  0  0  0  0  0  0  0  0
   -1.1119   -6.2384    6.0716 H   0  0  0  0  0  0  0  0  0  0  0  0
   -0.1667   -4.1765    4.4029 H   0  0  0  0  0  0  0  0  0  0  0  0
   -0.7207   -4.0095    6.0507 H   0  0  0  0  0  0  0  0  0  0  0  0
    1.3506   -3.7483    6.8965 H   0  0  0  0  0  0  0  0  0  0  0  0
    2.4258   -3.7036    4.0733 H   0  0  0  0  0  0  0  0  0  0  0  0
    1.4539   -1.2616    5.6247 H   0  0  0  0  0  0  0  0  0  0  0  0
    0.6938   -1.9532    4.1869 H   0  0  0  0  0  0  0  0  0  0  0  0
    2.3017   -1.2667    4.0890 H   0  0  0  0  0  0  0  0  0  0  0  0
    4.4209   -2.9865    4.8981 H   0  0  0  0  0  0  0  0  0  0  0  0
    3.7277   -2.0872    6.2067 H   0  0  0  0  0  0  0  0  0  0  0  0
    5.1142   -4.1146    6.9345 H   0  0  0  0  0  0  0  0  0  0  0  0
    3.5602   -3.9625    7.6423 H   0  0  0  0  0  0  0  0  0  0  0  0
    3.8520   -6.2344    7.0986 H   0  0  0  0  0  0  0  0  0  0  0  0
    4.1716   -5.4067    4.1474 H   0  0  0  0  0  0  0  0  0  0  0  0
    6.3533   -6.3507    6.0466 H   0  0  0  0  0  0  0  0  0  0  0  0
    6.2501   -4.8039    5.1928 H   0  0  0  0  0  0  0  0  0  0  0  0
    6.5429   -6.2710    4.2983 H   0  0  0  0  0  0  0  0  0  0  0  0
    4.6914   -7.5270    3.3805 H   0  0  0  0  0  0  0  0  0  0  0  0
    4.9601   -8.1505    4.9443 H   0  0  0  0  0  0  0  0  0  0  0  0
    1.8388   -8.2196    1.0636 H   0  0  0  0  0  0  0  0  0  0  0  0
    2.7927  -10.3992    1.3276 H   0  0  0  0  0  0  0  0  0  0  0  0
    5.1451   -8.4415    1.3778 H   0  0  0  0  0  0  0  0  0  0  0  0
    4.2130   -8.9176   -0.0340 H   0  0  0  0  0  0  0  0  0  0  0  0
    5.1997  -10.1004    0.7997 H   0  0  0  0  0  0  0  0  0  0  0  0
    1.3733   -5.7142    3.1426 H   0  0  0  0  0  0  0  0  0  0  0  0
    0.0515   -7.4877    1.5766 H   0  0  0  0  0  0  0  0  0  0  0  0
   -1.0579   -6.1138    3.6931 H   0  0  0  0  0  0  0  0  0  0  0  0
   -0.4608   -8.9532    4.4000 H   0  0  0  0  0  0  0  0  0  0  0  0
   -1.4450   -8.3167    3.1091 H   0  0  0  0  0  0  0  0  0  0  0  0
   -1.9269   -8.0790    4.7797 H   0  0  0  0  0  0  0  0  0  0  0  0
    2.1642   -5.8038    4.9347 H   0  0  0  0  0  0  0  0  0  0  0  0
  1  2  1  0
  1 33  1  0
  1 34  1  0
  1 35  1  0
  3  2  1  6
  3 21  1  0
  3 26  1  0
  3  4  1  0
  4  5  1  0
  4 36  1  0
  4 37  1  0
  5 21  1  0
  5  6  1  0
  5 38  1  1
  6  7  2  0
  6  8  1  0
  8 32  1  0
  8  9  1  1
  8 10  1  0
  9 39  1  0
  9 40  1  0
  9 41  1  0
 10 30  1  0
 10 11  1  0
 10 42  1  1
 11 12  1  0
 11 43  1  0
 11 44  1  0
 12 32  1  0
 12 13  1  0
 12 45  1  1
 13 14  1  0
 13 15  1  0
 13 46  1  6
 14 47  1  0
 14 48  1  0
 14 49  1  0
 15 16  1  0
 15 50  1  0
 15 51  1  0
 16 17  1  0
 16 52  1  0
 16 53  1  0
 17 18  1  0
 17 32  1  0
 17 54  1  1
 18 19  1  0
 18 20  1  0
 18 55  1  6
 19 56  1  0
 19 57  1  0
 19 58  1  0
 21 20  1  1
 20 59  1  0
 20 60  1  0
 21 22  1  0
 22 23  2  0
 22 28  1  0
 23 24  1  0
 23 61  1  0
 24 25  1  0
 24 26  1  0
 24 62  1  6
 25 63  1  0
 25 64  1  0
 25 65  1  0
 26 27  2  0
 28 29  1  0
 28 30  1  0
 28 66  1  1
 29 67  1  0
 30 31  1  0
 30 68  1  6
 31 69  1  0
 31 70  1  0
 31 71  1  0
 32 72  1  6
M  END
>  <i_m_ct_stereo_status>  (69) 
1

>  <s_m_source_file>  (69) 
/var/tmp/pbs.5076255.sched01/tmpfev35gxg/05fxellcm.sdf

>  <i_m_source_file_index>  (69) 
29

>  <i_lp_mmshare_version>  (69) 
48012

>  <i_f3d_flags>  (69) 
0

>  <s_epik_input>  (69) 
W0NIM11PW0NAQF0xKFtDQEBdMjM0KVtDSDJdW0NAQEhdMkMoPU8pW0NAXTUoW0NIM10pW0NASF0oW0NASF0oW0NIM10pW0NASF0oW09IXSlDND1bQ0hdW0NAQEhdKFtDSDNdKUMxPU8pW0NIMl1bQ0BIXTZbQ0BIXTVbQ0BASF0oW0NAQEhdKFtDSDNdKVtDSDJdMylbQ0gyXVtDSDJdW0NAQEhdNltDSDNd

>  <s_epik_cmdline>  (69) 
J2VwaWtfcHl0aG9uJywgJy1waHQnLCAnMi4wJywgJy1waCcsICc3LjAnLCAnLXRuJywgJzgnLCAnLW1hJywgJzIwMCcsICctaW1hZScsICc8aW5maWxlLm1hZT4nLCAnLW9tYWUnLCAnPG91dGZpbGUubWFlPic=

>  <r_lp_tautomer_probability>  (69) 
1

>  <r_epik_Ionization_Penalty>  (69) 
4.28607e-08

>  <r_epik_Ionization_Penalty_Charging>  (69) 
0

>  <r_epik_Ionization_Penalty_Neutral>  (69) 
4.28607e-08

>  <r_epik_State_Penalty>  (69) 
-0

>  <r_epik_Charging_Adjusted_Penalty>  (69) 
0

>  <i_epik_Tot_Q>  (69) 
0

>  <i_epik_Tot_abs_Q>  (69) 
0

>  <s_lp_Force_Field>  (69) 
OPLS3e

>  <r_lp_Energy>  (69) 
122.676

>  <b_lp_Chiralities_Consistent>  (69) 
1

>  <s_lp_Variant>  (69) 
17:0-1

>  <s_i_glide_gridfile>  (69) 
pfpi4k_grid

>  <i_i_glide_lignum>  (69) 
29

>  <i_i_glide_rotatable_bonds>  (69) 
2

>  <r_i_docking_score>  (69) 
-2.17571

>  <r_i_glide_ligand_efficiency>  (69) 
-0.0679908

>  <r_i_glide_ligand_efficiency_sa>  (69) 
-0.215857

>  <r_i_glide_ligand_efficiency_ln>  (69) 
-0.4872

>  <r_i_glide_gscore>  (69) 
-2.17571

>  <r_i_glide_lipo>  (69) 
-0.0498123

>  <r_i_glide_hbond>  (69) 
-0.108858

>  <r_i_glide_metal>  (69) 
-0

>  <r_i_glide_rewards>  (69) 
-0.404899

>  <r_i_glide_evdw>  (69) 
-22.6456

>  <r_i_glide_ecoul>  (69) 
-2.88328

>  <r_i_glide_erotb>  (69) 
0

>  <r_i_glide_esite>  (69) 
-0.0473642

>  <r_i_glide_emodel>  (69) 
-28.601

>  <r_i_glide_energy>  (69) 
-25.5289

>  <r_i_glide_einternal>  (69) 
0.334214

>  <r_i_glide_intrahb_reward>  (69) 
-0

>  <i_i_glide_confnum>  (69) 
2

>  <i_i_glide_posenum>  (69) 
3

>  <r_i_glide_eff_state_penalty>  (69) 
0

>  <ligand_id>  (69) 
17

>  <original_smiles>  (69) 
COC12CC3C(=O)C4(C)C5CC6C(C)CCC(C(C)CC31C(=CC(C)C2=O)C(O)C5C)C64

>  <smiles>  (69) 
[H]OC1([H])C2=C([H])C([H])(C([H])([H])[H])C(=O)C3(OC([H])([H])[H])C([H])([H])C4([H])C(=O)C5(C([H])([H])[H])C([H])(C([H])([H])C6([H])C([H])(C([H])([H])[H])C([H])([H])C([H])([H])C([H])(C([H])(C([H])([H])[H])C([H])([H])C243)C65[H])C1([H])C([H])([H])[H]

$$$$
17:0:2
     RDKit          3D

 72 77  0  0  1  0  0  0  0  0999 V2000
    8.1224   -7.3349    3.8563 C   0  0  0  0  0  0  0  0  0  0  0  0
    6.6976   -7.4302    3.7653 O   0  0  0  0  0  0  0  0  0  0  0  0
    5.9118   -6.9393    4.8746 C   0  0  2  0  0  0  0  0  0  0  0  0
    5.9707   -8.0133    5.9425 C   0  0  0  0  0  0  0  0  0  0  0  0
    4.6422   -8.5258    5.3541 C   0  0  2  0  0  0  0  0  0  0  0  0
    4.5030   -9.7640    4.5605 C   0  0  0  0  0  0  0  0  0  0  0  0
    5.4224  -10.5210    4.2462 O   0  0  0  0  0  0  0  0  0  0  0  0
    3.0445  -10.1152    4.1814 C   0  0  2  0  0  0  0  0  0  0  0  0
    2.7639  -11.5388    4.7358 C   0  0  0  0  0  0  0  0  0  0  0  0
    2.8616  -10.0737    2.6317 C   0  0  1  0  0  0  0  0  0  0  0  0
    1.3142  -10.0067    2.4229 C   0  0  0  0  0  0  0  0  0  0  0  0
    0.6710   -9.6082    3.7521 C   0  0  2  0  0  0  0  0  0  0  0  0
   -0.4114   -8.5097    3.7194 C   0  0  1  0  0  0  0  0  0  0  0  0
   -1.6151   -8.7738    2.7864 C   0  0  0  0  0  0  0  0  0  0  0  0
   -0.8827   -8.2441    5.1619 C   0  0  0  0  0  0  0  0  0  0  0  0
    0.0977   -8.7229    6.2682 C   0  0  0  0  0  0  0  0  0  0  0  0
    1.5922   -8.4612    5.9426 C   0  0  2  0  0  0  0  0  0  0  0  0
    1.9181   -6.8996    5.9196 C   0  0  1  0  0  0  0  0  0  0  0  0
    1.3926   -6.1752    7.1842 C   0  0  0  0  0  0  0  0  0  0  0  0
    3.3864   -6.3922    5.6908 C   0  0  0  0  0  0  0  0  0  0  0  0
    4.3571   -7.1467    4.7339 C   0  0  1  0  0  0  0  0  0  0  0  0
    4.1585   -6.6924    3.2405 C   0  0  0  0  0  0  0  0  0  0  0  0
    4.7511   -5.5004    2.9378 C   0  0  0  0  0  0  0  0  0  0  0  0
    5.6934   -4.6779    3.8375 C   0  0  1  0  0  0  0  0  0  0  0  0
    5.1151   -3.2897    4.1806 C   0  0  0  0  0  0  0  0  0  0  0  0
    6.1803   -5.4723    5.0734 C   0  0  0  0  0  0  0  0  0  0  0  0
    6.6686   -4.9069    6.0507 O   0  0  0  0  0  0  0  0  0  0  0  0
    3.3068   -7.4240    2.1511 C   0  0  1  0  0  0  0  0  0  0  0  0
    3.3774   -6.7323    0.9120 O   0  0  0  0  0  0  0  0  0  0  0  0
    3.5874   -8.9348    1.7992 C   0  0  1  0  0  0  0  0  0  0  0  0
    5.0617   -9.2115    1.4296 C   0  0  0  0  0  0  0  0  0  0  0  0
    1.8843   -9.1304    4.5631 C   0  0  1  0  0  0  0  0  0  0  0  0
    8.5667   -7.7214    2.9386 H   0  0  0  0  0  0  0  0  0  0  0  0
    8.5195   -7.9235    4.6819 H   0  0  0  0  0  0  0  0  0  0  0  0
    8.4777   -6.3104    3.9669 H   0  0  0  0  0  0  0  0  0  0  0  0
    6.7961   -8.7205    5.8730 H   0  0  0  0  0  0  0  0  0  0  0  0
    5.8544   -7.6116    6.9496 H   0  0  0  0  0  0  0  0  0  0  0  0
    4.0574   -8.6688    6.2522 H   0  0  0  0  0  0  0  0  0  0  0  0
    1.8754  -11.9964    4.3028 H   0  0  0  0  0  0  0  0  0  0  0  0
    2.6222  -11.5072    5.8175 H   0  0  0  0  0  0  0  0  0  0  0  0
    3.5808  -12.2362    4.5315 H   0  0  0  0  0  0  0  0  0  0  0  0
    3.2028  -11.0252    2.2197 H   0  0  0  0  0  0  0  0  0  0  0  0
    1.0430   -9.2903    1.6524 H   0  0  0  0  0  0  0  0  0  0  0  0
    0.9020  -10.9724    2.1273 H   0  0  0  0  0  0  0  0  0  0  0  0
    0.2341  -10.5020    4.1989 H   0  0  0  0  0  0  0  0  0  0  0  0
    0.0596   -7.5995    3.3516 H   0  0  0  0  0  0  0  0  0  0  0  0
   -2.1708   -9.6670    3.0711 H   0  0  0  0  0  0  0  0  0  0  0  0
   -1.3144   -8.8846    1.7444 H   0  0  0  0  0  0  0  0  0  0  0  0
   -2.3150   -7.9376    2.8306 H   0  0  0  0  0  0  0  0  0  0  0  0
   -1.0801   -7.1789    5.2782 H   0  0  0  0  0  0  0  0  0  0  0  0
   -1.8385   -8.7430    5.2924 H   0  0  0  0  0  0  0  0  0  0  0  0
   -0.1801   -8.3108    7.2366 H   0  0  0  0  0  0  0  0  0  0  0  0
   -0.0269   -9.7990    6.4017 H   0  0  0  0  0  0  0  0  0  0  0  0
    2.1487   -8.9620    6.7343 H   0  0  0  0  0  0  0  0  0  0  0  0
    1.3495   -6.4758    5.0896 H   0  0  0  0  0  0  0  0  0  0  0  0
    1.7729   -6.6408    8.0974 H   0  0  0  0  0  0  0  0  0  0  0  0
    0.3024   -6.1700    7.2317 H   0  0  0  0  0  0  0  0  0  0  0  0
    1.7006   -5.1277    7.2005 H   0  0  0  0  0  0  0  0  0  0  0  0
    3.3337   -5.3371    5.4302 H   0  0  0  0  0  0  0  0  0  0  0  0
    3.8470   -6.3784    6.6807 H   0  0  0  0  0  0  0  0  0  0  0  0
    4.6502   -5.0588    1.9542 H   0  0  0  0  0  0  0  0  0  0  0  0
    6.5751   -4.5577    3.2155 H   0  0  0  0  0  0  0  0  0  0  0  0
    4.1935   -3.3621    4.7589 H   0  0  0  0  0  0  0  0  0  0  0  0
    4.8861   -2.7270    3.2745 H   0  0  0  0  0  0  0  0  0  0  0  0
    5.8156   -2.6904    4.7614 H   0  0  0  0  0  0  0  0  0  0  0  0
    2.2534   -7.2587    2.3601 H   0  0  0  0  0  0  0  0  0  0  0  0
    4.2303   -6.8902    0.5352 H   0  0  0  0  0  0  0  0  0  0  0  0
    3.1063   -9.0786    0.8286 H   0  0  0  0  0  0  0  0  0  0  0  0
    5.7542   -9.0050    2.2360 H   0  0  0  0  0  0  0  0  0  0  0  0
    5.3764   -8.6037    0.5836 H   0  0  0  0  0  0  0  0  0  0  0  0
    5.2041  -10.2536    1.1436 H   0  0  0  0  0  0  0  0  0  0  0  0
    2.1310   -8.2401    4.0497 H   0  0  0  0  0  0  0  0  0  0  0  0
  1  2  1  0
  1 33  1  0
  1 34  1  0
  1 35  1  0
  3  2  1  6
  3 21  1  0
  3 26  1  0
  3  4  1  0
  4  5  1  0
  4 36  1  0
  4 37  1  0
  5 21  1  0
  5  6  1  0
  5 38  1  1
  6  7  2  0
  6  8  1  0
  8 32  1  0
  8  9  1  1
  8 10  1  0
  9 39  1  0
  9 40  1  0
  9 41  1  0
 10 30  1  0
 10 11  1  0
 10 42  1  6
 11 12  1  0
 11 43  1  0
 11 44  1  0
 12 32  1  0
 12 13  1  0
 12 45  1  1
 13 14  1  0
 13 15  1  0
 13 46  1  6
 14 47  1  0
 14 48  1  0
 14 49  1  0
 15 16  1  0
 15 50  1  0
 15 51  1  0
 16 17  1  0
 16 52  1  0
 16 53  1  0
 17 18  1  0
 17 32  1  0
 17 54  1  1
 18 19  1  0
 18 20  1  0
 18 55  1  6
 19 56  1  0
 19 57  1  0
 19 58  1  0
 21 20  1  1
 20 59  1  0
 20 60  1  0
 21 22  1  0
 22 23  2  0
 22 28  1  0
 23 24  1  0
 23 61  1  0
 24 25  1  0
 24 26  1  0
 24 62  1  6
 25 63  1  0
 25 64  1  0
 25 65  1  0
 26 27  2  0
 28 29  1  0
 28 30  1  0
 28 66  1  1
 29 67  1  0
 30 31  1  0
 30 68  1  6
 31 69  1  0
 31 70  1  0
 31 71  1  0
 32 72  1  6
M  END
>  <i_m_ct_stereo_status>  (70) 
1

>  <s_m_source_file>  (70) 
/var/tmp/pbs.5076255.sched01/tmpfev35gxg/05fxellcm.sdf

>  <i_m_source_file_index>  (70) 
29

>  <i_lp_mmshare_version>  (70) 
48012

>  <i_f3d_flags>  (70) 
0

>  <s_epik_input>  (70) 
W0NIM11PW0NAQF0xKFtDQEBdMjM0KVtDSDJdW0NAQEhdMkMoPU8pW0NAXTUoW0NIM10pW0NASF0oW0NASF0oW0NIM10pW0NASF0oW09IXSlDND1bQ0hdW0NAQEhdKFtDSDNdKUMxPU8pW0NIMl1bQ0BIXTZbQ0BIXTVbQ0BASF0oW0NAQEhdKFtDSDNdKVtDSDJdMylbQ0gyXVtDSDJdW0NAQEhdNltDSDNd

>  <s_epik_cmdline>  (70) 
J2VwaWtfcHl0aG9uJywgJy1waHQnLCAnMi4wJywgJy1waCcsICc3LjAnLCAnLXRuJywgJzgnLCAnLW1hJywgJzIwMCcsICctaW1hZScsICc8aW5maWxlLm1hZT4nLCAnLW9tYWUnLCAnPG91dGZpbGUubWFlPic=

>  <r_lp_tautomer_probability>  (70) 
1

>  <r_epik_Ionization_Penalty>  (70) 
4.28607e-08

>  <r_epik_Ionization_Penalty_Charging>  (70) 
0

>  <r_epik_Ionization_Penalty_Neutral>  (70) 
4.28607e-08

>  <r_epik_State_Penalty>  (70) 
-0

>  <r_epik_Charging_Adjusted_Penalty>  (70) 
0

>  <i_epik_Tot_Q>  (70) 
0

>  <i_epik_Tot_abs_Q>  (70) 
0

>  <s_lp_Force_Field>  (70) 
OPLS3e

>  <r_lp_Energy>  (70) 
122.676

>  <b_lp_Chiralities_Consistent>  (70) 
1

>  <s_lp_Variant>  (70) 
17:0-1

>  <s_i_glide_gridfile>  (70) 
pfpi4k_grid

>  <i_i_glide_lignum>  (70) 
29

>  <i_i_glide_rotatable_bonds>  (70) 
2

>  <r_i_docking_score>  (70) 
-1.75304

>  <r_i_glide_ligand_efficiency>  (70) 
-0.0547824

>  <r_i_glide_ligand_efficiency_sa>  (70) 
-0.173923

>  <r_i_glide_ligand_efficiency_ln>  (70) 
-0.392553

>  <r_i_glide_gscore>  (70) 
-1.75304

>  <r_i_glide_lipo>  (70) 
-0.20307

>  <r_i_glide_hbond>  (70) 
0

>  <r_i_glide_metal>  (70) 
-0

>  <r_i_glide_rewards>  (70) 
-0.406235

>  <r_i_glide_evdw>  (70) 
-19.7011

>  <r_i_glide_ecoul>  (70) 
-1.0449

>  <r_i_glide_erotb>  (70) 
0

>  <r_i_glide_esite>  (70) 
-0.00194298

>  <r_i_glide_emodel>  (70) 
-23.3277

>  <r_i_glide_energy>  (70) 
-20.746

>  <r_i_glide_einternal>  (70) 
0.00924644

>  <r_i_glide_intrahb_reward>  (70) 
-0

>  <i_i_glide_confnum>  (70) 
2

>  <i_i_glide_posenum>  (70) 
27

>  <r_i_glide_eff_state_penalty>  (70) 
0

>  <ligand_id>  (70) 
17

>  <original_smiles>  (70) 
COC12CC3C(=O)C4(C)C5CC6C(C)CCC(C(C)CC31C(=CC(C)C2=O)C(O)C5C)C64

>  <smiles>  (70) 
[H]OC1([H])C2=C([H])C([H])(C([H])([H])[H])C(=O)C3(OC([H])([H])[H])C([H])([H])C4([H])C(=O)C5(C([H])([H])[H])C([H])(C([H])([H])C6([H])C([H])(C([H])([H])[H])C([H])([H])C([H])([H])C([H])(C([H])(C([H])([H])[H])C([H])([H])C243)C65[H])C1([H])C([H])([H])[H]

$$$$
18:0:0
     RDKit          3D

 90 98  0  0  1  0  0  0  0  0999 V2000
    4.3606   -7.8833    0.9985 C   0  0  0  0  0  0  0  0  0  0  0  0
    3.0590   -7.3244    1.1387 O   0  0  0  0  0  0  0  0  0  0  0  0
    2.5802   -7.2772    2.4753 C   0  0  2  0  0  0  0  0  0  0  0  0
    0.9679   -7.3676    2.4558 C   0  0  2  0  0  0  0  0  0  0  0  0
    0.3634   -6.2180    3.2191 C   0  0  0  0  0  0  0  0  0  0  0  0
    0.7926   -6.3702    4.6904 C   0  0  1  0  0  0  0  0  0  0  0  0
   -0.4620   -7.0229    5.2357 C   0  0  0  0  0  0  0  0  0  0  0  0
   -0.6922   -8.3595    4.4037 C   0  0  0  0  0  0  0  0  0  0  0  0
    0.1729   -8.5933    3.0604 C   0  0  1  0  0  0  0  0  0  0  0  0
   -0.7781   -9.0078    2.0977 O   0  0  0  0  0  0  0  0  0  0  0  0
    1.9384   -7.2527    5.3222 C   0  0  1  0  0  0  0  0  0  0  0  0
    2.1633   -8.6087    4.9785 O   0  0  0  0  0  0  0  0  0  0  0  0
    3.2914   -9.1787    5.6188 C   0  0  0  0  0  0  0  0  0  0  0  0
    2.8844   -6.2186    4.8376 C   0  0  1  0  0  0  0  0  0  0  0  0
    3.2249   -6.0867    3.3211 C   0  0  1  0  0  0  0  0  0  0  0  0
    3.3422   -4.4799    3.1687 C   0  0  1  0  0  0  0  0  0  0  0  0
    2.3765   -4.0080    4.3527 C   0  0  2  0  0  0  0  0  0  0  0  0
    3.1836   -3.1251    5.3342 C   0  0  0  0  0  0  0  0  0  0  0  0
    3.8617   -1.9653    4.6257 C   0  0  2  0  0  0  0  0  0  0  0  0
    4.4724   -1.2295    5.6564 O   0  0  0  0  0  0  0  0  0  0  0  0
    2.7483   -1.0730    3.9594 C   0  0  1  0  0  0  0  0  0  0  0  0
    2.9919    0.3070    4.1663 O   0  0  0  0  0  0  0  0  0  0  0  0
    2.4663   -1.3644    2.4553 C   0  0  1  0  0  0  0  0  0  0  0  0
    2.0756   -0.2160    1.7199 O   0  0  0  0  0  0  0  0  0  0  0  0
    3.6469   -2.0539    1.7533 C   0  0  1  0  0  0  0  0  0  0  0  0
    4.9926   -1.6527    2.4388 C   0  0  1  0  0  0  0  0  0  0  0  0
    5.2376   -0.2671    2.6094 O   0  0  0  0  0  0  0  0  0  0  0  0
    4.9873   -2.4914    3.6902 C   0  0  2  0  0  0  0  0  0  0  0  0
    4.8580   -3.9841    3.2117 C   0  0  1  0  0  0  0  0  0  0  0  0
    5.6324   -4.7946    4.0910 O   0  0  0  0  0  0  0  0  0  0  0  0
    6.6718   -5.6012    3.5426 C   0  0  0  0  0  0  0  0  0  0  0  0
    4.8036   -4.3762    1.6691 C   0  0  2  0  0  0  0  0  0  0  0  0
    5.6505   -3.9833    0.4258 C   0  0  1  0  0  0  0  0  0  0  0  0
    6.9125   -4.5945    0.4097 O   0  0  0  0  0  0  0  0  0  0  0  0
    4.8512   -4.4102   -0.8199 C   0  0  0  0  0  0  0  0  0  0  0  0
    3.4360   -3.7806   -0.8496 C   0  0  0  0  0  0  0  0  0  0  0  0
    2.6080   -3.8959    0.4435 C   0  0  1  0  0  0  0  0  0  0  0  0
    1.9059   -5.0958    0.4007 O   0  0  0  0  0  0  0  0  0  0  0  0
    3.4504   -3.6560    1.7421 C   0  0  1  0  0  0  0  0  0  0  0  0
    1.7705   -5.2070    5.1703 C   0  0  1  0  0  0  0  0  0  0  0  0
    1.5665   -4.9048    6.5598 O   0  0  0  0  0  0  0  0  0  0  0  0
    0.4590   -4.2427    6.9710 C   0  0  0  0  0  0  0  0  0  0  0  0
    0.4003   -4.0490    8.4768 C   0  0  0  0  0  0  0  0  0  0  0  0
   -0.4333   -3.8062    6.2276 O   0  0  0  0  0  0  0  0  0  0  0  0
    4.6520   -7.8045   -0.0616 H   0  0  0  0  0  0  0  0  0  0  0  0
    4.3798   -8.9780    1.2291 H   0  0  0  0  0  0  0  0  0  0  0  0
    5.1073   -7.2874    1.6168 H   0  0  0  0  0  0  0  0  0  0  0  0
    2.9377   -8.2176    2.8741 H   0  0  0  0  0  0  0  0  0  0  0  0
    0.6384   -7.2333    1.4176 H   0  0  0  0  0  0  0  0  0  0  0  0
    0.5522   -5.2344    2.8371 H   0  0  0  0  0  0  0  0  0  0  0  0
   -0.7306   -6.2649    3.0746 H   0  0  0  0  0  0  0  0  0  0  0  0
   -0.3536   -7.2520    6.2816 H   0  0  0  0  0  0  0  0  0  0  0  0
   -1.3221   -6.3526    5.1452 H   0  0  0  0  0  0  0  0  0  0  0  0
   -0.5158   -9.2029    5.0700 H   0  0  0  0  0  0  0  0  0  0  0  0
   -1.7611   -8.4170    4.1644 H   0  0  0  0  0  0  0  0  0  0  0  0
    0.8669   -9.4326    3.2129 H   0  0  0  0  0  0  0  0  0  0  0  0
   -0.3150   -9.4440    1.3755 H   0  0  0  0  0  0  0  0  0  0  0  0
    1.8951   -7.2306    6.4098 H   0  0  0  0  0  0  0  0  0  0  0  0
    3.3852  -10.2149    5.2948 H   0  0  0  0  0  0  0  0  0  0  0  0
    3.1779   -9.1684    6.7051 H   0  0  0  0  0  0  0  0  0  0  0  0
    4.2006   -8.6490    5.3453 H   0  0  0  0  0  0  0  0  0  0  0  0
    3.7331   -6.1293    5.5029 H   0  0  0  0  0  0  0  0  0  0  0  0
    2.4863   -5.6983    2.6741 H   0  0  0  0  0  0  0  0  0  0  0  0
    1.5243   -3.4551    3.9538 H   0  0  0  0  0  0  0  0  0  0  0  0
    2.5429   -2.7080    6.1105 H   0  0  0  0  0  0  0  0  0  0  0  0
    3.9401   -3.7121    5.8542 H   0  0  0  0  0  0  0  0  0  0  0  0
    4.8335   -0.4310    5.2376 H   0  0  0  0  0  0  0  0  0  0  0  0
    1.8169   -1.2229    4.5179 H   0  0  0  0  0  0  0  0  0  0  0  0
    2.3060    0.7708    3.6555 H   0  0  0  0  0  0  0  0  0  0  0  0
    1.6021   -2.0188    2.3976 H   0  0  0  0  0  0  0  0  0  0  0  0
    1.7199   -0.4795    0.8690 H   0  0  0  0  0  0  0  0  0  0  0  0
    3.6905   -1.6573    0.7349 H   0  0  0  0  0  0  0  0  0  0  0  0
    5.8940   -1.9211    1.9086 H   0  0  0  0  0  0  0  0  0  0  0  0
    4.8302    0.1975    1.8853 H   0  0  0  0  0  0  0  0  0  0  0  0
    5.9239   -2.4055    4.2171 H   0  0  0  0  0  0  0  0  0  0  0  0
    7.3132   -5.9826    4.3467 H   0  0  0  0  0  0  0  0  0  0  0  0
    7.3519   -5.0609    2.8811 H   0  0  0  0  0  0  0  0  0  0  0  0
    6.2534   -6.4489    2.9522 H   0  0  0  0  0  0  0  0  0  0  0  0
    4.6601   -5.4728    1.5591 H   0  0  0  0  0  0  0  0  0  0  0  0
    5.8240   -2.9350    0.2523 H   0  0  0  0  0  0  0  0  0  0  0  0
    6.7908   -5.5382    0.5285 H   0  0  0  0  0  0  0  0  0  0  0  0
    5.3958   -4.1155   -1.7195 H   0  0  0  0  0  0  0  0  0  0  0  0
    4.7834   -5.4968   -0.8405 H   0  0  0  0  0  0  0  0  0  0  0  0
    3.5476   -2.7318   -1.1252 H   0  0  0  0  0  0  0  0  0  0  0  0
    2.8536   -4.2152   -1.6660 H   0  0  0  0  0  0  0  0  0  0  0  0
    1.8285   -3.1204    0.3696 H   0  0  0  0  0  0  0  0  0  0  0  0
    2.5508   -5.8215    0.3549 H   0  0  0  0  0  0  0  0  0  0  0  0
    0.2759   -5.0025    8.9867 H   0  0  0  0  0  0  0  0  0  0  0  0
   -0.4378   -3.4113    8.7515 H   0  0  0  0  0  0  0  0  0  0  0  0
    1.3110   -3.5712    8.8366 H   0  0  0  0  0  0  0  0  0  0  0  0
  1  2  1  0
  1 45  1  0
  1 46  1  0
  1 47  1  0
  2  3  1  0
  3 15  1  0
  3  4  1  0
  3 48  1  1
  4  9  1  0
  4  5  1  0
  4 49  1  6
  5  6  1  0
  5 50  1  0
  5 51  1  0
  6 40  1  0
  6  7  1  1
  6 11  1  0
  7  8  1  0
  7 52  1  0
  7 53  1  0
  8  9  1  0
  8 54  1  0
  8 55  1  0
  9 10  1  0
  9 56  1  1
 10 57  1  0
 11 12  1  0
 11 14  1  0
 11 58  1  1
 12 13  1  0
 13 59  1  0
 13 60  1  0
 13 61  1  0
 14 40  1  0
 14 15  1  0
 14 62  1  1
 15 16  1  0
 15 63  1  1
 16 29  1  1
 39 16  1  1
 16 17  1  0
 17 18  1  0
 17 40  1  0
 17 64  1  6
 18 19  1  0
 18 65  1  0
 18 66  1  0
 19 28  1  0
 19 20  1  1
 19 21  1  0
 20 67  1  0
 21 22  1  0
 21 23  1  0
 21 68  1  1
 22 69  1  0
 23 24  1  0
 23 25  1  0
 23 70  1  1
 24 71  1  0
 25 39  1  0
 25 26  1  0
 25 72  1  6
 26 27  1  0
 26 28  1  0
 26 73  1  6
 27 74  1  0
 28 29  1  0
 28 75  1  1
 29 30  1  1
 29 32  1  0
 30 31  1  0
 31 76  1  0
 31 77  1  0
 31 78  1  0
 32 39  1  0
 32 33  1  0
 32 79  1  1
 33 34  1  0
 33 35  1  0
 33 80  1  6
 34 81  1  0
 35 36  1  0
 35 82  1  0
 35 83  1  0
 36 37  1  0
 36 84  1  0
 36 85  1  0
 37 38  1  0
 37 39  1  0
 37 86  1  6
 38 87  1  0
 40 41  1  1
 41 42  1  0
 42 43  1  0
 42 44  2  0
 43 88  1  0
 43 89  1  0
 43 90  1  0
M  END
>  <i_m_ct_stereo_status>  (71) 
1

>  <s_m_source_file>  (71) 
/var/tmp/pbs.5076255.sched01/tmpfev35gxg/05fxellcm.sdf

>  <i_m_source_file_index>  (71) 
30

>  <i_lp_mmshare_version>  (71) 
48012

>  <i_f3d_flags>  (71) 
0

>  <s_epik_input>  (71) 
W0NIMl0xW0NIMl1bQ0BASF0oW09IXSlbQ0BASF0oW0NIMl0yKVtDQEBIXShPW0NIM10pW0NAQEhdKFtDQEhdKFtDQEBIXTNPW0NIM10pW0NAQF00KFtDQEBdMTIzKU9DKD1PKVtDSDNdKVtDQEBdNTZbQ0BAXTc4W0NASF05W0NASF0oW09IXSlbQ0BIXShbT0hdKVtDQEBdKFtPSF0pKFtDSDJdW0NASF00NSlbQ0BIXShbQ0BASF05W09IXSlbQ0BdNihPW0NIM10pW0NAQEhdN1tDQEBIXShbT0hdKVtDSDJdW0NIMl1bQ0BIXThbT0hd

>  <s_epik_cmdline>  (71) 
J2VwaWtfcHl0aG9uJywgJy1waHQnLCAnMi4wJywgJy1waCcsICc3LjAnLCAnLXRuJywgJzgnLCAnLW1hJywgJzIwMCcsICctaW1hZScsICc8aW5maWxlLm1hZT4nLCAnLW9tYWUnLCAnPG91dGZpbGUubWFlPic=

>  <r_lp_tautomer_probability>  (71) 
1

>  <r_epik_Ionization_Penalty>  (71) 
1.47297e-06

>  <r_epik_Ionization_Penalty_Charging>  (71) 
0

>  <r_epik_Ionization_Penalty_Neutral>  (71) 
1.47297e-06

>  <r_epik_State_Penalty>  (71) 
-0

>  <r_epik_Charging_Adjusted_Penalty>  (71) 
0

>  <i_epik_Tot_Q>  (71) 
0

>  <i_epik_Tot_abs_Q>  (71) 
0

>  <s_epik_Chemistry_Notes>  (71) 
This compound has an ester and may undergo hydrolysis at high or low pH.

>  <s_lp_Force_Field>  (71) 
OPLS3e

>  <r_lp_Energy>  (71) 
304.196

>  <b_lp_Chiralities_Consistent>  (71) 
1

>  <s_lp_Variant>  (71) 
18:0-1

>  <s_i_glide_gridfile>  (71) 
pfpi4k_grid

>  <i_i_glide_lignum>  (71) 
30

>  <i_i_glide_rotatable_bonds>  (71) 
12

>  <r_i_docking_score>  (71) 
-3.66983

>  <r_i_glide_ligand_efficiency>  (71) 
-0.0834052

>  <r_i_glide_ligand_efficiency_sa>  (71) 
-0.294449

>  <r_i_glide_ligand_efficiency_ln>  (71) 
-0.767074

>  <r_i_glide_gscore>  (71) 
-3.66983

>  <r_i_glide_lipo>  (71) 
-0.282609

>  <r_i_glide_hbond>  (71) 
-0.299994

>  <r_i_glide_metal>  (71) 
-0

>  <r_i_glide_rewards>  (71) 
-0.5

>  <r_i_glide_evdw>  (71) 
-23.2054

>  <r_i_glide_ecoul>  (71) 
-9.84318

>  <r_i_glide_erotb>  (71) 
0.0544413

>  <r_i_glide_esite>  (71) 
-0.00492021

>  <r_i_glide_emodel>  (71) 
-41.0494

>  <r_i_glide_energy>  (71) 
-33.0486

>  <r_i_glide_einternal>  (71) 
4.4162

>  <r_i_glide_intrahb_reward>  (71) 
-0.5

>  <i_i_glide_confnum>  (71) 
2

>  <i_i_glide_posenum>  (71) 
38

>  <r_i_glide_eff_state_penalty>  (71) 
0

>  <ligand_id>  (71) 
18

>  <original_smiles>  (71) 
COC1C2CC3(CCC2O)C(OC)C2C1C14C(CC5(O)C(O)C(O)C6C(O)C5C1(OC)C1C(O)CCC(O)C614)C23OC(C)=O

>  <smiles>  (71) 
[H]OC1([H])C([H])([H])C([H])([H])C23C([H])([H])C1([H])C([H])(OC([H])([H])[H])C1([H])C([H])(C2([H])OC([H])([H])[H])C3(OC(=O)C([H])([H])[H])C2([H])C([H])([H])C3(O[H])C([H])(O[H])C([H])(O[H])C4([H])C([H])(O[H])C3([H])C3(OC([H])([H])[H])C5([H])C([H])(O[H])C([H])([H])C([H])([H])C([H])(O[H])C45C123

$$$$
18:0:1
     RDKit          3D

 90 98  0  0  1  0  0  0  0  0999 V2000
    4.3160   -8.0567    0.9978 C   0  0  0  0  0  0  0  0  0  0  0  0
    3.0585   -7.4244    1.1662 O   0  0  0  0  0  0  0  0  0  0  0  0
    2.5435   -7.4280    2.4908 C   0  0  2  0  0  0  0  0  0  0  0  0
    0.9243   -7.4857    2.4934 C   0  0  2  0  0  0  0  0  0  0  0  0
    0.3564   -6.3433    3.3008 C   0  0  0  0  0  0  0  0  0  0  0  0
    0.8148   -6.5718    4.7541 C   0  0  1  0  0  0  0  0  0  0  0  0
   -0.4398   -7.2288    5.2915 C   0  0  0  0  0  0  0  0  0  0  0  0
   -0.7012   -8.5322    4.4342 C   0  0  0  0  0  0  0  0  0  0  0  0
    0.1284   -8.7318    3.0701 C   0  0  1  0  0  0  0  0  0  0  0  0
   -0.8364   -9.1055    2.1107 O   0  0  0  0  0  0  0  0  0  0  0  0
    1.9544   -7.4980    5.3364 C   0  0  1  0  0  0  0  0  0  0  0  0
    2.1547   -8.8456    4.9500 O   0  0  0  0  0  0  0  0  0  0  0  0
    3.2663   -9.4697    5.5642 C   0  0  0  0  0  0  0  0  0  0  0  0
    2.9085   -6.4631    4.8791 C   0  0  1  0  0  0  0  0  0  0  0  0
    3.2325   -6.2656    3.3795 C   0  0  1  0  0  0  0  0  0  0  0  0
    3.3729   -4.6747    3.2721 C   0  0  1  0  0  0  0  0  0  0  0  0
    2.4344   -4.2184    4.4922 C   0  0  2  0  0  0  0  0  0  0  0  0
    3.2816   -3.3973    5.4894 C   0  0  0  0  0  0  0  0  0  0  0  0
    3.9688   -2.2244    4.8216 C   0  0  2  0  0  0  0  0  0  0  0  0
    4.6269   -1.5382    5.8666 O   0  0  0  0  0  0  0  0  0  0  0  0
    2.8587   -1.2929    4.2192 C   0  0  1  0  0  0  0  0  0  0  0  0
    3.1142    0.0768    4.4679 O   0  0  0  0  0  0  0  0  0  0  0  0
    2.5394   -1.5221    2.7066 C   0  0  1  0  0  0  0  0  0  0  0  0
    2.0945   -0.3430    2.0586 O   0  0  0  0  0  0  0  0  0  0  0  0
    3.7019   -2.1981    1.9426 C   0  0  1  0  0  0  0  0  0  0  0  0
    5.0662   -1.8294    2.6188 C   0  0  1  0  0  0  0  0  0  0  0  0
    5.3638   -0.4601    2.8178 O   0  0  0  0  0  0  0  0  0  0  0  0
    5.0822   -2.7280    3.8327 C   0  0  2  0  0  0  0  0  0  0  0  0
    4.8828   -4.2028    3.2970 C   0  0  1  0  0  0  0  0  0  0  0  0
    5.6589   -5.0873    4.1089 O   0  0  0  0  0  0  0  0  0  0  0  0
    6.7725   -5.7378    3.5087 C   0  0  0  0  0  0  0  0  0  0  0  0
    4.8050   -4.5282    1.7501 C   0  0  2  0  0  0  0  0  0  0  0  0
    5.6414   -4.1168    0.5170 C   0  0  1  0  0  0  0  0  0  0  0  0
    6.8951   -4.7565    0.4854 O   0  0  0  0  0  0  0  0  0  0  0  0
    4.8230   -4.4878   -0.7316 C   0  0  0  0  0  0  0  0  0  0  0  0
    3.4137   -3.8350   -0.7195 C   0  0  0  0  0  0  0  0  0  0  0  0
    2.5939   -3.9752    0.5927 C   0  0  1  0  0  0  0  0  0  0  0  0
    1.8857   -5.1830    0.4916 O   0  0  0  0  0  0  0  0  0  0  0  0
    3.4775   -3.7998    1.8732 C   0  0  1  0  0  0  0  0  0  0  0  0
    1.8296   -5.4433    5.2664 C   0  0  1  0  0  0  0  0  0  0  0  0
    1.6406   -5.1948    6.6722 O   0  0  0  0  0  0  0  0  0  0  0  0
    0.5499   -4.5420    7.1245 C   0  0  0  0  0  0  0  0  0  0  0  0
    0.5282   -4.3827    8.6354 C   0  0  0  0  0  0  0  0  0  0  0  0
   -0.3611   -4.0853    6.4141 O   0  0  0  0  0  0  0  0  0  0  0  0
    4.6166   -7.8769   -0.0272 H   0  0  0  0  0  0  0  0  0  0  0  0
    4.2611   -9.1407    1.1408 H   0  0  0  0  0  0  0  0  0  0  0  0
    5.0615   -7.6048    1.6553 H   0  0  0  0  0  0  0  0  0  0  0  0
    2.8894   -8.3885    2.8530 H   0  0  0  0  0  0  0  0  0  0  0  0
    0.5848   -7.3393    1.4708 H   0  0  0  0  0  0  0  0  0  0  0  0
    0.5874   -5.3489    2.9373 H   0  0  0  0  0  0  0  0  0  0  0  0
   -0.7347   -6.3332    3.1948 H   0  0  0  0  0  0  0  0  0  0  0  0
   -0.3044   -7.5045    6.3333 H   0  0  0  0  0  0  0  0  0  0  0  0
   -1.2923   -6.5460    5.2455 H   0  0  0  0  0  0  0  0  0  0  0  0
   -0.5290   -9.3978    5.0756 H   0  0  0  0  0  0  0  0  0  0  0  0
   -1.7706   -8.5607    4.2190 H   0  0  0  0  0  0  0  0  0  0  0  0
    0.8220   -9.5719    3.1975 H   0  0  0  0  0  0  0  0  0  0  0  0
   -0.3748   -9.4831    1.3442 H   0  0  0  0  0  0  0  0  0  0  0  0
    1.9294   -7.5171    6.4270 H   0  0  0  0  0  0  0  0  0  0  0  0
    3.3421  -10.4934    5.1956 H   0  0  0  0  0  0  0  0  0  0  0  0
    3.1494   -9.5061    6.6496 H   0  0  0  0  0  0  0  0  0  0  0  0
    4.1935   -8.9483    5.3172 H   0  0  0  0  0  0  0  0  0  0  0  0
    3.7826   -6.4199    5.5356 H   0  0  0  0  0  0  0  0  0  0  0  0
    2.4961   -5.8589    2.7461 H   0  0  0  0  0  0  0  0  0  0  0  0
    1.5904   -3.6516    4.1237 H   0  0  0  0  0  0  0  0  0  0  0  0
    2.6540   -3.0053    6.2907 H   0  0  0  0  0  0  0  0  0  0  0  0
    4.0318   -4.0328    5.9679 H   0  0  0  0  0  0  0  0  0  0  0  0
    4.9097   -0.7176    5.4900 H   0  0  0  0  0  0  0  0  0  0  0  0
    1.9302   -1.4537    4.7698 H   0  0  0  0  0  0  0  0  0  0  0  0
    2.4572    0.5523    3.9751 H   0  0  0  0  0  0  0  0  0  0  0  0
    1.6777   -2.1837    2.6365 H   0  0  0  0  0  0  0  0  0  0  0  0
    1.8204   -0.5731    1.1784 H   0  0  0  0  0  0  0  0  0  0  0  0
    3.7315   -1.7525    0.9413 H   0  0  0  0  0  0  0  0  0  0  0  0
    5.9487   -2.1141    2.0668 H   0  0  0  0  0  0  0  0  0  0  0  0
    6.2493   -0.3880    3.1422 H   0  0  0  0  0  0  0  0  0  0  0  0
    6.0389   -2.6757    4.3536 H   0  0  0  0  0  0  0  0  0  0  0  0
    7.3806   -6.2144    4.2705 H   0  0  0  0  0  0  0  0  0  0  0  0
    7.4176   -5.0561    2.9655 H   0  0  0  0  0  0  0  0  0  0  0  0
    6.4750   -6.5094    2.8067 H   0  0  0  0  0  0  0  0  0  0  0  0
    4.6286   -5.5900    1.5882 H   0  0  0  0  0  0  0  0  0  0  0  0
    5.8415   -3.0475    0.3614 H   0  0  0  0  0  0  0  0  0  0  0  0
    6.7592   -5.6871    0.5307 H   0  0  0  0  0  0  0  0  0  0  0  0
    5.3540   -4.1689   -1.6294 H   0  0  0  0  0  0  0  0  0  0  0  0
    4.7332   -5.5687   -0.7942 H   0  0  0  0  0  0  0  0  0  0  0  0
    3.5357   -2.7810   -0.9576 H   0  0  0  0  0  0  0  0  0  0  0  0
    2.8148   -4.2354   -1.5392 H   0  0  0  0  0  0  0  0  0  0  0  0
    1.8328   -3.1966    0.5502 H   0  0  0  0  0  0  0  0  0  0  0  0
    2.5075   -5.9037    0.4517 H   0  0  0  0  0  0  0  0  0  0  0  0
    0.4170   -5.3490    9.1290 H   0  0  0  0  0  0  0  0  0  0  0  0
   -0.2989   -3.7505    8.9529 H   0  0  0  0  0  0  0  0  0  0  0  0
    1.4530   -3.9197    8.9834 H   0  0  0  0  0  0  0  0  0  0  0  0
  1  2  1  0
  1 45  1  0
  1 46  1  0
  1 47  1  0
  2  3  1  0
  3 15  1  0
  3  4  1  0
  3 48  1  1
  4  9  1  0
  4  5  1  0
  4 49  1  6
  5  6  1  0
  5 50  1  0
  5 51  1  0
  6 40  1  0
  6  7  1  1
  6 11  1  0
  7  8  1  0
  7 52  1  0
  7 53  1  0
  8  9  1  0
  8 54  1  0
  8 55  1  0
  9 10  1  0
  9 56  1  1
 10 57  1  0
 11 12  1  0
 11 14  1  0
 11 58  1  1
 12 13  1  0
 13 59  1  0
 13 60  1  0
 13 61  1  0
 14 40  1  0
 14 15  1  0
 14 62  1  1
 15 16  1  0
 15 63  1  1
 16 29  1  1
 39 16  1  1
 16 17  1  0
 17 18  1  0
 17 40  1  0
 17 64  1  6
 18 19  1  0
 18 65  1  0
 18 66  1  0
 19 28  1  0
 19 20  1  1
 19 21  1  0
 20 67  1  0
 21 22  1  0
 21 23  1  0
 21 68  1  1
 22 69  1  0
 23 24  1  0
 23 25  1  0
 23 70  1  1
 24 71  1  0
 25 39  1  0
 25 26  1  0
 25 72  1  6
 26 27  1  0
 26 28  1  0
 26 73  1  6
 27 74  1  0
 28 29  1  0
 28 75  1  1
 29 30  1  1
 29 32  1  0
 30 31  1  0
 31 76  1  0
 31 77  1  0
 31 78  1  0
 32 39  1  0
 32 33  1  0
 32 79  1  1
 33 34  1  0
 33 35  1  0
 33 80  1  1
 34 81  1  0
 35 36  1  0
 35 82  1  0
 35 83  1  0
 36 37  1  0
 36 84  1  0
 36 85  1  0
 37 38  1  0
 37 39  1  0
 37 86  1  6
 38 87  1  0
 40 41  1  1
 41 42  1  0
 42 43  1  0
 42 44  2  0
 43 88  1  0
 43 89  1  0
 43 90  1  0
M  END
>  <i_m_ct_stereo_status>  (72) 
1

>  <s_m_source_file>  (72) 
/var/tmp/pbs.5076255.sched01/tmpfev35gxg/05fxellcm.sdf

>  <i_m_source_file_index>  (72) 
30

>  <i_lp_mmshare_version>  (72) 
48012

>  <i_f3d_flags>  (72) 
0

>  <s_epik_input>  (72) 
W0NIMl0xW0NIMl1bQ0BASF0oW09IXSlbQ0BASF0oW0NIMl0yKVtDQEBIXShPW0NIM10pW0NAQEhdKFtDQEhdKFtDQEBIXTNPW0NIM10pW0NAQF00KFtDQEBdMTIzKU9DKD1PKVtDSDNdKVtDQEBdNTZbQ0BAXTc4W0NASF05W0NASF0oW09IXSlbQ0BIXShbT0hdKVtDQEBdKFtPSF0pKFtDSDJdW0NASF00NSlbQ0BIXShbQ0BASF05W09IXSlbQ0BdNihPW0NIM10pW0NAQEhdN1tDQEBIXShbT0hdKVtDSDJdW0NIMl1bQ0BIXThbT0hd

>  <s_epik_cmdline>  (72) 
J2VwaWtfcHl0aG9uJywgJy1waHQnLCAnMi4wJywgJy1waCcsICc3LjAnLCAnLXRuJywgJzgnLCAnLW1hJywgJzIwMCcsICctaW1hZScsICc8aW5maWxlLm1hZT4nLCAnLW9tYWUnLCAnPG91dGZpbGUubWFlPic=

>  <r_lp_tautomer_probability>  (72) 
1

>  <r_epik_Ionization_Penalty>  (72) 
1.47297e-06

>  <r_epik_Ionization_Penalty_Charging>  (72) 
0

>  <r_epik_Ionization_Penalty_Neutral>  (72) 
1.47297e-06

>  <r_epik_State_Penalty>  (72) 
-0

>  <r_epik_Charging_Adjusted_Penalty>  (72) 
0

>  <i_epik_Tot_Q>  (72) 
0

>  <i_epik_Tot_abs_Q>  (72) 
0

>  <s_epik_Chemistry_Notes>  (72) 
This compound has an ester and may undergo hydrolysis at high or low pH.

>  <s_lp_Force_Field>  (72) 
OPLS3e

>  <r_lp_Energy>  (72) 
304.196

>  <b_lp_Chiralities_Consistent>  (72) 
1

>  <s_lp_Variant>  (72) 
18:0-1

>  <s_i_glide_gridfile>  (72) 
pfpi4k_grid

>  <i_i_glide_lignum>  (72) 
30

>  <i_i_glide_rotatable_bonds>  (72) 
12

>  <r_i_docking_score>  (72) 
-3.628

>  <r_i_glide_ligand_efficiency>  (72) 
-0.0824545

>  <r_i_glide_ligand_efficiency_sa>  (72) 
-0.291093

>  <r_i_glide_ligand_efficiency_ln>  (72) 
-0.758331

>  <r_i_glide_gscore>  (72) 
-3.628

>  <r_i_glide_lipo>  (72) 
-0.248362

>  <r_i_glide_hbond>  (72) 
-0.32

>  <r_i_glide_metal>  (72) 
-0

>  <r_i_glide_rewards>  (72) 
-0.5

>  <r_i_glide_evdw>  (72) 
-23.4507

>  <r_i_glide_ecoul>  (72) 
-9.59009

>  <r_i_glide_erotb>  (72) 
0.0544413

>  <r_i_glide_esite>  (72) 
-0.00303163

>  <r_i_glide_emodel>  (72) 
-42.7832

>  <r_i_glide_energy>  (72) 
-33.0408

>  <r_i_glide_einternal>  (72) 
3.47725

>  <r_i_glide_intrahb_reward>  (72) 
-0.5

>  <i_i_glide_confnum>  (72) 
1

>  <i_i_glide_posenum>  (72) 
9

>  <r_i_glide_eff_state_penalty>  (72) 
0

>  <ligand_id>  (72) 
18

>  <original_smiles>  (72) 
COC1C2CC3(CCC2O)C(OC)C2C1C14C(CC5(O)C(O)C(O)C6C(O)C5C1(OC)C1C(O)CCC(O)C614)C23OC(C)=O

>  <smiles>  (72) 
[H]OC1([H])C([H])([H])C([H])([H])C23C([H])([H])C1([H])C([H])(OC([H])([H])[H])C1([H])C([H])(C2([H])OC([H])([H])[H])C3(OC(=O)C([H])([H])[H])C2([H])C([H])([H])C3(O[H])C([H])(O[H])C([H])(O[H])C4([H])C([H])(O[H])C3([H])C3(OC([H])([H])[H])C5([H])C([H])(O[H])C([H])([H])C([H])([H])C([H])(O[H])C45C123

$$$$
18:0:2
     RDKit          3D

 90 98  0  0  1  0  0  0  0  0999 V2000
    4.8551   -8.5516    3.4931 C   0  0  0  0  0  0  0  0  0  0  0  0
    3.7009   -8.2182    2.7405 O   0  0  0  0  0  0  0  0  0  0  0  0
    2.6073   -7.7317    3.5200 C   0  0  2  0  0  0  0  0  0  0  0  0
    1.1644   -7.9976    2.8095 C   0  0  2  0  0  0  0  0  0  0  0  0
    0.3647   -6.7086    2.7176 C   0  0  0  0  0  0  0  0  0  0  0  0
    0.0759   -6.2549    4.1767 C   0  0  1  0  0  0  0  0  0  0  0  0
   -1.3464   -6.8136    4.3054 C   0  0  0  0  0  0  0  0  0  0  0  0
   -1.2632   -8.3749    4.0320 C   0  0  0  0  0  0  0  0  0  0  0  0
    0.0950   -8.9986    3.4344 C   0  0  1  0  0  0  0  0  0  0  0  0
   -0.2614   -9.9749    2.4800 O   0  0  0  0  0  0  0  0  0  0  0  0
    0.7449   -6.7414    5.5185 C   0  0  1  0  0  0  0  0  0  0  0  0
    0.9664   -8.0869    5.8912 O   0  0  0  0  0  0  0  0  0  0  0  0
    1.6938   -8.2126    7.1020 C   0  0  0  0  0  0  0  0  0  0  0  0
    1.9058   -5.8773    5.1868 C   0  0  1  0  0  0  0  0  0  0  0  0
    2.8810   -6.2259    4.0442 C   0  0  1  0  0  0  0  0  0  0  0  0
    3.1741   -4.7906    3.3691 C   0  0  1  0  0  0  0  0  0  0  0  0
    1.8103   -4.0240    3.7226 C   0  0  2  0  0  0  0  0  0  0  0  0
    2.1643   -2.7317    4.4941 C   0  0  0  0  0  0  0  0  0  0  0  0
    3.1553   -1.8386    3.7833 C   0  0  2  0  0  0  0  0  0  0  0  0
    3.2692   -0.6943    4.6197 O   0  0  0  0  0  0  0  0  0  0  0  0
    2.5235   -1.4227    2.3997 C   0  0  1  0  0  0  0  0  0  0  0  0
    2.7652   -0.0534    2.1082 O   0  0  0  0  0  0  0  0  0  0  0  0
    2.9652   -2.3190    1.2063 C   0  0  1  0  0  0  0  0  0  0  0  0
    3.0776   -1.5852    0.0078 O   0  0  0  0  0  0  0  0  0  0  0  0
    4.2912   -3.0615    1.4443 C   0  0  1  0  0  0  0  0  0  0  0  0
    5.1838   -2.2365    2.4240 C   0  0  1  0  0  0  0  0  0  0  0  0
    5.3754   -0.8590    2.1117 O   0  0  0  0  0  0  0  0  0  0  0  0
    4.5556   -2.5399    3.7582 C   0  0  2  0  0  0  0  0  0  0  0  0
    4.5173   -4.1298    3.8785 C   0  0  1  0  0  0  0  0  0  0  0  0
    4.7329   -4.5315    5.2253 O   0  0  0  0  0  0  0  0  0  0  0  0
    6.0715   -4.5278    5.6939 C   0  0  0  0  0  0  0  0  0  0  0  0
    5.1678   -5.0835    2.7914 C   0  0  2  0  0  0  0  0  0  0  0  0
    6.5185   -5.1004    2.0253 C   0  0  1  0  0  0  0  0  0  0  0  0
    7.5868   -5.5707    2.8180 O   0  0  0  0  0  0  0  0  0  0  0  0
    6.3422   -6.0533    0.8408 C   0  0  0  0  0  0  0  0  0  0  0  0
    5.1398   -5.6848   -0.0631 C   0  0  0  0  0  0  0  0  0  0  0  0
    3.7990   -5.3655    0.6516 C   0  0  1  0  0  0  0  0  0  0  0  0
    3.0950   -6.5585    0.8121 O   0  0  0  0  0  0  0  0  0  0  0  0
    3.9981   -4.5562    1.9657 C   0  0  1  0  0  0  0  0  0  0  0  0
    0.8622   -4.9065    4.6201 C   0  0  1  0  0  0  0  0  0  0  0  0
    0.0177   -4.1394    5.5133 O   0  0  0  0  0  0  0  0  0  0  0  0
    0.3716   -3.6908    6.7444 C   0  0  0  0  0  0  0  0  0  0  0  0
   -0.7185   -2.8806    7.4215 C   0  0  0  0  0  0  0  0  0  0  0  0
    1.4736   -3.8890    7.3053 O   0  0  0  0  0  0  0  0  0  0  0  0
    5.6359   -8.7683    2.7713 H   0  0  0  0  0  0  0  0  0  0  0  0
    4.7036   -9.4594    4.0916 H   0  0  0  0  0  0  0  0  0  0  0  0
    5.2028   -7.7267    4.1059 H   0  0  0  0  0  0  0  0  0  0  0  0
    2.6455   -8.3972    4.3724 H   0  0  0  0  0  0  0  0  0  0  0  0
    1.3647   -8.3278    1.7892 H   0  0  0  0  0  0  0  0  0  0  0  0
    0.8163   -5.9339    2.1071 H   0  0  0  0  0  0  0  0  0  0  0  0
   -0.5380   -6.8987    2.1227 H   0  0  0  0  0  0  0  0  0  0  0  0
   -1.7829   -6.6218    5.2815 H   0  0  0  0  0  0  0  0  0  0  0  0
   -2.0324   -6.3788    3.5749 H   0  0  0  0  0  0  0  0  0  0  0  0
   -1.4534   -8.8795    4.9741 H   0  0  0  0  0  0  0  0  0  0  0  0
   -2.1045   -8.6647    3.3994 H   0  0  0  0  0  0  0  0  0  0  0  0
    0.5771   -9.5948    4.2092 H   0  0  0  0  0  0  0  0  0  0  0  0
   -0.2377   -9.6015    1.5963 H   0  0  0  0  0  0  0  0  0  0  0  0
    0.1898   -6.3459    6.3602 H   0  0  0  0  0  0  0  0  0  0  0  0
    1.8532   -9.2686    7.3029 H   0  0  0  0  0  0  0  0  0  0  0  0
    1.1518   -7.7774    7.9441 H   0  0  0  0  0  0  0  0  0  0  0  0
    2.6690   -7.7324    7.0305 H   0  0  0  0  0  0  0  0  0  0  0  0
    2.4284   -5.5204    6.0751 H   0  0  0  0  0  0  0  0  0  0  0  0
    2.5350   -6.2094    3.0480 H   0  0  0  0  0  0  0  0  0  0  0  0
    1.2665   -3.8110    2.8054 H   0  0  0  0  0  0  0  0  0  0  0  0
    1.2546   -2.1531    4.6562 H   0  0  0  0  0  0  0  0  0  0  0  0
    2.5664   -3.0057    5.4740 H   0  0  0  0  0  0  0  0  0  0  0  0
    2.4457   -0.2315    4.6152 H   0  0  0  0  0  0  0  0  0  0  0  0
    1.4309   -1.4756    2.4715 H   0  0  0  0  0  0  0  0  0  0  0  0
    2.2066    0.1664    1.3752 H   0  0  0  0  0  0  0  0  0  0  0  0
    2.1840   -3.0535    1.0025 H   0  0  0  0  0  0  0  0  0  0  0  0
    2.1748   -1.4210   -0.3113 H   0  0  0  0  0  0  0  0  0  0  0  0
    4.8283   -3.0818    0.4917 H   0  0  0  0  0  0  0  0  0  0  0  0
    6.1933   -2.5893    2.5224 H   0  0  0  0  0  0  0  0  0  0  0  0
    4.5091   -0.4525    2.1222 H   0  0  0  0  0  0  0  0  0  0  0  0
    5.1623   -2.1052    4.5547 H   0  0  0  0  0  0  0  0  0  0  0  0
    6.0663   -4.6366    6.7818 H   0  0  0  0  0  0  0  0  0  0  0  0
    6.5882   -3.5937    5.4708 H   0  0  0  0  0  0  0  0  0  0  0  0
    6.6524   -5.3591    5.2884 H   0  0  0  0  0  0  0  0  0  0  0  0
    5.0032   -6.1054    3.0689 H   0  0  0  0  0  0  0  0  0  0  0  0
    6.8422   -4.1686    1.5705 H   0  0  0  0  0  0  0  0  0  0  0  0
    7.3844   -6.4377    3.1336 H   0  0  0  0  0  0  0  0  0  0  0  0
    7.2608   -6.0577    0.2530 H   0  0  0  0  0  0  0  0  0  0  0  0
    6.2243   -7.0743    1.2125 H   0  0  0  0  0  0  0  0  0  0  0  0
    5.4411   -4.8207   -0.6575 H   0  0  0  0  0  0  0  0  0  0  0  0
    4.9728   -6.4724   -0.7929 H   0  0  0  0  0  0  0  0  0  0  0  0
    3.1926   -4.8026   -0.0674 H   0  0  0  0  0  0  0  0  0  0  0  0
    3.6107   -7.1607    1.3383 H   0  0  0  0  0  0  0  0  0  0  0  0
   -0.9236   -1.9549    6.8704 H   0  0  0  0  0  0  0  0  0  0  0  0
   -0.3766   -2.5954    8.4144 H   0  0  0  0  0  0  0  0  0  0  0  0
   -1.6585   -3.4414    7.5407 H   0  0  0  0  0  0  0  0  0  0  0  0
  1  2  1  0
  1 45  1  0
  1 46  1  0
  1 47  1  0
  2  3  1  0
  3 15  1  0
  3  4  1  0
  3 48  1  1
  4  9  1  0
  4  5  1  0
  4 49  1  6
  5  6  1  0
  5 50  1  0
  5 51  1  0
  6 40  1  0
  6  7  1  1
  6 11  1  0
  7  8  1  0
  7 52  1  0
  7 53  1  0
  8  9  1  0
  8 54  1  0
  8 55  1  0
  9 10  1  0
  9 56  1  1
 10 57  1  0
 11 12  1  0
 11 14  1  0
 11 58  1  1
 12 13  1  0
 13 59  1  0
 13 60  1  0
 13 61  1  0
 14 40  1  0
 14 15  1  0
 14 62  1  1
 15 16  1  0
 15 63  1  1
 16 29  1  1
 39 16  1  1
 16 17  1  0
 17 18  1  0
 17 40  1  0
 17 64  1  6
 18 19  1  0
 18 65  1  0
 18 66  1  0
 19 28  1  0
 19 20  1  1
 19 21  1  0
 20 67  1  0
 21 22  1  0
 21 23  1  0
 21 68  1  1
 22 69  1  0
 23 24  1  0
 23 25  1  0
 23 70  1  6
 24 71  1  0
 25 39  1  0
 25 26  1  0
 25 72  1  6
 26 27  1  0
 26 28  1  0
 26 73  1  1
 27 74  1  0
 28 29  1  0
 28 75  1  1
 29 30  1  1
 29 32  1  0
 30 31  1  0
 31 76  1  0
 31 77  1  0
 31 78  1  0
 32 39  1  0
 32 33  1  0
 32 79  1  1
 33 34  1  0
 33 35  1  0
 33 80  1  6
 34 81  1  0
 35 36  1  0
 35 82  1  0
 35 83  1  0
 36 37  1  0
 36 84  1  0
 36 85  1  0
 37 38  1  0
 37 39  1  0
 37 86  1  6
 38 87  1  0
 40 41  1  1
 41 42  1  0
 42 43  1  0
 42 44  2  0
 43 88  1  0
 43 89  1  0
 43 90  1  0
M  END
>  <i_m_ct_stereo_status>  (73) 
1

>  <s_m_source_file>  (73) 
/var/tmp/pbs.5076255.sched01/tmpfev35gxg/05fxellcm.sdf

>  <i_m_source_file_index>  (73) 
30

>  <i_lp_mmshare_version>  (73) 
48012

>  <i_f3d_flags>  (73) 
0

>  <s_epik_input>  (73) 
W0NIMl0xW0NIMl1bQ0BASF0oW09IXSlbQ0BASF0oW0NIMl0yKVtDQEBIXShPW0NIM10pW0NAQEhdKFtDQEhdKFtDQEBIXTNPW0NIM10pW0NAQF00KFtDQEBdMTIzKU9DKD1PKVtDSDNdKVtDQEBdNTZbQ0BAXTc4W0NASF05W0NASF0oW09IXSlbQ0BIXShbT0hdKVtDQEBdKFtPSF0pKFtDSDJdW0NASF00NSlbQ0BIXShbQ0BASF05W09IXSlbQ0BdNihPW0NIM10pW0NAQEhdN1tDQEBIXShbT0hdKVtDSDJdW0NIMl1bQ0BIXThbT0hd

>  <s_epik_cmdline>  (73) 
J2VwaWtfcHl0aG9uJywgJy1waHQnLCAnMi4wJywgJy1waCcsICc3LjAnLCAnLXRuJywgJzgnLCAnLW1hJywgJzIwMCcsICctaW1hZScsICc8aW5maWxlLm1hZT4nLCAnLW9tYWUnLCAnPG91dGZpbGUubWFlPic=

>  <r_lp_tautomer_probability>  (73) 
1

>  <r_epik_Ionization_Penalty>  (73) 
1.47297e-06

>  <r_epik_Ionization_Penalty_Charging>  (73) 
0

>  <r_epik_Ionization_Penalty_Neutral>  (73) 
1.47297e-06

>  <r_epik_State_Penalty>  (73) 
-0

>  <r_epik_Charging_Adjusted_Penalty>  (73) 
0

>  <i_epik_Tot_Q>  (73) 
0

>  <i_epik_Tot_abs_Q>  (73) 
0

>  <s_epik_Chemistry_Notes>  (73) 
This compound has an ester and may undergo hydrolysis at high or low pH.

>  <s_lp_Force_Field>  (73) 
OPLS3e

>  <r_lp_Energy>  (73) 
304.196

>  <b_lp_Chiralities_Consistent>  (73) 
1

>  <s_lp_Variant>  (73) 
18:0-1

>  <s_i_glide_gridfile>  (73) 
pfpi4k_grid

>  <i_i_glide_lignum>  (73) 
30

>  <i_i_glide_rotatable_bonds>  (73) 
12

>  <r_i_docking_score>  (73) 
-3.49333

>  <r_i_glide_ligand_efficiency>  (73) 
-0.0793939

>  <r_i_glide_ligand_efficiency_sa>  (73) 
-0.280288

>  <r_i_glide_ligand_efficiency_ln>  (73) 
-0.730183

>  <r_i_glide_gscore>  (73) 
-3.49333

>  <r_i_glide_lipo>  (73) 
-0.286451

>  <r_i_glide_hbond>  (73) 
-0.304

>  <r_i_glide_metal>  (73) 
-0

>  <r_i_glide_rewards>  (73) 
-0.5

>  <r_i_glide_evdw>  (73) 
-24.1212

>  <r_i_glide_ecoul>  (73) 
-8.27814

>  <r_i_glide_erotb>  (73) 
0.0544413

>  <r_i_glide_esite>  (73) 
-0.00953994

>  <r_i_glide_emodel>  (73) 
-35.813

>  <r_i_glide_energy>  (73) 
-32.3994

>  <r_i_glide_einternal>  (73) 
13.4087

>  <r_i_glide_intrahb_reward>  (73) 
-0.5

>  <i_i_glide_confnum>  (73) 
3

>  <i_i_glide_posenum>  (73) 
18

>  <r_i_glide_eff_state_penalty>  (73) 
0

>  <ligand_id>  (73) 
18

>  <original_smiles>  (73) 
COC1C2CC3(CCC2O)C(OC)C2C1C14C(CC5(O)C(O)C(O)C6C(O)C5C1(OC)C1C(O)CCC(O)C614)C23OC(C)=O

>  <smiles>  (73) 
[H]OC1([H])C([H])([H])C([H])([H])C23C([H])([H])C1([H])C([H])(OC([H])([H])[H])C1([H])C([H])(C2([H])OC([H])([H])[H])C3(OC(=O)C([H])([H])[H])C2([H])C([H])([H])C3(O[H])C([H])(O[H])C([H])(O[H])C4([H])C([H])(O[H])C3([H])C3(OC([H])([H])[H])C5([H])C([H])(O[H])C([H])([H])C([H])([H])C([H])(O[H])C45C123

$$$$
19:0:0
     RDKit          3D

 59 64  0  0  1  0  0  0  0  0999 V2000
    4.8266   -0.3942    0.6890 C   0  0  0  0  0  0  0  0  0  0  0  0
    4.9144   -1.7616   -0.0376 C   0  0  1  0  0  0  0  0  0  0  0  0
    6.0673   -2.6870    0.5409 C   0  0  0  0  0  0  0  0  0  0  0  0
    6.0481   -3.3717    1.9190 C   0  0  1  0  0  0  0  0  0  0  0  0
    5.6551   -2.3493    2.9919 C   0  0  0  0  0  0  0  0  0  0  0  0
    4.2247   -2.3652    3.2191 N   0  0  0  0  0  0  0  0  0  0  0  0
    3.6215   -3.7031    3.1087 C   0  0  2  0  0  0  0  0  0  0  0  0
    4.6808   -4.7518    3.4763 C   0  0  0  0  0  0  0  0  0  0  0  0
    5.5402   -4.8720    2.2094 C   0  0  2  0  0  0  0  0  0  0  0  0
    6.7437   -5.7968    2.5813 C   0  0  0  0  0  0  0  0  0  0  0  0
    4.6249   -5.5752    1.1155 C   0  0  1  0  0  0  0  0  0  0  0  0
    5.4378   -6.1118    0.1200 O   0  0  0  0  0  0  0  0  0  0  0  0
    3.7519   -6.7823    1.6635 C   0  0  0  0  0  0  0  0  0  0  0  0
    2.5001   -6.3982    2.3963 N   0  0  0  0  0  0  0  0  0  0  0  0
    1.8445   -5.0981    2.0656 C   0  0  0  0  0  0  0  0  0  0  0  0
    2.8870   -3.9911    1.7211 C   0  0  1  0  0  0  0  0  0  0  0  0
    2.5306   -2.6161    1.0818 C   0  0  0  0  0  0  0  0  0  0  0  0
    3.4890   -2.3699   -0.1311 C   0  0  2  0  0  0  0  0  0  0  0  0
    3.5927   -3.7348   -0.7584 C   0  0  1  0  0  0  0  0  0  0  0  0
    2.3364   -3.8470   -1.4212 O   0  0  0  0  0  0  0  0  0  0  0  0
    4.6443   -3.9039   -1.8960 C   0  0  0  0  0  0  0  0  0  0  0  0
    4.9972   -2.5855   -2.5504 C   0  0  0  0  0  0  0  0  0  0  0  0
    5.3675   -1.5069   -1.5233 C   0  0  1  0  0  0  0  0  0  0  0  0
    4.8326   -0.3265   -2.0820 O   0  0  0  0  0  0  0  0  0  0  0  0
    3.5562   -4.6836    0.4936 C   0  0  1  0  0  0  0  0  0  0  0  0
    5.8002    0.0883    0.7532 H   0  0  0  0  0  0  0  0  0  0  0  0
    4.4074   -0.4344    1.6858 H   0  0  0  0  0  0  0  0  0  0  0  0
    4.1547    0.2928    0.1807 H   0  0  0  0  0  0  0  0  0  0  0  0
    6.4268   -3.4361   -0.1477 H   0  0  0  0  0  0  0  0  0  0  0  0
    6.9334   -2.0271    0.5778 H   0  0  0  0  0  0  0  0  0  0  0  0
    7.1152   -3.4828    2.0681 H   0  0  0  0  0  0  0  0  0  0  0  0
    6.1146   -2.6323    3.9275 H   0  0  0  0  0  0  0  0  0  0  0  0
    6.0612   -1.3657    2.8003 H   0  0  0  0  0  0  0  0  0  0  0  0
    4.0551   -1.9796    4.1432 H   0  0  0  0  0  0  0  0  0  0  0  0
    2.8736   -3.7001    3.8913 H   0  0  0  0  0  0  0  0  0  0  0  0
    5.2587   -4.4584    4.3522 H   0  0  0  0  0  0  0  0  0  0  0  0
    4.2829   -5.6884    3.8418 H   0  0  0  0  0  0  0  0  0  0  0  0
    6.4260   -6.8067    2.8393 H   0  0  0  0  0  0  0  0  0  0  0  0
    7.2999   -5.4431    3.4493 H   0  0  0  0  0  0  0  0  0  0  0  0
    7.4645   -5.8830    1.7670 H   0  0  0  0  0  0  0  0  0  0  0  0
    4.9109   -6.4919   -0.5621 H   0  0  0  0  0  0  0  0  0  0  0  0
    3.4419   -7.4028    0.8281 H   0  0  0  0  0  0  0  0  0  0  0  0
    4.3405   -7.4466    2.2831 H   0  0  0  0  0  0  0  0  0  0  0  0
    1.8258   -7.1552    2.3029 H   0  0  0  0  0  0  0  0  0  0  0  0
    1.1966   -5.3019    1.2190 H   0  0  0  0  0  0  0  0  0  0  0  0
    1.1814   -4.7896    2.8677 H   0  0  0  0  0  0  0  0  0  0  0  0
    1.5362   -2.6566    0.6536 H   0  0  0  0  0  0  0  0  0  0  0  0
    2.4175   -1.7584    1.7388 H   0  0  0  0  0  0  0  0  0  0  0  0
    2.9577   -1.7013   -0.8090 H   0  0  0  0  0  0  0  0  0  0  0  0
    2.4197   -4.5459   -2.0737 H   0  0  0  0  0  0  0  0  0  0  0  0
    5.5457   -4.4240   -1.6013 H   0  0  0  0  0  0  0  0  0  0  0  0
    4.2872   -4.5428   -2.6926 H   0  0  0  0  0  0  0  0  0  0  0  0
    5.8081   -2.7280   -3.2620 H   0  0  0  0  0  0  0  0  0  0  0  0
    4.1349   -2.2763   -3.1470 H   0  0  0  0  0  0  0  0  0  0  0  0
    6.4497   -1.4318   -1.5384 H   0  0  0  0  0  0  0  0  0  0  0  0
    5.0107    0.4111   -1.5133 H   0  0  0  0  0  0  0  0  0  0  0  0
    2.9010   -5.4252    0.0255 H   0  0  0  0  0  0  0  0  0  0  0  0
    3.8001   -1.7646    2.5214 H   0  0  0  0  0  0  0  0  0  0  0  0
    2.7511   -6.3481    3.3774 H   0  0  0  0  0  0  0  0  0  0  0  0
  2  1  1  1
  1 26  1  0
  1 27  1  0
  1 28  1  0
  2 18  1  0
  2 23  1  0
  2  3  1  0
  3  4  1  0
  3 29  1  0
  3 30  1  0
  4  9  1  0
  4  5  1  0
  4 31  1  1
  5  6  1  0
  5 32  1  0
  5 33  1  0
  6  7  1  0
  6 34  1  0
  6 58  1  0
  7 16  1  0
  7  8  1  0
  7 35  1  1
  8  9  1  0
  8 36  1  0
  8 37  1  0
  9 10  1  1
  9 11  1  0
 10 38  1  0
 10 39  1  0
 10 40  1  0
 11 25  1  0
 11 12  1  6
 11 13  1  0
 12 41  1  0
 13 14  1  0
 13 42  1  0
 13 43  1  0
 14 15  1  0
 14 44  1  0
 14 59  1  0
 16 15  1  1
 15 45  1  0
 15 46  1  0
 16 25  1  0
 16 17  1  0
 17 18  1  0
 17 47  1  0
 17 48  1  0
 18 19  1  0
 18 49  1  6
 19 20  1  6
 19 21  1  0
 19 25  1  0
 20 50  1  0
 21 22  1  0
 21 51  1  0
 21 52  1  0
 22 23  1  0
 22 53  1  0
 22 54  1  0
 23 24  1  0
 23 55  1  1
 24 56  1  0
 25 57  1  6
M  CHG  2   6   1  14   1
M  END
>  <i_m_ct_stereo_status>  (74) 
1

>  <s_m_source_file>  (74) 
/var/tmp/pbs.5076255.sched01/tmpfev35gxg/05fxellcm.sdf

>  <i_m_source_file_index>  (74) 
31

>  <i_lp_mmshare_version>  (74) 
48012

>  <i_f3d_flags>  (74) 
0

>  <s_epik_input>  (74) 
W0NIMl0xW0NIMl1bQ0BASF0oW09IXSlbQ0BdKFtDSDNdKShbQ0gyXTIpW0NASF0oW0NIMl0zKVtDQF0xKFtPSF0pW0NASF00W0NAXShbT0hdKShbQ0gyXVtOSF1bQ0gyXTUpW0NAQF0oW0NIMl02KShbQ0gzXSlbQ0BASF0yW0NIMl1bTkhdW0NASF02W0NAQF0zNDU=

>  <s_epik_cmdline>  (74) 
J2VwaWtfcHl0aG9uJywgJy1waHQnLCAnMi4wJywgJy1waCcsICc3LjAnLCAnLXRuJywgJzgnLCAnLW1hJywgJzIwMCcsICctaW1hZScsICc8aW5maWxlLm1hZT4nLCAnLW9tYWUnLCAnPG91dGZpbGUubWFlPic=

>  <r_epik_Ionization_Penalty>  (74) 
0.0160745

>  <r_epik_Ionization_Penalty_Charging>  (74) 
0.0160739

>  <r_epik_Ionization_Penalty_Neutral>  (74) 
6.07183e-07

>  <r_epik_State_Penalty>  (74) 
0.0108785

>  <r_epik_Charging_Adjusted_Penalty>  (74) 
0.0269524

>  <i_epik_Tot_Q>  (74) 
2

>  <i_epik_Tot_abs_Q>  (74) 
2

>  <s_lp_Force_Field>  (74) 
OPLS3e

>  <r_lp_Energy>  (74) 
150.207

>  <b_lp_Chiralities_Consistent>  (74) 
1

>  <s_lp_Variant>  (74) 
19:0-1

>  <s_i_glide_gridfile>  (74) 
pfpi4k_grid

>  <i_i_glide_lignum>  (74) 
31

>  <i_i_glide_rotatable_bonds>  (74) 
3

>  <r_i_docking_score>  (74) 
-4.23287

>  <r_i_glide_ligand_efficiency>  (74) 
-0.169315

>  <r_i_glide_ligand_efficiency_sa>  (74) 
-0.49508

>  <r_i_glide_ligand_efficiency_ln>  (74) 
-1.00332

>  <r_i_glide_gscore>  (74) 
-4.23287

>  <r_i_glide_lipo>  (74) 
-0.6275

>  <r_i_glide_hbond>  (74) 
-0.608

>  <r_i_glide_metal>  (74) 
-0

>  <r_i_glide_rewards>  (74) 
-1.01935

>  <r_i_glide_evdw>  (74) 
-8.67015

>  <r_i_glide_ecoul>  (74) 
-10.2495

>  <r_i_glide_erotb>  (74) 
0

>  <r_i_glide_esite>  (74) 
-0.00708852

>  <r_i_glide_emodel>  (74) 
-19.5683

>  <r_i_glide_energy>  (74) 
-18.9197

>  <r_i_glide_einternal>  (74) 
0.811371

>  <r_i_glide_intrahb_reward>  (74) 
-0

>  <i_i_glide_confnum>  (74) 
2

>  <i_i_glide_posenum>  (74) 
18

>  <r_i_glide_eff_state_penalty>  (74) 
0

>  <ligand_id>  (74) 
19

>  <original_smiles>  (74) 
CC12CC3CNC4CC3(C)C3(O)CNCC45CC1C(O)(CCC2O)C53

>  <smiles>  (74) 
[H]OC1([H])C([H])([H])C([H])([H])C2(O[H])C3([H])C([H])([H])C45C2([H])C(O[H])(C2(C([H])([H])[H])C([H])([H])C4([H])[N+]([H])([H])C([H])([H])C2([H])C([H])([H])C13C([H])([H])[H])C([H])([H])[N+]([H])([H])C5([H])[H]

$$$$
19:0:1
     RDKit          3D

 59 64  0  0  1  0  0  0  0  0999 V2000
    4.7930   -0.3423    0.5948 C   0  0  0  0  0  0  0  0  0  0  0  0
    4.8747   -1.7193   -0.1115 C   0  0  1  0  0  0  0  0  0  0  0  0
    6.0409   -2.6268    0.4788 C   0  0  0  0  0  0  0  0  0  0  0  0
    6.0395   -3.2867    1.8701 C   0  0  1  0  0  0  0  0  0  0  0  0
    5.6525   -2.2407    2.9247 C   0  0  0  0  0  0  0  0  0  0  0  0
    4.2214   -2.2591    3.1669 N   0  0  0  0  0  0  0  0  0  0  0  0
    3.6199   -3.6010    3.0859 C   0  0  2  0  0  0  0  0  0  0  0  0
    4.6854   -4.6404    3.4647 C   0  0  0  0  0  0  0  0  0  0  0  0
    5.5361   -4.7815    2.1921 C   0  0  2  0  0  0  0  0  0  0  0  0
    6.7417   -5.6961    2.5725 C   0  0  0  0  0  0  0  0  0  0  0  0
    4.6156   -5.5089    1.1197 C   0  0  1  0  0  0  0  0  0  0  0  0
    5.4261   -6.0515    0.1204 O   0  0  0  0  0  0  0  0  0  0  0  0
    3.7501   -6.7106    1.6935 C   0  0  0  0  0  0  0  0  0  0  0  0
    2.5012   -6.3229    2.4338 N   0  0  0  0  0  0  0  0  0  0  0  0
    1.8403   -5.0301    2.0839 C   0  0  0  0  0  0  0  0  0  0  0  0
    2.8738   -3.9234    1.7127 C   0  0  1  0  0  0  0  0  0  0  0  0
    2.5058   -2.5666    1.0466 C   0  0  0  0  0  0  0  0  0  0  0  0
    3.4530   -2.3355   -0.1802 C   0  0  2  0  0  0  0  0  0  0  0  0
    3.5648   -3.7098   -0.7811 C   0  0  1  0  0  0  0  0  0  0  0  0
    2.3020   -3.8362   -1.4290 O   0  0  0  0  0  0  0  0  0  0  0  0
    4.6123   -3.8987   -1.9257 C   0  0  0  0  0  0  0  0  0  0  0  0
    4.9478   -2.5936   -2.6129 C   0  0  0  0  0  0  0  0  0  0  0  0
    5.3121   -1.4851   -1.6160 C   0  0  1  0  0  0  0  0  0  0  0  0
    4.8102   -0.3132   -2.2310 O   0  0  0  0  0  0  0  0  0  0  0  0
    3.5400   -4.6312    0.4903 C   0  0  1  0  0  0  0  0  0  0  0  0
    5.7688    0.1413    0.6400 H   0  0  0  0  0  0  0  0  0  0  0  0
    4.3779   -0.3596    1.5946 H   0  0  0  0  0  0  0  0  0  0  0  0
    4.1265    0.3405    0.0776 H   0  0  0  0  0  0  0  0  0  0  0  0
    6.3987   -3.3863   -0.1964 H   0  0  0  0  0  0  0  0  0  0  0  0
    6.9042   -1.9604    0.4960 H   0  0  0  0  0  0  0  0  0  0  0  0
    7.1079   -3.3937    2.0089 H   0  0  0  0  0  0  0  0  0  0  0  0
    6.1182   -2.5005    3.8637 H   0  0  0  0  0  0  0  0  0  0  0  0
    6.0531   -1.2574    2.7145 H   0  0  0  0  0  0  0  0  0  0  0  0
    4.0552   -1.8572    4.0815 H   0  0  0  0  0  0  0  0  0  0  0  0
    2.8777   -3.5862    3.8761 H   0  0  0  0  0  0  0  0  0  0  0  0
    5.2665   -4.3270    4.3311 H   0  0  0  0  0  0  0  0  0  0  0  0
    4.2916   -5.5721    3.8503 H   0  0  0  0  0  0  0  0  0  0  0  0
    6.4313   -6.7019    2.8513 H   0  0  0  0  0  0  0  0  0  0  0  0
    7.2953   -5.3223    3.4315 H   0  0  0  0  0  0  0  0  0  0  0  0
    7.4596   -5.7924    1.7581 H   0  0  0  0  0  0  0  0  0  0  0  0
    4.9020   -6.2890   -0.6262 H   0  0  0  0  0  0  0  0  0  0  0  0
    3.4375   -7.3479    0.8702 H   0  0  0  0  0  0  0  0  0  0  0  0
    4.3452   -7.3622    2.3207 H   0  0  0  0  0  0  0  0  0  0  0  0
    1.8309   -7.0797    2.3588 H   0  0  0  0  0  0  0  0  0  0  0  0
    1.1883   -5.2500    1.2444 H   0  0  0  0  0  0  0  0  0  0  0  0
    1.1805   -4.7102    2.8833 H   0  0  0  0  0  0  0  0  0  0  0  0
    1.5071   -2.6465    0.6362 H   0  0  0  0  0  0  0  0  0  0  0  0
    2.3919   -1.6953    1.6865 H   0  0  0  0  0  0  0  0  0  0  0  0
    2.9100   -1.6846   -0.8644 H   0  0  0  0  0  0  0  0  0  0  0  0
    2.3649   -4.5736   -2.0424 H   0  0  0  0  0  0  0  0  0  0  0  0
    5.5241   -4.4103   -1.6327 H   0  0  0  0  0  0  0  0  0  0  0  0
    4.2504   -4.5429   -2.7131 H   0  0  0  0  0  0  0  0  0  0  0  0
    5.7609   -2.7438   -3.3206 H   0  0  0  0  0  0  0  0  0  0  0  0
    4.0811   -2.3093   -3.2099 H   0  0  0  0  0  0  0  0  0  0  0  0
    6.3958   -1.4136   -1.6300 H   0  0  0  0  0  0  0  0  0  0  0  0
    3.8707   -0.2868   -2.1359 H   0  0  0  0  0  0  0  0  0  0  0  0
    2.8844   -5.3868    0.0431 H   0  0  0  0  0  0  0  0  0  0  0  0
    3.7886   -1.6735    2.4599 H   0  0  0  0  0  0  0  0  0  0  0  0
    2.7579   -6.2496    3.4097 H   0  0  0  0  0  0  0  0  0  0  0  0
  2  1  1  1
  1 26  1  0
  1 27  1  0
  1 28  1  0
  2 18  1  0
  2 23  1  0
  2  3  1  0
  3  4  1  0
  3 29  1  0
  3 30  1  0
  4  9  1  0
  4  5  1  0
  4 31  1  1
  5  6  1  0
  5 32  1  0
  5 33  1  0
  6  7  1  0
  6 34  1  0
  6 58  1  0
  7 16  1  0
  7  8  1  0
  7 35  1  1
  8  9  1  0
  8 36  1  0
  8 37  1  0
  9 10  1  1
  9 11  1  0
 10 38  1  0
 10 39  1  0
 10 40  1  0
 11 25  1  0
 11 12  1  6
 11 13  1  0
 12 41  1  0
 13 14  1  0
 13 42  1  0
 13 43  1  0
 14 15  1  0
 14 44  1  0
 14 59  1  0
 16 15  1  1
 15 45  1  0
 15 46  1  0
 16 25  1  0
 16 17  1  0
 17 18  1  0
 17 47  1  0
 17 48  1  0
 18 19  1  0
 18 49  1  6
 19 20  1  6
 19 21  1  0
 19 25  1  0
 20 50  1  0
 21 22  1  0
 21 51  1  0
 21 52  1  0
 22 23  1  0
 22 53  1  0
 22 54  1  0
 23 24  1  0
 23 55  1  1
 24 56  1  0
 25 57  1  6
M  CHG  2   6   1  14   1
M  END
>  <i_m_ct_stereo_status>  (75) 
1

>  <s_m_source_file>  (75) 
/var/tmp/pbs.5076255.sched01/tmpfev35gxg/05fxellcm.sdf

>  <i_m_source_file_index>  (75) 
31

>  <i_lp_mmshare_version>  (75) 
48012

>  <i_f3d_flags>  (75) 
0

>  <s_epik_input>  (75) 
W0NIMl0xW0NIMl1bQ0BASF0oW09IXSlbQ0BdKFtDSDNdKShbQ0gyXTIpW0NASF0oW0NIMl0zKVtDQF0xKFtPSF0pW0NASF00W0NAXShbT0hdKShbQ0gyXVtOSF1bQ0gyXTUpW0NAQF0oW0NIMl02KShbQ0gzXSlbQ0BASF0yW0NIMl1bTkhdW0NASF02W0NAQF0zNDU=

>  <s_epik_cmdline>  (75) 
J2VwaWtfcHl0aG9uJywgJy1waHQnLCAnMi4wJywgJy1waCcsICc3LjAnLCAnLXRuJywgJzgnLCAnLW1hJywgJzIwMCcsICctaW1hZScsICc8aW5maWxlLm1hZT4nLCAnLW9tYWUnLCAnPG91dGZpbGUubWFlPic=

>  <r_epik_Ionization_Penalty>  (75) 
0.0160745

>  <r_epik_Ionization_Penalty_Charging>  (75) 
0.0160739

>  <r_epik_Ionization_Penalty_Neutral>  (75) 
6.07183e-07

>  <r_epik_State_Penalty>  (75) 
0.0108785

>  <r_epik_Charging_Adjusted_Penalty>  (75) 
0.0269524

>  <i_epik_Tot_Q>  (75) 
2

>  <i_epik_Tot_abs_Q>  (75) 
2

>  <s_lp_Force_Field>  (75) 
OPLS3e

>  <r_lp_Energy>  (75) 
150.207

>  <b_lp_Chiralities_Consistent>  (75) 
1

>  <s_lp_Variant>  (75) 
19:0-1

>  <s_i_glide_gridfile>  (75) 
pfpi4k_grid

>  <i_i_glide_lignum>  (75) 
31

>  <i_i_glide_rotatable_bonds>  (75) 
3

>  <r_i_docking_score>  (75) 
-3.55989

>  <r_i_glide_ligand_efficiency>  (75) 
-0.142396

>  <r_i_glide_ligand_efficiency_sa>  (75) 
-0.416367

>  <r_i_glide_ligand_efficiency_ln>  (75) 
-0.8438

>  <r_i_glide_gscore>  (75) 
-3.55989

>  <r_i_glide_lipo>  (75) 
-0.639551

>  <r_i_glide_hbond>  (75) 
-0.32

>  <r_i_glide_metal>  (75) 
-0

>  <r_i_glide_rewards>  (75) 
-1.01935

>  <r_i_glide_evdw>  (75) 
-8.82074

>  <r_i_glide_ecoul>  (75) 
-7.5534

>  <r_i_glide_erotb>  (75) 
0

>  <r_i_glide_esite>  (75) 
-0.00694135

>  <r_i_glide_emodel>  (75) 
-16.9639

>  <r_i_glide_energy>  (75) 
-16.3741

>  <r_i_glide_einternal>  (75) 
0.398209

>  <r_i_glide_intrahb_reward>  (75) 
-0

>  <i_i_glide_confnum>  (75) 
1

>  <i_i_glide_posenum>  (75) 
1

>  <r_i_glide_eff_state_penalty>  (75) 
0

>  <ligand_id>  (75) 
19

>  <original_smiles>  (75) 
CC12CC3CNC4CC3(C)C3(O)CNCC45CC1C(O)(CCC2O)C53

>  <smiles>  (75) 
[H]OC1([H])C([H])([H])C([H])([H])C2(O[H])C3([H])C([H])([H])C45C2([H])C(O[H])(C2(C([H])([H])[H])C([H])([H])C4([H])[N+]([H])([H])C([H])([H])C2([H])C([H])([H])C13C([H])([H])[H])C([H])([H])[N+]([H])([H])C5([H])[H]

$$$$
19:0:2
     RDKit          3D

 59 64  0  0  1  0  0  0  0  0999 V2000
    4.6963   -0.2648    0.5546 C   0  0  0  0  0  0  0  0  0  0  0  0
    4.8131   -1.6396   -0.1564 C   0  0  1  0  0  0  0  0  0  0  0  0
    6.0138   -2.4994    0.4250 C   0  0  0  0  0  0  0  0  0  0  0  0
    6.0493   -3.1428    1.8269 C   0  0  1  0  0  0  0  0  0  0  0  0
    5.6468   -2.1015    2.8807 C   0  0  0  0  0  0  0  0  0  0  0  0
    4.2041   -2.1656    3.1337 N   0  0  0  0  0  0  0  0  0  0  0  0
    3.6515   -3.5376    3.0725 C   0  0  2  0  0  0  0  0  0  0  0  0
    4.7577   -4.5301    3.4495 C   0  0  0  0  0  0  0  0  0  0  0  0
    5.6035   -4.6558    2.1670 C   0  0  2  0  0  0  0  0  0  0  0  0
    6.8411   -5.5266    2.5339 C   0  0  0  0  0  0  0  0  0  0  0  0
    4.6979   -5.4242    1.1127 C   0  0  1  0  0  0  0  0  0  0  0  0
    5.5049   -5.9451    0.1017 O   0  0  0  0  0  0  0  0  0  0  0  0
    3.8791   -6.6466    1.7043 C   0  0  0  0  0  0  0  0  0  0  0  0
    2.6150   -6.2922    2.4534 N   0  0  0  0  0  0  0  0  0  0  0  0
    1.8963   -5.0248    2.0870 C   0  0  0  0  0  0  0  0  0  0  0  0
    2.8983   -3.8908    1.7115 C   0  0  1  0  0  0  0  0  0  0  0  0
    2.4860   -2.5513    1.0375 C   0  0  0  0  0  0  0  0  0  0  0  0
    3.4201   -2.3118   -0.1997 C   0  0  2  0  0  0  0  0  0  0  0  0
    3.5672   -3.6873   -0.7872 C   0  0  1  0  0  0  0  0  0  0  0  0
    2.3033   -3.8566   -1.4267 O   0  0  0  0  0  0  0  0  0  0  0  0
    4.6039   -3.8591   -1.9513 C   0  0  0  0  0  0  0  0  0  0  0  0
    4.8869   -2.5490   -2.6492 C   0  0  0  0  0  0  0  0  0  0  0  0
    5.2176   -1.4203   -1.6687 C   0  0  1  0  0  0  0  0  0  0  0  0
    4.6492   -0.3040   -2.3048 O   0  0  0  0  0  0  0  0  0  0  0  0
    3.5838   -4.5914    0.4913 C   0  0  1  0  0  0  0  0  0  0  0  0
    5.6527    0.2523    0.5762 H   0  0  0  0  0  0  0  0  0  0  0  0
    4.3065   -0.2948    1.5641 H   0  0  0  0  0  0  0  0  0  0  0  0
    3.9813    0.3893    0.0818 H   0  0  0  0  0  0  0  0  0  0  0  0
    6.3918   -3.2576   -0.2434 H   0  0  0  0  0  0  0  0  0  0  0  0
    6.8542   -1.8054    0.4313 H   0  0  0  0  0  0  0  0  0  0  0  0
    7.1245   -3.2096    1.9496 H   0  0  0  0  0  0  0  0  0  0  0  0
    6.1256   -2.3327    3.8168 H   0  0  0  0  0  0  0  0  0  0  0  0
    6.0034   -1.1031    2.6544 H   0  0  0  0  0  0  0  0  0  0  0  0
    4.0377   -1.7654    4.0415 H   0  0  0  0  0  0  0  0  0  0  0  0
    2.9167   -3.5365    3.8709 H   0  0  0  0  0  0  0  0  0  0  0  0
    5.3404   -4.1867    4.3080 H   0  0  0  0  0  0  0  0  0  0  0  0
    4.4023   -5.4732    3.8462 H   0  0  0  0  0  0  0  0  0  0  0  0
    6.5695   -6.5366    2.8354 H   0  0  0  0  0  0  0  0  0  0  0  0
    7.3845   -5.1185    3.3815 H   0  0  0  0  0  0  0  0  0  0  0  0
    7.5584   -5.6004    1.7174 H   0  0  0  0  0  0  0  0  0  0  0  0
    6.0984   -6.5728    0.4840 H   0  0  0  0  0  0  0  0  0  0  0  0
    3.5775   -7.2956    0.8847 H   0  0  0  0  0  0  0  0  0  0  0  0
    4.4955   -7.2743    2.3407 H   0  0  0  0  0  0  0  0  0  0  0  0
    1.9760   -7.0727    2.3942 H   0  0  0  0  0  0  0  0  0  0  0  0
    1.2432   -5.2716    1.2546 H   0  0  0  0  0  0  0  0  0  0  0  0
    1.2396   -4.7226    2.9012 H   0  0  0  0  0  0  0  0  0  0  0  0
    1.4872   -2.6600    0.6327 H   0  0  0  0  0  0  0  0  0  0  0  0
    2.3534   -1.6787    1.6739 H   0  0  0  0  0  0  0  0  0  0  0  0
    2.8500   -1.6795   -0.8772 H   0  0  0  0  0  0  0  0  0  0  0  0
    2.3843   -4.5657   -2.0424 H   0  0  0  0  0  0  0  0  0  0  0  0
    5.5329   -4.3285   -1.6592 H   0  0  0  0  0  0  0  0  0  0  0  0
    4.2477   -4.5194   -2.7310 H   0  0  0  0  0  0  0  0  0  0  0  0
    5.6949   -2.6765   -3.3675 H   0  0  0  0  0  0  0  0  0  0  0  0
    4.0016   -2.3138   -3.2438 H   0  0  0  0  0  0  0  0  0  0  0  0
    6.2870   -1.2807   -1.7008 H   0  0  0  0  0  0  0  0  0  0  0  0
    3.7081   -0.3168   -2.1885 H   0  0  0  0  0  0  0  0  0  0  0  0
    2.9542   -5.3721    0.0488 H   0  0  0  0  0  0  0  0  0  0  0  0
    3.7468   -1.6076    2.4293 H   0  0  0  0  0  0  0  0  0  0  0  0
    2.8790   -6.1956    3.4215 H   0  0  0  0  0  0  0  0  0  0  0  0
  2  1  1  1
  1 26  1  0
  1 27  1  0
  1 28  1  0
  2 18  1  0
  2 23  1  0
  2  3  1  0
  3  4  1  0
  3 29  1  0
  3 30  1  0
  4  9  1  0
  4  5  1  0
  4 31  1  1
  5  6  1  0
  5 32  1  0
  5 33  1  0
  6  7  1  0
  6 34  1  0
  6 58  1  0
  7 16  1  0
  7  8  1  0
  7 35  1  1
  8  9  1  0
  8 36  1  0
  8 37  1  0
  9 10  1  1
  9 11  1  0
 10 38  1  0
 10 39  1  0
 10 40  1  0
 11 25  1  0
 11 12  1  6
 11 13  1  0
 12 41  1  0
 13 14  1  0
 13 42  1  0
 13 43  1  0
 14 15  1  0
 14 44  1  0
 14 59  1  0
 16 15  1  1
 15 45  1  0
 15 46  1  0
 16 25  1  0
 16 17  1  0
 17 18  1  0
 17 47  1  0
 17 48  1  0
 18 19  1  0
 18 49  1  6
 19 20  1  6
 19 21  1  0
 19 25  1  0
 20 50  1  0
 21 22  1  0
 21 51  1  0
 21 52  1  0
 22 23  1  0
 22 53  1  0
 22 54  1  0
 23 24  1  0
 23 55  1  1
 24 56  1  0
 25 57  1  6
M  CHG  2   6   1  14   1
M  END
>  <i_m_ct_stereo_status>  (76) 
1

>  <s_m_source_file>  (76) 
/var/tmp/pbs.5076255.sched01/tmpfev35gxg/05fxellcm.sdf

>  <i_m_source_file_index>  (76) 
31

>  <i_lp_mmshare_version>  (76) 
48012

>  <i_f3d_flags>  (76) 
0

>  <s_epik_input>  (76) 
W0NIMl0xW0NIMl1bQ0BASF0oW09IXSlbQ0BdKFtDSDNdKShbQ0gyXTIpW0NASF0oW0NIMl0zKVtDQF0xKFtPSF0pW0NASF00W0NAXShbT0hdKShbQ0gyXVtOSF1bQ0gyXTUpW0NAQF0oW0NIMl02KShbQ0gzXSlbQ0BASF0yW0NIMl1bTkhdW0NASF02W0NAQF0zNDU=

>  <s_epik_cmdline>  (76) 
J2VwaWtfcHl0aG9uJywgJy1waHQnLCAnMi4wJywgJy1waCcsICc3LjAnLCAnLXRuJywgJzgnLCAnLW1hJywgJzIwMCcsICctaW1hZScsICc8aW5maWxlLm1hZT4nLCAnLW9tYWUnLCAnPG91dGZpbGUubWFlPic=

>  <r_epik_Ionization_Penalty>  (76) 
0.0160745

>  <r_epik_Ionization_Penalty_Charging>  (76) 
0.0160739

>  <r_epik_Ionization_Penalty_Neutral>  (76) 
6.07183e-07

>  <r_epik_State_Penalty>  (76) 
0.0108785

>  <r_epik_Charging_Adjusted_Penalty>  (76) 
0.0269524

>  <i_epik_Tot_Q>  (76) 
2

>  <i_epik_Tot_abs_Q>  (76) 
2

>  <s_lp_Force_Field>  (76) 
OPLS3e

>  <r_lp_Energy>  (76) 
150.207

>  <b_lp_Chiralities_Consistent>  (76) 
1

>  <s_lp_Variant>  (76) 
19:0-1

>  <s_i_glide_gridfile>  (76) 
pfpi4k_grid

>  <i_i_glide_lignum>  (76) 
31

>  <i_i_glide_rotatable_bonds>  (76) 
3

>  <r_i_docking_score>  (76) 
-3.28221

>  <r_i_glide_ligand_efficiency>  (76) 
-0.131288

>  <r_i_glide_ligand_efficiency_sa>  (76) 
-0.383889

>  <r_i_glide_ligand_efficiency_ln>  (76) 
-0.777981

>  <r_i_glide_gscore>  (76) 
-3.28221

>  <r_i_glide_lipo>  (76) 
-0.628736

>  <r_i_glide_hbond>  (76) 
-0.32

>  <r_i_glide_metal>  (76) 
-0

>  <r_i_glide_rewards>  (76) 
-1.01935

>  <r_i_glide_evdw>  (76) 
-9.24776

>  <r_i_glide_ecoul>  (76) 
-5.64082

>  <r_i_glide_erotb>  (76) 
0

>  <r_i_glide_esite>  (76) 
-0.00561046

>  <r_i_glide_emodel>  (76) 
-15.0867

>  <r_i_glide_energy>  (76) 
-14.8886

>  <r_i_glide_einternal>  (76) 
0.240657

>  <r_i_glide_intrahb_reward>  (76) 
-0

>  <i_i_glide_confnum>  (76) 
2

>  <i_i_glide_posenum>  (76) 
4

>  <r_i_glide_eff_state_penalty>  (76) 
0

>  <ligand_id>  (76) 
19

>  <original_smiles>  (76) 
CC12CC3CNC4CC3(C)C3(O)CNCC45CC1C(O)(CCC2O)C53

>  <smiles>  (76) 
[H]OC1([H])C([H])([H])C([H])([H])C2(O[H])C3([H])C([H])([H])C45C2([H])C(O[H])(C2(C([H])([H])[H])C([H])([H])C4([H])[N+]([H])([H])C([H])([H])C2([H])C([H])([H])C13C([H])([H])[H])C([H])([H])[N+]([H])([H])C5([H])[H]

$$$$
19:1:0
     RDKit          3D

 58 63  0  0  1  0  0  0  0  0999 V2000
    4.8010   -0.3679    0.6536 C   0  0  0  0  0  0  0  0  0  0  0  0
    4.8937   -1.7408   -0.0644 C   0  0  1  0  0  0  0  0  0  0  0  0
    6.0547   -2.6567    0.5188 C   0  0  0  0  0  0  0  0  0  0  0  0
    6.0414   -3.3340    1.9026 C   0  0  1  0  0  0  0  0  0  0  0  0
    5.6476   -2.3024    2.9677 C   0  0  0  0  0  0  0  0  0  0  0  0
    4.2161   -2.3298    3.2032 N   0  0  0  0  0  0  0  0  0  0  0  0
    3.6146   -3.6693    3.1083 C   0  0  2  0  0  0  0  0  0  0  0  0
    4.6865   -4.7062    3.4764 C   0  0  0  0  0  0  0  0  0  0  0  0
    5.5399   -4.8341    2.2027 C   0  0  2  0  0  0  0  0  0  0  0  0
    6.7446   -5.7583    2.5588 C   0  0  0  0  0  0  0  0  0  0  0  0
    4.6159   -5.5466    1.1248 C   0  0  1  0  0  0  0  0  0  0  0  0
    5.4150   -6.1107    0.1238 O   0  0  0  0  0  0  0  0  0  0  0  0
    3.7469   -6.7456    1.7073 C   0  0  0  0  0  0  0  0  0  0  0  0
    2.4891   -6.3293    2.4376 N   0  0  0  0  0  0  0  0  0  0  0  0
    1.8237   -5.0502    2.0658 C   0  0  0  0  0  0  0  0  0  0  0  0
    2.8720   -3.9529    1.7231 C   0  0  1  0  0  0  0  0  0  0  0  0
    2.5172   -2.5851    1.0709 C   0  0  0  0  0  0  0  0  0  0  0  0
    3.4685   -2.3566   -0.1492 C   0  0  2  0  0  0  0  0  0  0  0  0
    3.5732   -3.7306   -0.7584 C   0  0  1  0  0  0  0  0  0  0  0  0
    2.3212   -3.8431   -1.4209 O   0  0  0  0  0  0  0  0  0  0  0  0
    4.6257   -3.9060   -1.8969 C   0  0  0  0  0  0  0  0  0  0  0  0
    4.9803   -2.5904   -2.5667 C   0  0  0  0  0  0  0  0  0  0  0  0
    5.3427   -1.4922   -1.5550 C   0  0  1  0  0  0  0  0  0  0  0  0
    4.8128   -0.3120   -2.1246 O   0  0  0  0  0  0  0  0  0  0  0  0
    3.5431   -4.6641    0.5011 C   0  0  1  0  0  0  0  0  0  0  0  0
    5.7738    0.1192    0.7129 H   0  0  0  0  0  0  0  0  0  0  0  0
    4.3804   -0.4044    1.6495 H   0  0  0  0  0  0  0  0  0  0  0  0
    4.1260    0.3101    0.1378 H   0  0  0  0  0  0  0  0  0  0  0  0
    6.4172   -3.4110   -0.1645 H   0  0  0  0  0  0  0  0  0  0  0  0
    6.9183   -1.9914    0.5499 H   0  0  0  0  0  0  0  0  0  0  0  0
    7.1076   -3.4440    2.0479 H   0  0  0  0  0  0  0  0  0  0  0  0
    6.1122   -2.5726    3.9056 H   0  0  0  0  0  0  0  0  0  0  0  0
    6.0445   -1.3127    2.7633 H   0  0  0  0  0  0  0  0  0  0  0  0
    4.0400   -1.9393    4.1254 H   0  0  0  0  0  0  0  0  0  0  0  0
    2.8651   -3.6727    3.8925 H   0  0  0  0  0  0  0  0  0  0  0  0
    5.2708   -4.4014    4.3453 H   0  0  0  0  0  0  0  0  0  0  0  0
    4.2904   -5.6368    3.8558 H   0  0  0  0  0  0  0  0  0  0  0  0
    6.4261   -6.7668    2.8217 H   0  0  0  0  0  0  0  0  0  0  0  0
    7.3111   -5.4002    3.4180 H   0  0  0  0  0  0  0  0  0  0  0  0
    7.4496   -5.8455    1.7315 H   0  0  0  0  0  0  0  0  0  0  0  0
    4.8474   -6.4178   -0.5622 H   0  0  0  0  0  0  0  0  0  0  0  0
    3.4714   -7.4158    0.8947 H   0  0  0  0  0  0  0  0  0  0  0  0
    4.3502   -7.3652    2.3688 H   0  0  0  0  0  0  0  0  0  0  0  0
    1.8226   -7.1017    2.4513 H   0  0  0  0  0  0  0  0  0  0  0  0
    1.1829   -5.2392    1.2028 H   0  0  0  0  0  0  0  0  0  0  0  0
    1.1473   -4.7209    2.8606 H   0  0  0  0  0  0  0  0  0  0  0  0
    1.5207   -2.6506    0.6491 H   0  0  0  0  0  0  0  0  0  0  0  0
    2.4030   -1.7280    1.7243 H   0  0  0  0  0  0  0  0  0  0  0  0
    2.9341   -1.6944   -0.8325 H   0  0  0  0  0  0  0  0  0  0  0  0
    2.3210   -4.6844   -1.8939 H   0  0  0  0  0  0  0  0  0  0  0  0
    5.5307   -4.4193   -1.5973 H   0  0  0  0  0  0  0  0  0  0  0  0
    4.2705   -4.5546   -2.6880 H   0  0  0  0  0  0  0  0  0  0  0  0
    5.7988   -2.7371   -3.2711 H   0  0  0  0  0  0  0  0  0  0  0  0
    4.1241   -2.2946   -3.1717 H   0  0  0  0  0  0  0  0  0  0  0  0
    6.4248   -1.4070   -1.5688 H   0  0  0  0  0  0  0  0  0  0  0  0
    5.0104    0.4255   -1.5615 H   0  0  0  0  0  0  0  0  0  0  0  0
    2.8864   -5.4212    0.0514 H   0  0  0  0  0  0  0  0  0  0  0  0
    3.7745   -1.7382    2.5033 H   0  0  0  0  0  0  0  0  0  0  0  0
  2  1  1  1
  1 26  1  0
  1 27  1  0
  1 28  1  0
  2 18  1  0
  2 23  1  0
  2  3  1  0
  3  4  1  0
  3 29  1  0
  3 30  1  0
  4  9  1  0
  4  5  1  0
  4 31  1  1
  5  6  1  0
  5 32  1  0
  5 33  1  0
  6  7  1  0
  6 34  1  0
  6 58  1  0
  7 16  1  0
  7  8  1  0
  7 35  1  1
  8  9  1  0
  8 36  1  0
  8 37  1  0
  9 10  1  1
  9 11  1  0
 10 38  1  0
 10 39  1  0
 10 40  1  0
 11 25  1  0
 11 12  1  6
 11 13  1  0
 12 41  1  0
 13 14  1  0
 13 42  1  0
 13 43  1  0
 14 15  1  0
 14 44  1  0
 16 15  1  1
 15 45  1  0
 15 46  1  0
 16 25  1  0
 16 17  1  0
 17 18  1  0
 17 47  1  0
 17 48  1  0
 18 19  1  0
 18 49  1  6
 19 20  1  6
 19 21  1  0
 19 25  1  0
 20 50  1  0
 21 22  1  0
 21 51  1  0
 21 52  1  0
 22 23  1  0
 22 53  1  0
 22 54  1  0
 23 24  1  0
 23 55  1  1
 24 56  1  0
 25 57  1  6
M  CHG  1   6   1
M  END
>  <i_m_ct_stereo_status>  (77) 
1

>  <s_m_source_file>  (77) 
/var/tmp/pbs.5076255.sched01/tmpfev35gxg/05fxellcm.sdf

>  <i_m_source_file_index>  (77) 
32

>  <i_lp_mmshare_version>  (77) 
48012

>  <i_f3d_flags>  (77) 
0

>  <s_epik_input>  (77) 
W0NIMl0xW0NIMl1bQ0BASF0oW09IXSlbQ0BdKFtDSDNdKShbQ0gyXTIpW0NASF0oW0NIMl0zKVtDQF0xKFtPSF0pW0NASF00W0NAXShbT0hdKShbQ0gyXVtOSF1bQ0gyXTUpW0NAQF0oW0NIMl02KShbQ0gzXSlbQ0BASF0yW0NIMl1bTkhdW0NASF02W0NAQF0zNDU=

>  <s_epik_cmdline>  (77) 
J2VwaWtfcHl0aG9uJywgJy1waHQnLCAnMi4wJywgJy1waCcsICc3LjAnLCAnLXRuJywgJzgnLCAnLW1hJywgJzIwMCcsICctaW1hZScsICc8aW5maWxlLm1hZT4nLCAnLW9tYWUnLCAnPG91dGZpbGUubWFlPic=

>  <r_epik_Ionization_Penalty>  (77) 
2.22874

>  <r_epik_Ionization_Penalty_Charging>  (77) 
0.000309996

>  <r_epik_Ionization_Penalty_Neutral>  (77) 
2.22843

>  <r_epik_State_Penalty>  (77) 
2.37392

>  <r_epik_Charging_Adjusted_Penalty>  (77) 
2.37423

>  <i_epik_Tot_Q>  (77) 
1

>  <i_epik_Tot_abs_Q>  (77) 
1

>  <s_lp_Force_Field>  (77) 
OPLS3e

>  <r_lp_Energy>  (77) 
144.85

>  <b_lp_Chiralities_Consistent>  (77) 
1

>  <s_lp_Variant>  (77) 
19:0-2

>  <s_i_glide_gridfile>  (77) 
pfpi4k_grid

>  <i_i_glide_lignum>  (77) 
32

>  <i_i_glide_rotatable_bonds>  (77) 
3

>  <r_i_docking_score>  (77) 
-4.04366

>  <r_i_glide_ligand_efficiency>  (77) 
-0.161746

>  <r_i_glide_ligand_efficiency_sa>  (77) 
-0.472949

>  <r_i_glide_ligand_efficiency_ln>  (77) 
-0.958468

>  <r_i_glide_gscore>  (77) 
-4.04366

>  <r_i_glide_lipo>  (77) 
-0.630272

>  <r_i_glide_hbond>  (77) 
-0.608

>  <r_i_glide_metal>  (77) 
-0

>  <r_i_glide_rewards>  (77) 
-1.02622

>  <r_i_glide_evdw>  (77) 
-9.04936

>  <r_i_glide_ecoul>  (77) 
-8.84463

>  <r_i_glide_erotb>  (77) 
0

>  <r_i_glide_esite>  (77) 
0

>  <r_i_glide_emodel>  (77) 
-18.6907

>  <r_i_glide_energy>  (77) 
-17.894

>  <r_i_glide_einternal>  (77) 
0.54436

>  <r_i_glide_intrahb_reward>  (77) 
-0

>  <i_i_glide_confnum>  (77) 
2

>  <i_i_glide_posenum>  (77) 
6

>  <r_i_glide_eff_state_penalty>  (77) 
0

>  <ligand_id>  (77) 
19

>  <original_smiles>  (77) 
CC12CC3CNC4CC3(C)C3(O)CNCC45CC1C(O)(CCC2O)C53

>  <smiles>  (77) 
[H]OC1([H])C([H])([H])C([H])([H])C2(O[H])C3([H])C([H])([H])C45C([H])([H])N([H])C([H])([H])C(O[H])(C24[H])C2(C([H])([H])[H])C([H])([H])C5([H])[N+]([H])([H])C([H])([H])C2([H])C([H])([H])C13C([H])([H])[H]

$$$$
19:1:1
     RDKit          3D

 58 63  0  0  1  0  0  0  0  0999 V2000
    4.5676   -0.2143    0.5133 C   0  0  0  0  0  0  0  0  0  0  0  0
    4.6962   -1.5442   -0.2699 C   0  0  1  0  0  0  0  0  0  0  0  0
    5.9419   -2.3929    0.2254 C   0  0  0  0  0  0  0  0  0  0  0  0
    6.0293   -3.1185    1.5871 C   0  0  1  0  0  0  0  0  0  0  0  0
    5.6370   -2.1565    2.7191 C   0  0  0  0  0  0  0  0  0  0  0  0
    4.1960   -2.2686    3.0062 N   0  0  0  0  0  0  0  0  0  0  0  0
    3.6590   -3.6460    2.8630 C   0  0  2  0  0  0  0  0  0  0  0  0
    4.8023   -4.6277    3.1479 C   0  0  0  0  0  0  0  0  0  0  0  0
    5.6073   -4.6525    1.8334 C   0  0  2  0  0  0  0  0  0  0  0  0
    6.8670   -5.5203    2.0877 C   0  0  0  0  0  0  0  0  0  0  0  0
    4.6657   -5.3738    0.7785 C   0  0  1  0  0  0  0  0  0  0  0  0
    5.4175   -5.8344   -0.2824 O   0  0  0  0  0  0  0  0  0  0  0  0
    3.8844   -6.6367    1.3320 C   0  0  0  0  0  0  0  0  0  0  0  0
    2.6348   -6.3300    2.1237 N   0  0  0  0  0  0  0  0  0  0  0  0
    1.8880   -5.0664    1.8381 C   0  0  0  0  0  0  0  0  0  0  0  0
    2.8679   -3.9080    1.5071 C   0  0  1  0  0  0  0  0  0  0  0  0
    2.4114   -2.5485    0.9223 C   0  0  0  0  0  0  0  0  0  0  0  0
    3.3149   -2.2409   -0.3151 C   0  0  2  0  0  0  0  0  0  0  0  0
    3.4487   -3.5794   -0.9875 C   0  0  1  0  0  0  0  0  0  0  0  0
    2.1662   -3.7737   -1.5748 O   0  0  0  0  0  0  0  0  0  0  0  0
    4.4497   -3.6612   -2.1947 C   0  0  0  0  0  0  0  0  0  0  0  0
    4.6983   -2.3012   -2.8112 C   0  0  0  0  0  0  0  0  0  0  0  0
    5.0628   -1.2268   -1.7798 C   0  0  1  0  0  0  0  0  0  0  0  0
    4.4697   -0.1066   -2.3679 O   0  0  0  0  0  0  0  0  0  0  0  0
    3.5209   -4.5366    0.2358 C   0  0  1  0  0  0  0  0  0  0  0  0
    5.5140    0.3297    0.5586 H   0  0  0  0  0  0  0  0  0  0  0  0
    4.2006   -0.3121    1.5244 H   0  0  0  0  0  0  0  0  0  0  0  0
    3.8364    0.4478    0.0909 H   0  0  0  0  0  0  0  0  0  0  0  0
    6.3003   -3.1007   -0.5040 H   0  0  0  0  0  0  0  0  0  0  0  0
    6.7633   -1.6728    0.2441 H   0  0  0  0  0  0  0  0  0  0  0  0
    7.1075   -3.1555    1.6831 H   0  0  0  0  0  0  0  0  0  0  0  0
    6.1581   -2.4187    3.6240 H   0  0  0  0  0  0  0  0  0  0  0  0
    5.9485   -1.1296    2.5308 H   0  0  0  0  0  0  0  0  0  0  0  0
    4.0319   -1.9349    3.9408 H   0  0  0  0  0  0  0  0  0  0  0  0
    2.9450   -3.7212    3.6808 H   0  0  0  0  0  0  0  0  0  0  0  0
    5.4082   -4.3285    4.0073 H   0  0  0  0  0  0  0  0  0  0  0  0
    4.4669   -5.5980    3.4928 H   0  0  0  0  0  0  0  0  0  0  0  0
    6.6140   -6.5531    2.3251 H   0  0  0  0  0  0  0  0  0  0  0  0
    7.4531   -5.1498    2.9236 H   0  0  0  0  0  0  0  0  0  0  0  0
    7.5291   -5.5381    1.2231 H   0  0  0  0  0  0  0  0  0  0  0  0
    4.8400   -6.0075   -1.0141 H   0  0  0  0  0  0  0  0  0  0  0  0
    3.6126   -7.2807    0.4970 H   0  0  0  0  0  0  0  0  0  0  0  0
    4.5482   -7.2554    1.9337 H   0  0  0  0  0  0  0  0  0  0  0  0
    2.0119   -7.1293    2.1254 H   0  0  0  0  0  0  0  0  0  0  0  0
    1.2349   -5.2620    0.9954 H   0  0  0  0  0  0  0  0  0  0  0  0
    1.2258   -4.8093    2.6647 H   0  0  0  0  0  0  0  0  0  0  0  0
    1.4230   -2.6541    0.5349 H   0  0  0  0  0  0  0  0  0  0  0  0
    2.3073   -1.7127    1.6090 H   0  0  0  0  0  0  0  0  0  0  0  0
    2.7316   -1.5764   -0.9516 H   0  0  0  0  0  0  0  0  0  0  0  0
    2.1809   -4.5943   -2.0589 H   0  0  0  0  0  0  0  0  0  0  0  0
    5.4059   -4.1167   -1.9660 H   0  0  0  0  0  0  0  0  0  0  0  0
    4.0547   -4.2513   -3.0196 H   0  0  0  0  0  0  0  0  0  0  0  0
    5.4960   -2.3631   -3.5450 H   0  0  0  0  0  0  0  0  0  0  0  0
    3.7981   -2.0400   -3.3764 H   0  0  0  0  0  0  0  0  0  0  0  0
    6.1386   -1.0526   -1.8501 H   0  0  0  0  0  0  0  0  0  0  0  0
    3.5664   -0.0305   -2.0907 H   0  0  0  0  0  0  0  0  0  0  0  0
    2.8905   -5.3117   -0.2129 H   0  0  0  0  0  0  0  0  0  0  0  0
    3.7001   -1.6920    2.3437 H   0  0  0  0  0  0  0  0  0  0  0  0
  2  1  1  1
  1 26  1  0
  1 27  1  0
  1 28  1  0
  2 18  1  0
  2 23  1  0
  2  3  1  0
  3  4  1  0
  3 29  1  0
  3 30  1  0
  4  9  1  0
  4  5  1  0
  4 31  1  1
  5  6  1  0
  5 32  1  0
  5 33  1  0
  6  7  1  0
  6 34  1  0
  6 58  1  0
  7 16  1  0
  7  8  1  0
  7 35  1  1
  8  9  1  0
  8 36  1  0
  8 37  1  0
  9 10  1  1
  9 11  1  0
 10 38  1  0
 10 39  1  0
 10 40  1  0
 11 25  1  0
 11 12  1  6
 11 13  1  0
 12 41  1  0
 13 14  1  0
 13 42  1  0
 13 43  1  0
 14 15  1  0
 14 44  1  0
 16 15  1  1
 15 45  1  0
 15 46  1  0
 16 25  1  0
 16 17  1  0
 17 18  1  0
 17 47  1  0
 17 48  1  0
 18 19  1  0
 18 49  1  6
 19 20  1  6
 19 21  1  0
 19 25  1  0
 20 50  1  0
 21 22  1  0
 21 51  1  0
 21 52  1  0
 22 23  1  0
 22 53  1  0
 22 54  1  0
 23 24  1  0
 23 55  1  1
 24 56  1  0
 25 57  1  6
M  CHG  1   6   1
M  END
>  <i_m_ct_stereo_status>  (78) 
1

>  <s_m_source_file>  (78) 
/var/tmp/pbs.5076255.sched01/tmpfev35gxg/05fxellcm.sdf

>  <i_m_source_file_index>  (78) 
32

>  <i_lp_mmshare_version>  (78) 
48012

>  <i_f3d_flags>  (78) 
0

>  <s_epik_input>  (78) 
W0NIMl0xW0NIMl1bQ0BASF0oW09IXSlbQ0BdKFtDSDNdKShbQ0gyXTIpW0NASF0oW0NIMl0zKVtDQF0xKFtPSF0pW0NASF00W0NAXShbT0hdKShbQ0gyXVtOSF1bQ0gyXTUpW0NAQF0oW0NIMl02KShbQ0gzXSlbQ0BASF0yW0NIMl1bTkhdW0NASF02W0NAQF0zNDU=

>  <s_epik_cmdline>  (78) 
J2VwaWtfcHl0aG9uJywgJy1waHQnLCAnMi4wJywgJy1waCcsICc3LjAnLCAnLXRuJywgJzgnLCAnLW1hJywgJzIwMCcsICctaW1hZScsICc8aW5maWxlLm1hZT4nLCAnLW9tYWUnLCAnPG91dGZpbGUubWFlPic=

>  <r_epik_Ionization_Penalty>  (78) 
2.22874

>  <r_epik_Ionization_Penalty_Charging>  (78) 
0.000309996

>  <r_epik_Ionization_Penalty_Neutral>  (78) 
2.22843

>  <r_epik_State_Penalty>  (78) 
2.37392

>  <r_epik_Charging_Adjusted_Penalty>  (78) 
2.37423

>  <i_epik_Tot_Q>  (78) 
1

>  <i_epik_Tot_abs_Q>  (78) 
1

>  <s_lp_Force_Field>  (78) 
OPLS3e

>  <r_lp_Energy>  (78) 
144.85

>  <b_lp_Chiralities_Consistent>  (78) 
1

>  <s_lp_Variant>  (78) 
19:0-2

>  <s_i_glide_gridfile>  (78) 
pfpi4k_grid

>  <i_i_glide_lignum>  (78) 
32

>  <i_i_glide_rotatable_bonds>  (78) 
3

>  <r_i_docking_score>  (78) 
-3.24645

>  <r_i_glide_ligand_efficiency>  (78) 
-0.129858

>  <r_i_glide_ligand_efficiency_sa>  (78) 
-0.379707

>  <r_i_glide_ligand_efficiency_ln>  (78) 
-0.769506

>  <r_i_glide_gscore>  (78) 
-3.24645

>  <r_i_glide_lipo>  (78) 
-0.668804

>  <r_i_glide_hbond>  (78) 
-0.32

>  <r_i_glide_metal>  (78) 
-0

>  <r_i_glide_rewards>  (78) 
-1.02622

>  <r_i_glide_evdw>  (78) 
-7.42411

>  <r_i_glide_ecoul>  (78) 
-5.73481

>  <r_i_glide_erotb>  (78) 
0

>  <r_i_glide_esite>  (78) 
0

>  <r_i_glide_emodel>  (78) 
-12.9311

>  <r_i_glide_energy>  (78) 
-13.1589

>  <r_i_glide_einternal>  (78) 
0.700365

>  <r_i_glide_intrahb_reward>  (78) 
-0

>  <i_i_glide_confnum>  (78) 
2

>  <i_i_glide_posenum>  (78) 
1

>  <r_i_glide_eff_state_penalty>  (78) 
0

>  <ligand_id>  (78) 
19

>  <original_smiles>  (78) 
CC12CC3CNC4CC3(C)C3(O)CNCC45CC1C(O)(CCC2O)C53

>  <smiles>  (78) 
[H]OC1([H])C([H])([H])C([H])([H])C2(O[H])C3([H])C([H])([H])C45C([H])([H])N([H])C([H])([H])C(O[H])(C24[H])C2(C([H])([H])[H])C([H])([H])C5([H])[N+]([H])([H])C([H])([H])C2([H])C([H])([H])C13C([H])([H])[H]

$$$$
19:1:2
     RDKit          3D

 58 63  0  0  1  0  0  0  0  0999 V2000
    4.9298   -0.2530   -0.0078 C   0  0  0  0  0  0  0  0  0  0  0  0
    4.7273   -1.5710   -0.8206 C   0  0  1  0  0  0  0  0  0  0  0  0
    5.9394   -2.5915   -0.6625 C   0  0  0  0  0  0  0  0  0  0  0  0
    6.2620   -3.3329    0.6426 C   0  0  1  0  0  0  0  0  0  0  0  0
    6.2090   -2.3356    1.7848 C   0  0  0  0  0  0  0  0  0  0  0  0
    4.8987   -2.3047    2.4415 N   0  0  0  0  0  0  0  0  0  0  0  0
    4.1952   -3.6060    2.4689 C   0  0  2  0  0  0  0  0  0  0  0  0
    5.2656   -4.7038    2.5038 C   0  0  0  0  0  0  0  0  0  0  0  0
    5.7464   -4.7964    1.0517 C   0  0  2  0  0  0  0  0  0  0  0  0
    6.9272   -5.8158    1.0458 C   0  0  0  0  0  0  0  0  0  0  0  0
    4.5182   -5.3642    0.2654 C   0  0  1  0  0  0  0  0  0  0  0  0
    5.0206   -5.7810   -0.9178 O   0  0  0  0  0  0  0  0  0  0  0  0
    3.7774   -6.5619    0.9894 C   0  0  0  0  0  0  0  0  0  0  0  0
    2.7612   -6.1585    2.0309 N   0  0  0  0  0  0  0  0  0  0  0  0
    2.1075   -4.8332    1.8974 C   0  0  0  0  0  0  0  0  0  0  0  0
    3.0845   -3.7690    1.3338 C   0  0  1  0  0  0  0  0  0  0  0  0
    2.6562   -2.3623    0.8555 C   0  0  0  0  0  0  0  0  0  0  0  0
    3.3021   -2.1180   -0.5581 C   0  0  2  0  0  0  0  0  0  0  0  0
    3.1402   -3.4370   -1.2462 C   0  0  1  0  0  0  0  0  0  0  0  0
    1.7434   -3.4484   -1.5593 O   0  0  0  0  0  0  0  0  0  0  0  0
    3.8284   -3.5719   -2.6504 C   0  0  0  0  0  0  0  0  0  0  0  0
    4.0865   -2.2374   -3.3208 C   0  0  0  0  0  0  0  0  0  0  0  0
    4.7678   -1.2369   -2.3642 C   0  0  1  0  0  0  0  0  0  0  0  0
    4.2418    0.0150   -2.7479 O   0  0  0  0  0  0  0  0  0  0  0  0
    3.3749   -4.4228   -0.0459 C   0  0  1  0  0  0  0  0  0  0  0  0
    5.9451    0.1195   -0.1774 H   0  0  0  0  0  0  0  0  0  0  0  0
    4.7621   -0.3305    1.0585 H   0  0  0  0  0  0  0  0  0  0  0  0
    4.2160    0.5094   -0.3137 H   0  0  0  0  0  0  0  0  0  0  0  0
    6.0575   -3.3248   -1.4479 H   0  0  0  0  0  0  0  0  0  0  0  0
    6.8242   -1.9739   -0.8219 H   0  0  0  0  0  0  0  0  0  0  0  0
    7.3319   -3.4871    0.5413 H   0  0  0  0  0  0  0  0  0  0  0  0
    6.9326   -2.7339    2.4772 H   0  0  0  0  0  0  0  0  0  0  0  0
    6.5933   -1.3332    1.5399 H   0  0  0  0  0  0  0  0  0  0  0  0
    5.0220   -1.9785    3.3939 H   0  0  0  0  0  0  0  0  0  0  0  0
    3.6864   -3.6157    3.4310 H   0  0  0  0  0  0  0  0  0  0  0  0
    6.0766   -4.4840    3.1964 H   0  0  0  0  0  0  0  0  0  0  0  0
    4.9192   -5.6393    2.9238 H   0  0  0  0  0  0  0  0  0  0  0  0
    6.6243   -6.8270    1.3211 H   0  0  0  0  0  0  0  0  0  0  0  0
    7.7324   -5.5296    1.7200 H   0  0  0  0  0  0  0  0  0  0  0  0
    7.3927   -5.9049    0.0717 H   0  0  0  0  0  0  0  0  0  0  0  0
    4.3176   -6.0556   -1.4742 H   0  0  0  0  0  0  0  0  0  0  0  0
    3.2989   -7.1397    0.2216 H   0  0  0  0  0  0  0  0  0  0  0  0
    4.4720   -7.2730    1.4295 H   0  0  0  0  0  0  0  0  0  0  0  0
    2.0625   -6.8893    2.1451 H   0  0  0  0  0  0  0  0  0  0  0  0
    1.2812   -4.9786    1.2191 H   0  0  0  0  0  0  0  0  0  0  0  0
    1.6655   -4.5140    2.8392 H   0  0  0  0  0  0  0  0  0  0  0  0
    1.5781   -2.3968    0.7431 H   0  0  0  0  0  0  0  0  0  0  0  0
    2.7775   -1.5317    1.5422 H   0  0  0  0  0  0  0  0  0  0  0  0
    2.6723   -1.3809   -1.0478 H   0  0  0  0  0  0  0  0  0  0  0  0
    1.4195   -2.5682   -1.5997 H   0  0  0  0  0  0  0  0  0  0  0  0
    4.7410   -4.1523   -2.6504 H   0  0  0  0  0  0  0  0  0  0  0  0
    3.2209   -4.1429   -3.3448 H   0  0  0  0  0  0  0  0  0  0  0  0
    4.6881   -2.3915   -4.2213 H   0  0  0  0  0  0  0  0  0  0  0  0
    3.1263   -1.8587   -3.6795 H   0  0  0  0  0  0  0  0  0  0  0  0
    5.8129   -1.2039   -2.6418 H   0  0  0  0  0  0  0  0  0  0  0  0
    3.3241    0.0663   -2.5307 H   0  0  0  0  0  0  0  0  0  0  0  0
    2.5861   -5.1207   -0.3465 H   0  0  0  0  0  0  0  0  0  0  0  0
    4.2931   -1.6514    1.9423 H   0  0  0  0  0  0  0  0  0  0  0  0
  2  1  1  1
  1 26  1  0
  1 27  1  0
  1 28  1  0
  2 18  1  0
  2 23  1  0
  2  3  1  0
  3  4  1  0
  3 29  1  0
  3 30  1  0
  4  9  1  0
  4  5  1  0
  4 31  1  6
  5  6  1  0
  5 32  1  0
  5 33  1  0
  6  7  1  0
  6 34  1  0
  6 58  1  0
  7 16  1  0
  7  8  1  0
  7 35  1  1
  8  9  1  0
  8 36  1  0
  8 37  1  0
  9 10  1  1
  9 11  1  0
 10 38  1  0
 10 39  1  0
 10 40  1  0
 11 25  1  0
 11 12  1  6
 11 13  1  0
 12 41  1  0
 13 14  1  0
 13 42  1  0
 13 43  1  0
 14 15  1  0
 14 44  1  0
 16 15  1  1
 15 45  1  0
 15 46  1  0
 16 25  1  0
 16 17  1  0
 17 18  1  0
 17 47  1  0
 17 48  1  0
 18 19  1  0
 18 49  1  6
 19 20  1  6
 19 21  1  0
 19 25  1  0
 20 50  1  0
 21 22  1  0
 21 51  1  0
 21 52  1  0
 22 23  1  0
 22 53  1  0
 22 54  1  0
 23 24  1  0
 23 55  1  6
 24 56  1  0
 25 57  1  6
M  CHG  1   6   1
M  END
>  <i_m_ct_stereo_status>  (79) 
1

>  <s_m_source_file>  (79) 
/var/tmp/pbs.5076255.sched01/tmpfev35gxg/05fxellcm.sdf

>  <i_m_source_file_index>  (79) 
32

>  <i_lp_mmshare_version>  (79) 
48012

>  <i_f3d_flags>  (79) 
0

>  <s_epik_input>  (79) 
W0NIMl0xW0NIMl1bQ0BASF0oW09IXSlbQ0BdKFtDSDNdKShbQ0gyXTIpW0NASF0oW0NIMl0zKVtDQF0xKFtPSF0pW0NASF00W0NAXShbT0hdKShbQ0gyXVtOSF1bQ0gyXTUpW0NAQF0oW0NIMl02KShbQ0gzXSlbQ0BASF0yW0NIMl1bTkhdW0NASF02W0NAQF0zNDU=

>  <s_epik_cmdline>  (79) 
J2VwaWtfcHl0aG9uJywgJy1waHQnLCAnMi4wJywgJy1waCcsICc3LjAnLCAnLXRuJywgJzgnLCAnLW1hJywgJzIwMCcsICctaW1hZScsICc8aW5maWxlLm1hZT4nLCAnLW9tYWUnLCAnPG91dGZpbGUubWFlPic=

>  <r_epik_Ionization_Penalty>  (79) 
2.22874

>  <r_epik_Ionization_Penalty_Charging>  (79) 
0.000309996

>  <r_epik_Ionization_Penalty_Neutral>  (79) 
2.22843

>  <r_epik_State_Penalty>  (79) 
2.37392

>  <r_epik_Charging_Adjusted_Penalty>  (79) 
2.37423

>  <i_epik_Tot_Q>  (79) 
1

>  <i_epik_Tot_abs_Q>  (79) 
1

>  <s_lp_Force_Field>  (79) 
OPLS3e

>  <r_lp_Energy>  (79) 
144.85

>  <b_lp_Chiralities_Consistent>  (79) 
1

>  <s_lp_Variant>  (79) 
19:0-2

>  <s_i_glide_gridfile>  (79) 
pfpi4k_grid

>  <i_i_glide_lignum>  (79) 
32

>  <i_i_glide_rotatable_bonds>  (79) 
3

>  <r_i_docking_score>  (79) 
-2.94796

>  <r_i_glide_ligand_efficiency>  (79) 
-0.117919

>  <r_i_glide_ligand_efficiency_sa>  (79) 
-0.344796

>  <r_i_glide_ligand_efficiency_ln>  (79) 
-0.698756

>  <r_i_glide_gscore>  (79) 
-2.94796

>  <r_i_glide_lipo>  (79) 
-0.764016

>  <r_i_glide_hbond>  (79) 
-0.456

>  <r_i_glide_metal>  (79) 
-0

>  <r_i_glide_rewards>  (79) 
-1.02622

>  <r_i_glide_evdw>  (79) 
4.89932

>  <r_i_glide_ecoul>  (79) 
-6.31129

>  <r_i_glide_erotb>  (79) 
0

>  <r_i_glide_esite>  (79) 
0

>  <r_i_glide_emodel>  (79) 
0.500406

>  <r_i_glide_energy>  (79) 
-1.41197

>  <r_i_glide_einternal>  (79) 
1.25235

>  <r_i_glide_intrahb_reward>  (79) 
-0

>  <i_i_glide_confnum>  (79) 
2

>  <i_i_glide_posenum>  (79) 
37

>  <r_i_glide_eff_state_penalty>  (79) 
0

>  <ligand_id>  (79) 
19

>  <original_smiles>  (79) 
CC12CC3CNC4CC3(C)C3(O)CNCC45CC1C(O)(CCC2O)C53

>  <smiles>  (79) 
[H]OC1([H])C([H])([H])C([H])([H])C2(O[H])C3([H])C([H])([H])C45C([H])([H])N([H])C([H])([H])C(O[H])(C24[H])C2(C([H])([H])[H])C([H])([H])C5([H])[N+]([H])([H])C([H])([H])C2([H])C([H])([H])C13C([H])([H])[H]

$$$$
20:0:0
     RDKit          3D

 53 59  0  0  1  0  0  0  0  0999 V2000
    4.6000   -1.1641   -1.1130 O   0  0  0  0  0  0  0  0  0  0  0  0
    4.9481   -2.4872   -1.4879 C   0  0  1  0  0  0  0  0  0  0  0  0
    6.3900   -2.7773   -1.0531 C   0  0  0  0  0  0  0  0  0  0  0  0
    6.5176   -2.6406    0.4689 C   0  0  2  0  0  0  0  0  0  0  0  0
    7.7381   -3.0029    0.8610 F   0  0  0  0  0  0  0  0  0  0  0  0
    5.4729   -3.5213    1.1885 C   0  0  2  0  0  0  0  0  0  0  0  0
    5.8378   -4.8602    1.1482 O   0  0  0  0  0  0  0  0  0  0  0  0
    4.6822   -5.6227    1.5005 C   0  0  1  0  0  0  0  0  0  0  0  0
    4.6045   -6.7988    0.5092 C   0  0  0  0  0  0  0  0  0  0  0  0
    4.9931   -8.0701    1.2999 C   0  0  2  0  0  0  0  0  0  0  0  0
    3.7438   -8.8106    1.8358 C   0  0  0  0  0  0  0  0  0  0  0  0
    3.0231   -8.0363    2.9375 C   0  0  0  0  0  0  0  0  0  0  0  0
    1.8086   -8.5246    3.4618 C   0  0  0  0  0  0  0  0  0  0  0  0
    1.1654   -7.8381    4.5093 C   0  0  0  0  0  0  0  0  0  0  0  0
    1.7393   -6.6667    5.0422 C   0  0  0  0  0  0  0  0  0  0  0  0
    2.9508   -6.1715    4.5198 C   0  0  0  0  0  0  0  0  0  0  0  0
    3.5894   -6.8443    3.4581 C   0  0  0  0  0  0  0  0  0  0  0  0
    4.9003   -6.3179    2.8685 C   0  0  1  0  0  0  0  0  0  0  0  0
    5.7852   -7.5061    2.4786 C   0  0  0  0  0  0  0  0  0  0  0  0
    3.5355   -4.5815    1.3903 C   0  0  0  0  0  0  0  0  0  0  0  0
    4.0987   -3.4277    0.7100 N   0  0  0  0  0  0  0  0  0  0  0  0
    4.0210   -3.5094   -0.7664 C   0  0  1  0  0  0  0  0  0  0  0  0
    2.6010   -3.4060   -1.3143 C   0  0  0  0  0  0  0  0  0  0  0  0
    2.3492   -3.0661   -2.5957 C   0  0  0  0  0  0  0  0  0  0  0  0
    3.4249   -2.7895   -3.5687 C   0  0  2  0  0  0  0  0  0  0  0  0
    4.5721   -3.7671   -3.7923 C   0  0  0  0  0  0  0  0  0  0  0  0
    4.7910   -2.5056   -3.0034 C   0  0  2  0  0  0  0  0  0  0  0  0
    3.6596   -1.0844   -1.2040 H   0  0  0  0  0  0  0  0  0  0  0  0
    6.6620   -3.7845   -1.3644 H   0  0  0  0  0  0  0  0  0  0  0  0
    7.0812   -2.0994   -1.5476 H   0  0  0  0  0  0  0  0  0  0  0  0
    6.3735   -1.6040    0.7801 H   0  0  0  0  0  0  0  0  0  0  0  0
    5.4754   -3.2508    2.2452 H   0  0  0  0  0  0  0  0  0  0  0  0
    3.6045   -6.8862    0.0903 H   0  0  0  0  0  0  0  0  0  0  0  0
    5.2893   -6.6247   -0.3207 H   0  0  0  0  0  0  0  0  0  0  0  0
    5.5882   -8.7498    0.6879 H   0  0  0  0  0  0  0  0  0  0  0  0
    3.0512   -9.0508    1.0280 H   0  0  0  0  0  0  0  0  0  0  0  0
    4.0547   -9.7692    2.2570 H   0  0  0  0  0  0  0  0  0  0  0  0
    1.3757   -9.4349    3.0724 H   0  0  0  0  0  0  0  0  0  0  0  0
    0.2377   -8.2194    4.9118 H   0  0  0  0  0  0  0  0  0  0  0  0
    1.2549   -6.1532    5.8575 H   0  0  0  0  0  0  0  0  0  0  0  0
    3.3908   -5.2794    4.9384 H   0  0  0  0  0  0  0  0  0  0  0  0
    5.4005   -5.6684    3.5872 H   0  0  0  0  0  0  0  0  0  0  0  0
    5.9315   -8.2263    3.2866 H   0  0  0  0  0  0  0  0  0  0  0  0
    6.7706   -7.1680    2.1524 H   0  0  0  0  0  0  0  0  0  0  0  0
    2.6297   -4.9717    0.9241 H   0  0  0  0  0  0  0  0  0  0  0  0
    3.2501   -4.2720    2.3989 H   0  0  0  0  0  0  0  0  0  0  0  0
    4.3615   -4.5003   -1.0633 H   0  0  0  0  0  0  0  0  0  0  0  0
    1.7843   -3.6349   -0.6502 H   0  0  0  0  0  0  0  0  0  0  0  0
    1.3405   -3.0200   -2.9804 H   0  0  0  0  0  0  0  0  0  0  0  0
    3.0914   -2.1808   -4.4098 H   0  0  0  0  0  0  0  0  0  0  0  0
    4.6126   -4.7028   -3.2438 H   0  0  0  0  0  0  0  0  0  0  0  0
    4.9916   -3.8131   -4.7870 H   0  0  0  0  0  0  0  0  0  0  0  0
    5.3612   -1.7425   -3.5115 H   0  0  0  0  0  0  0  0  0  0  0  0
  2  1  1  1
  1 28  1  0
  2 22  1  0
  2 27  1  0
  2  3  1  0
  3  4  1  0
  3 29  1  0
  3 30  1  0
  4  5  1  0
  4  6  1  0
  4 31  1  6
  6 21  1  0
  6  7  1  0
  6 32  1  1
  8  7  1  6
  8 18  1  0
  8  9  1  0
  8 20  1  0
  9 10  1  0
  9 33  1  0
  9 34  1  0
 10 19  1  0
 10 11  1  0
 10 35  1  6
 11 12  1  0
 11 36  1  0
 11 37  1  0
 12 17  2  0
 12 13  1  0
 13 14  2  0
 13 38  1  0
 14 15  1  0
 14 39  1  0
 15 16  2  0
 15 40  1  0
 16 17  1  0
 16 41  1  0
 17 18  1  0
 18 19  1  0
 18 42  1  1
 19 43  1  0
 19 44  1  0
 20 21  1  0
 20 45  1  0
 20 46  1  0
 21 22  1  0
 22 23  1  0
 22 47  1  6
 23 24  2  0
 23 48  1  0
 24 25  1  0
 24 49  1  0
 25 27  1  0
 25 26  1  0
 25 50  1  6
 26 27  1  0
 26 51  1  0
 26 52  1  0
 27 53  1  6
M  END
>  <i_m_ct_stereo_status>  (80) 
1

>  <s_m_source_file>  (80) 
/var/tmp/pbs.5076255.sched01/tmpfev35gxg/05fxellcm.sdf

>  <i_m_source_file_index>  (80) 
33

>  <i_lp_mmshare_version>  (80) 
48012

>  <i_f3d_flags>  (80) 
0

>  <s_epik_input>  (80) 
W0NIXTE9W0NIXVtDQEhdKFtDSDJdMilbQ0BIXTJbQ0BdKFtPSF0pKFtDSDJdW0NAQEhdM0YpW0NASF0xTihbQ0gyXTQpW0NASF0zT1tDQEBdNDVbQ0BIXTZjN2MoW0NIMl1bQ0BASF0oW0NIMl01KVtDSDJdNilbY0hdW2NIXVtjSF1bY0hdNw==

>  <s_epik_cmdline>  (80) 
J2VwaWtfcHl0aG9uJywgJy1waHQnLCAnMi4wJywgJy1waCcsICc3LjAnLCAnLXRuJywgJzgnLCAnLW1hJywgJzIwMCcsICctaW1hZScsICc8aW5maWxlLm1hZT4nLCAnLW9tYWUnLCAnPG91dGZpbGUubWFlPic=

>  <r_epik_Ionization_Penalty>  (80) 
0.0517863

>  <r_epik_Ionization_Penalty_Charging>  (80) 
0

>  <r_epik_Ionization_Penalty_Neutral>  (80) 
0.0517863

>  <r_epik_State_Penalty>  (80) 
0.0443858

>  <r_epik_Charging_Adjusted_Penalty>  (80) 
0.0443858

>  <i_epik_Tot_Q>  (80) 
0

>  <i_epik_Tot_abs_Q>  (80) 
0

>  <s_epik_Chemistry_Notes>  (80) 
This compound contains an acetal/aminal-like group ( X-CH(R)-Y where X, Y are N, S, or O) that may be acid/base labile, releasing an aldehyde.

>  <s_lp_Force_Field>  (80) 
OPLS3e

>  <r_lp_Energy>  (80) 
54.9632

>  <b_lp_Chiralities_Consistent>  (80) 
1

>  <s_lp_Variant>  (80) 
20:0-1

>  <s_i_glide_gridfile>  (80) 
pfpi4k_grid

>  <i_i_glide_lignum>  (80) 
33

>  <i_i_glide_rotatable_bonds>  (80) 
1

>  <r_i_docking_score>  (80) 
-3.52007

>  <r_i_glide_ligand_efficiency>  (80) 
-0.130373

>  <r_i_glide_ligand_efficiency_sa>  (80) 
-0.391119

>  <r_i_glide_ligand_efficiency_ln>  (80) 
-0.819414

>  <r_i_glide_gscore>  (80) 
-3.52007

>  <r_i_glide_lipo>  (80) 
-0.856292

>  <r_i_glide_hbond>  (80) 
0

>  <r_i_glide_metal>  (80) 
-0

>  <r_i_glide_rewards>  (80) 
-1.12914

>  <r_i_glide_evdw>  (80) 
-29.5757

>  <r_i_glide_ecoul>  (80) 
-0.372302

>  <r_i_glide_erotb>  (80) 
0

>  <r_i_glide_esite>  (80) 
0

>  <r_i_glide_emodel>  (80) 
-36.1569

>  <r_i_glide_energy>  (80) 
-29.948

>  <r_i_glide_einternal>  (80) 
0.110208

>  <r_i_glide_intrahb_reward>  (80) 
-0

>  <i_i_glide_confnum>  (80) 
1

>  <i_i_glide_posenum>  (80) 
23

>  <r_i_glide_eff_state_penalty>  (80) 
0

>  <ligand_id>  (80) 
20

>  <original_smiles>  (80) 
OC12CC(F)C3OC4(CC5Cc6ccccc6C4C5)CN3C1C=CC1CC12

>  <smiles>  (80) 
[H]OC12C([H])(C([H])=C([H])C3([H])C([H])([H])C31[H])N1C([H])([H])C3(OC1([H])C([H])(F)C2([H])[H])C([H])([H])C1([H])C([H])([H])c2c([H])c([H])c([H])c([H])c2C3([H])C1([H])[H]

$$$$
20:0:1
     RDKit          3D

 53 59  0  0  1  0  0  0  0  0999 V2000
    4.1820   -1.0333   -1.2961 O   0  0  0  0  0  0  0  0  0  0  0  0
    4.6079   -2.3619   -1.5220 C   0  0  1  0  0  0  0  0  0  0  0  0
    5.9655   -2.5615   -0.8544 C   0  0  0  0  0  0  0  0  0  0  0  0
    5.8407   -2.3097    0.6505 C   0  0  2  0  0  0  0  0  0  0  0  0
    6.9934   -2.6049    1.2405 F   0  0  0  0  0  0  0  0  0  0  0  0
    4.7154   -3.1739    1.2655 C   0  0  2  0  0  0  0  0  0  0  0  0
    5.1131   -4.5002    1.3721 O   0  0  0  0  0  0  0  0  0  0  0  0
    3.9315   -5.2756    1.5958 C   0  0  1  0  0  0  0  0  0  0  0  0
    4.0377   -6.5123    0.6852 C   0  0  0  0  0  0  0  0  0  0  0  0
    4.3032   -7.7184    1.6151 C   0  0  2  0  0  0  0  0  0  0  0  0
    2.9992   -8.4582    1.9962 C   0  0  0  0  0  0  0  0  0  0  0  0
    2.0962   -7.6315    2.9126 C   0  0  0  0  0  0  0  0  0  0  0  0
    0.8215   -8.1242    3.2689 C   0  0  0  0  0  0  0  0  0  0  0  0
    0.0055   -7.3870    4.1516 C   0  0  0  0  0  0  0  0  0  0  0  0
    0.4655   -6.1668    4.6858 C   0  0  0  0  0  0  0  0  0  0  0  0
    1.7368   -5.6685    4.3291 C   0  0  0  0  0  0  0  0  0  0  0  0
    2.5477   -6.3923    3.4280 C   0  0  0  0  0  0  0  0  0  0  0  0
    3.9330   -5.8705    3.0258 C   0  0  1  0  0  0  0  0  0  0  0  0
    4.8847   -7.0576    2.8652 C   0  0  0  0  0  0  0  0  0  0  0  0
    2.7955   -4.2850    1.2345 C   0  0  0  0  0  0  0  0  0  0  0  0
    3.4336   -3.1611    0.5724 N   0  0  0  0  0  0  0  0  0  0  0  0
    3.5953   -3.3531   -0.8894 C   0  0  1  0  0  0  0  0  0  0  0  0
    2.2802   -3.3408   -1.6656 C   0  0  0  0  0  0  0  0  0  0  0  0
    2.2303   -3.0811   -2.9903 C   0  0  0  0  0  0  0  0  0  0  0  0
    3.4423   -2.8298   -3.7858 C   0  0  2  0  0  0  0  0  0  0  0  0
    4.6230   -3.7862   -3.7816 C   0  0  0  0  0  0  0  0  0  0  0  0
    4.6946   -2.4855   -3.0341 C   0  0  2  0  0  0  0  0  0  0  0  0
    3.2449   -1.0093   -1.4488 H   0  0  0  0  0  0  0  0  0  0  0  0
    6.3148   -3.5768   -1.0397 H   0  0  0  0  0  0  0  0  0  0  0  0
    6.7035   -1.8785   -1.2654 H   0  0  0  0  0  0  0  0  0  0  0  0
    5.6298   -1.2592    0.8658 H   0  0  0  0  0  0  0  0  0  0  0  0
    4.5418   -2.8314    2.2894 H   0  0  0  0  0  0  0  0  0  0  0  0
    3.1295   -6.6284    0.0947 H   0  0  0  0  0  0  0  0  0  0  0  0
    4.8536   -6.3863   -0.0279 H   0  0  0  0  0  0  0  0  0  0  0  0
    5.0032   -8.4182    1.1558 H   0  0  0  0  0  0  0  0  0  0  0  0
    2.4465   -8.7722    1.1119 H   0  0  0  0  0  0  0  0  0  0  0  0
    3.2546   -9.3724    2.5320 H   0  0  0  0  0  0  0  0  0  0  0  0
    0.4736   -9.0748    2.8796 H   0  0  0  0  0  0  0  0  0  0  0  0
   -0.9705   -7.7738    4.4325 H   0  0  0  0  0  0  0  0  0  0  0  0
   -0.1544   -5.6135    5.3824 H   0  0  0  0  0  0  0  0  0  0  0  0
    2.0908   -4.7380    4.7536 H   0  0  0  0  0  0  0  0  0  0  0  0
    4.2972   -5.1631    3.7694 H   0  0  0  0  0  0  0  0  0  0  0  0
    4.9132   -7.7173    3.7336 H   0  0  0  0  0  0  0  0  0  0  0  0
    5.9022   -6.7128    2.6774 H   0  0  0  0  0  0  0  0  0  0  0  0
    1.9847   -4.7325    0.6529 H   0  0  0  0  0  0  0  0  0  0  0  0
    2.3447   -3.9152    2.1560 H   0  0  0  0  0  0  0  0  0  0  0  0
    4.0037   -4.3494   -1.0587 H   0  0  0  0  0  0  0  0  0  0  0  0
    1.3691   -3.5294   -1.1265 H   0  0  0  0  0  0  0  0  0  0  0  0
    1.3010   -3.0608   -3.5381 H   0  0  0  0  0  0  0  0  0  0  0  0
    3.2339   -2.2653   -4.6813 H   0  0  0  0  0  0  0  0  0  0  0  0
    4.5989   -4.6825   -3.1821 H   0  0  0  0  0  0  0  0  0  0  0  0
    5.2129   -3.8701   -4.6870 H   0  0  0  0  0  0  0  0  0  0  0  0
    5.3054   -1.7321   -3.4912 H   0  0  0  0  0  0  0  0  0  0  0  0
  2  1  1  6
  1 28  1  0
  2 22  1  0
  2 27  1  0
  2  3  1  0
  3  4  1  0
  3 29  1  0
  3 30  1  0
  4  5  1  0
  4  6  1  0
  4 31  1  6
  6 21  1  0
  6  7  1  0
  6 32  1  1
  8  7  1  1
  8 18  1  0
  8  9  1  0
  8 20  1  0
  9 10  1  0
  9 33  1  0
  9 34  1  0
 10 19  1  0
 10 11  1  0
 10 35  1  6
 11 12  1  0
 11 36  1  0
 11 37  1  0
 12 17  2  0
 12 13  1  0
 13 14  2  0
 13 38  1  0
 14 15  1  0
 14 39  1  0
 15 16  2  0
 15 40  1  0
 16 17  1  0
 16 41  1  0
 17 18  1  0
 18 19  1  0
 18 42  1  1
 19 43  1  0
 19 44  1  0
 20 21  1  0
 20 45  1  0
 20 46  1  0
 21 22  1  0
 22 23  1  0
 22 47  1  1
 23 24  2  0
 23 48  1  0
 24 25  1  0
 24 49  1  0
 25 27  1  0
 25 26  1  0
 25 50  1  6
 26 27  1  0
 26 51  1  0
 26 52  1  0
 27 53  1  6
M  END
>  <i_m_ct_stereo_status>  (81) 
1

>  <s_m_source_file>  (81) 
/var/tmp/pbs.5076255.sched01/tmpfev35gxg/05fxellcm.sdf

>  <i_m_source_file_index>  (81) 
33

>  <i_lp_mmshare_version>  (81) 
48012

>  <i_f3d_flags>  (81) 
0

>  <s_epik_input>  (81) 
W0NIXTE9W0NIXVtDQEhdKFtDSDJdMilbQ0BIXTJbQ0BdKFtPSF0pKFtDSDJdW0NAQEhdM0YpW0NASF0xTihbQ0gyXTQpW0NASF0zT1tDQEBdNDVbQ0BIXTZjN2MoW0NIMl1bQ0BASF0oW0NIMl01KVtDSDJdNilbY0hdW2NIXVtjSF1bY0hdNw==

>  <s_epik_cmdline>  (81) 
J2VwaWtfcHl0aG9uJywgJy1waHQnLCAnMi4wJywgJy1waCcsICc3LjAnLCAnLXRuJywgJzgnLCAnLW1hJywgJzIwMCcsICctaW1hZScsICc8aW5maWxlLm1hZT4nLCAnLW9tYWUnLCAnPG91dGZpbGUubWFlPic=

>  <r_epik_Ionization_Penalty>  (81) 
0.0517863

>  <r_epik_Ionization_Penalty_Charging>  (81) 
0

>  <r_epik_Ionization_Penalty_Neutral>  (81) 
0.0517863

>  <r_epik_State_Penalty>  (81) 
0.0443858

>  <r_epik_Charging_Adjusted_Penalty>  (81) 
0.0443858

>  <i_epik_Tot_Q>  (81) 
0

>  <i_epik_Tot_abs_Q>  (81) 
0

>  <s_epik_Chemistry_Notes>  (81) 
This compound contains an acetal/aminal-like group ( X-CH(R)-Y where X, Y are N, S, or O) that may be acid/base labile, releasing an aldehyde.

>  <s_lp_Force_Field>  (81) 
OPLS3e

>  <r_lp_Energy>  (81) 
54.9632

>  <b_lp_Chiralities_Consistent>  (81) 
1

>  <s_lp_Variant>  (81) 
20:0-1

>  <s_i_glide_gridfile>  (81) 
pfpi4k_grid

>  <i_i_glide_lignum>  (81) 
33

>  <i_i_glide_rotatable_bonds>  (81) 
1

>  <r_i_docking_score>  (81) 
-3.4654

>  <r_i_glide_ligand_efficiency>  (81) 
-0.128348

>  <r_i_glide_ligand_efficiency_sa>  (81) 
-0.385045

>  <r_i_glide_ligand_efficiency_ln>  (81) 
-0.806689

>  <r_i_glide_gscore>  (81) 
-3.4654

>  <r_i_glide_lipo>  (81) 
-0.909696

>  <r_i_glide_hbond>  (81) 
0

>  <r_i_glide_metal>  (81) 
-0

>  <r_i_glide_rewards>  (81) 
-0.98365

>  <r_i_glide_evdw>  (81) 
-29.6734

>  <r_i_glide_ecoul>  (81) 
-0.589255

>  <r_i_glide_erotb>  (81) 
0

>  <r_i_glide_esite>  (81) 
0

>  <r_i_glide_emodel>  (81) 
-36.167

>  <r_i_glide_energy>  (81) 
-30.2627

>  <r_i_glide_einternal>  (81) 
0.260116

>  <r_i_glide_intrahb_reward>  (81) 
-0

>  <i_i_glide_confnum>  (81) 
1

>  <i_i_glide_posenum>  (81) 
24

>  <r_i_glide_eff_state_penalty>  (81) 
0

>  <ligand_id>  (81) 
20

>  <original_smiles>  (81) 
OC12CC(F)C3OC4(CC5Cc6ccccc6C4C5)CN3C1C=CC1CC12

>  <smiles>  (81) 
[H]OC12C([H])(C([H])=C([H])C3([H])C([H])([H])C31[H])N1C([H])([H])C3(OC1([H])C([H])(F)C2([H])[H])C([H])([H])C1([H])C([H])([H])c2c([H])c([H])c([H])c([H])c2C3([H])C1([H])[H]

$$$$
20:0:2
     RDKit          3D

 53 59  0  0  1  0  0  0  0  0999 V2000
    2.7700   -8.9044    2.5995 O   0  0  0  0  0  0  0  0  0  0  0  0
    2.6648   -7.6135    3.1817 C   0  0  1  0  0  0  0  0  0  0  0  0
    3.9824   -7.2583    3.8867 C   0  0  0  0  0  0  0  0  0  0  0  0
    5.1393   -7.2739    2.8786 C   0  0  2  0  0  0  0  0  0  0  0  0
    6.2769   -6.8746    3.4471 F   0  0  0  0  0  0  0  0  0  0  0  0
    4.8254   -6.3587    1.6716 C   0  0  2  0  0  0  0  0  0  0  0  0
    4.9690   -5.0171    2.0077 O   0  0  0  0  0  0  0  0  0  0  0  0
    4.3295   -4.2521    0.9817 C   0  0  1  0  0  0  0  0  0  0  0  0
    3.5057   -3.1536    1.6907 C   0  0  0  0  0  0  0  0  0  0  0  0
    4.2595   -1.8260    1.4413 C   0  0  2  0  0  0  0  0  0  0  0  0
    3.6949   -1.0667    0.2169 C   0  0  0  0  0  0  0  0  0  0  0  0
    3.9943   -1.7613   -1.1089 C   0  0  0  0  0  0  0  0  0  0  0  0
    3.4487   -1.2721   -2.3179 C   0  0  0  0  0  0  0  0  0  0  0  0
    3.7556   -1.8938   -3.5394 C   0  0  0  0  0  0  0  0  0  0  0  0
    4.6097   -3.0100   -3.5571 C   0  0  0  0  0  0  0  0  0  0  0  0
    5.1547   -3.5037   -2.3594 C   0  0  0  0  0  0  0  0  0  0  0  0
    4.8367   -2.9003   -1.1294 C   0  0  0  0  0  0  0  0  0  0  0  0
    5.3936   -3.4546    0.1837 C   0  0  1  0  0  0  0  0  0  0  0  0
    5.6845   -2.2873    1.1289 C   0  0  0  0  0  0  0  0  0  0  0  0
    3.5091   -5.3237    0.2203 C   0  0  0  0  0  0  0  0  0  0  0  0
    3.5150   -6.5142    1.0539 N   0  0  0  0  0  0  0  0  0  0  0  0
    2.4260   -6.5545    2.0593 C   0  0  1  0  0  0  0  0  0  0  0  0
    1.0300   -6.7179    1.4538 C   0  0  0  0  0  0  0  0  0  0  0  0
   -0.0184   -7.1457    2.1862 C   0  0  0  0  0  0  0  0  0  0  0  0
    0.1000   -7.4892    3.6257 C   0  0  2  0  0  0  0  0  0  0  0  0
    0.6982   -6.5178    4.6272 C   0  0  0  0  0  0  0  0  0  0  0  0
    1.4951   -7.7119    4.1608 C   0  0  2  0  0  0  0  0  0  0  0  0
    2.8389   -9.5536    3.2834 H   0  0  0  0  0  0  0  0  0  0  0  0
    3.8961   -6.2731    4.3468 H   0  0  0  0  0  0  0  0  0  0  0  0
    4.1881   -7.9623    4.6909 H   0  0  0  0  0  0  0  0  0  0  0  0
    5.3130   -8.2858    2.5104 H   0  0  0  0  0  0  0  0  0  0  0  0
    5.5771   -6.5527    0.9029 H   0  0  0  0  0  0  0  0  0  0  0  0
    2.4807   -3.1070    1.3217 H   0  0  0  0  0  0  0  0  0  0  0  0
    3.4513   -3.3655    2.7593 H   0  0  0  0  0  0  0  0  0  0  0  0
    4.2164   -1.1864    2.3237 H   0  0  0  0  0  0  0  0  0  0  0  0
    2.6205   -0.9130    0.3276 H   0  0  0  0  0  0  0  0  0  0  0  0
    4.1473   -0.0743    0.1724 H   0  0  0  0  0  0  0  0  0  0  0  0
    2.7836   -0.4198   -2.3202 H   0  0  0  0  0  0  0  0  0  0  0  0
    3.3238   -1.5158   -4.4576 H   0  0  0  0  0  0  0  0  0  0  0  0
    4.8462   -3.5049   -4.4866 H   0  0  0  0  0  0  0  0  0  0  0  0
    5.8034   -4.3610   -2.3898 H   0  0  0  0  0  0  0  0  0  0  0  0
    6.2898   -4.0435   -0.0101 H   0  0  0  0  0  0  0  0  0  0  0  0
    6.3010   -1.5056    0.6825 H   0  0  0  0  0  0  0  0  0  0  0  0
    6.1858   -2.6313    2.0353 H   0  0  0  0  0  0  0  0  0  0  0  0
    2.5132   -4.9949   -0.0755 H   0  0  0  0  0  0  0  0  0  0  0  0
    4.0371   -5.5646   -0.7036 H   0  0  0  0  0  0  0  0  0  0  0  0
    2.3971   -5.5827    2.5533 H   0  0  0  0  0  0  0  0  0  0  0  0
    0.9024   -6.4966    0.4031 H   0  0  0  0  0  0  0  0  0  0  0  0
   -0.9940   -7.2896    1.7448 H   0  0  0  0  0  0  0  0  0  0  0  0
   -0.6791   -8.1643    3.9728 H   0  0  0  0  0  0  0  0  0  0  0  0
    0.9762   -5.5246    4.2787 H   0  0  0  0  0  0  0  0  0  0  0  0
    0.3263   -6.5609    5.6455 H   0  0  0  0  0  0  0  0  0  0  0  0
    1.6026   -8.5026    4.8972 H   0  0  0  0  0  0  0  0  0  0  0  0
  2  1  1  6
  1 28  1  0
  2 22  1  0
  2 27  1  0
  2  3  1  0
  3  4  1  0
  3 29  1  0
  3 30  1  0
  4  5  1  0
  4  6  1  0
  4 31  1  6
  6 21  1  0
  6  7  1  0
  6 32  1  6
  8  7  1  1
  8 18  1  0
  8  9  1  0
  8 20  1  0
  9 10  1  0
  9 33  1  0
  9 34  1  0
 10 19  1  0
 10 11  1  0
 10 35  1  1
 11 12  1  0
 11 36  1  0
 11 37  1  0
 12 17  2  0
 12 13  1  0
 13 14  2  0
 13 38  1  0
 14 15  1  0
 14 39  1  0
 15 16  2  0
 15 40  1  0
 16 17  1  0
 16 41  1  0
 17 18  1  0
 18 19  1  0
 18 42  1  6
 19 43  1  0
 19 44  1  0
 20 21  1  0
 20 45  1  0
 20 46  1  0
 21 22  1  0
 22 23  1  0
 22 47  1  1
 23 24  2  0
 23 48  1  0
 24 25  1  0
 24 49  1  0
 25 27  1  0
 25 26  1  0
 25 50  1  1
 26 27  1  0
 26 51  1  0
 26 52  1  0
 27 53  1  1
M  END
>  <i_m_ct_stereo_status>  (82) 
1

>  <s_m_source_file>  (82) 
/var/tmp/pbs.5076255.sched01/tmpfev35gxg/05fxellcm.sdf

>  <i_m_source_file_index>  (82) 
33

>  <i_lp_mmshare_version>  (82) 
48012

>  <i_f3d_flags>  (82) 
0

>  <s_epik_input>  (82) 
W0NIXTE9W0NIXVtDQEhdKFtDSDJdMilbQ0BIXTJbQ0BdKFtPSF0pKFtDSDJdW0NAQEhdM0YpW0NASF0xTihbQ0gyXTQpW0NASF0zT1tDQEBdNDVbQ0BIXTZjN2MoW0NIMl1bQ0BASF0oW0NIMl01KVtDSDJdNilbY0hdW2NIXVtjSF1bY0hdNw==

>  <s_epik_cmdline>  (82) 
J2VwaWtfcHl0aG9uJywgJy1waHQnLCAnMi4wJywgJy1waCcsICc3LjAnLCAnLXRuJywgJzgnLCAnLW1hJywgJzIwMCcsICctaW1hZScsICc8aW5maWxlLm1hZT4nLCAnLW9tYWUnLCAnPG91dGZpbGUubWFlPic=

>  <r_epik_Ionization_Penalty>  (82) 
0.0517863

>  <r_epik_Ionization_Penalty_Charging>  (82) 
0

>  <r_epik_Ionization_Penalty_Neutral>  (82) 
0.0517863

>  <r_epik_State_Penalty>  (82) 
0.0443858

>  <r_epik_Charging_Adjusted_Penalty>  (82) 
0.0443858

>  <i_epik_Tot_Q>  (82) 
0

>  <i_epik_Tot_abs_Q>  (82) 
0

>  <s_epik_Chemistry_Notes>  (82) 
This compound contains an acetal/aminal-like group ( X-CH(R)-Y where X, Y are N, S, or O) that may be acid/base labile, releasing an aldehyde.

>  <s_lp_Force_Field>  (82) 
OPLS3e

>  <r_lp_Energy>  (82) 
54.9632

>  <b_lp_Chiralities_Consistent>  (82) 
1

>  <s_lp_Variant>  (82) 
20:0-1

>  <s_i_glide_gridfile>  (82) 
pfpi4k_grid

>  <i_i_glide_lignum>  (82) 
33

>  <i_i_glide_rotatable_bonds>  (82) 
1

>  <r_i_docking_score>  (82) 
-3.16262

>  <r_i_glide_ligand_efficiency>  (82) 
-0.117134

>  <r_i_glide_ligand_efficiency_sa>  (82) 
-0.351402

>  <r_i_glide_ligand_efficiency_ln>  (82) 
-0.736206

>  <r_i_glide_gscore>  (82) 
-3.16262

>  <r_i_glide_lipo>  (82) 
-0.686144

>  <r_i_glide_hbond>  (82) 
0

>  <r_i_glide_metal>  (82) 
-0

>  <r_i_glide_rewards>  (82) 
-0.97858

>  <r_i_glide_evdw>  (82) 
-30.1123

>  <r_i_glide_ecoul>  (82) 
0.051449

>  <r_i_glide_erotb>  (82) 
0

>  <r_i_glide_esite>  (82) 
0

>  <r_i_glide_emodel>  (82) 
-35.7091

>  <r_i_glide_energy>  (82) 
-30.0608

>  <r_i_glide_einternal>  (82) 
0.019627

>  <r_i_glide_intrahb_reward>  (82) 
-0

>  <i_i_glide_confnum>  (82) 
2

>  <i_i_glide_posenum>  (82) 
2

>  <r_i_glide_eff_state_penalty>  (82) 
0

>  <ligand_id>  (82) 
20

>  <original_smiles>  (82) 
OC12CC(F)C3OC4(CC5Cc6ccccc6C4C5)CN3C1C=CC1CC12

>  <smiles>  (82) 
[H]OC12C([H])(C([H])=C([H])C3([H])C([H])([H])C31[H])N1C([H])([H])C3(OC1([H])C([H])(F)C2([H])[H])C([H])([H])C1([H])C([H])([H])c2c([H])c([H])c([H])c([H])c2C3([H])C1([H])[H]

$$$$
20:1:0
     RDKit          3D

 54 60  0  0  1  0  0  0  0  0999 V2000
    0.7843   -8.2579    1.6807 O   0  0  0  0  0  0  0  0  0  0  0  0
    0.9531   -8.6946    3.0199 C   0  0  1  0  0  0  0  0  0  0  0  0
    1.4677  -10.1479    3.0067 C   0  0  0  0  0  0  0  0  0  0  0  0
    2.9871  -10.2604    3.2371 C   0  0  2  0  0  0  0  0  0  0  0  0
    3.2935  -10.1498    4.5287 F   0  0  0  0  0  0  0  0  0  0  0  0
    3.7844   -9.2185    2.4057 C   0  0  2  0  0  0  0  0  0  0  0  0
    5.1177   -9.1970    2.8281 O   0  0  0  0  0  0  0  0  0  0  0  0
    5.6169   -7.8572    2.7920 C   0  0  1  0  0  0  0  0  0  0  0  0
    6.9454   -7.7440    3.5903 C   0  0  0  0  0  0  0  0  0  0  0  0
    8.0792   -7.6309    2.5433 C   0  0  2  0  0  0  0  0  0  0  0  0
    8.4706   -6.1646    2.2424 C   0  0  0  0  0  0  0  0  0  0  0  0
    7.3784   -5.4015    1.5019 C   0  0  0  0  0  0  0  0  0  0  0  0
    7.5363   -4.0340    1.2309 C   0  0  0  0  0  0  0  0  0  0  0  0
    6.5373   -3.3230    0.5440 C   0  0  0  0  0  0  0  0  0  0  0  0
    5.3879   -4.0000    0.0760 C   0  0  0  0  0  0  0  0  0  0  0  0
    5.2306   -5.3759    0.3230 C   0  0  0  0  0  0  0  0  0  0  0  0
    6.2086   -6.0753    1.0521 C   0  0  0  0  0  0  0  0  0  0  0  0
    6.0550   -7.5611    1.3379 C   0  0  1  0  0  0  0  0  0  0  0  0
    7.4293   -8.2288    1.3064 C   0  0  0  0  0  0  0  0  0  0  0  0
    4.4200   -7.0656    3.3709 C   0  0  0  0  0  0  0  0  0  0  0  0
    3.2279   -7.7609    2.8501 N   0  0  2  0  0  0  0  0  0  0  0  0
    1.9915   -7.7369    3.6724 C   0  0  1  0  0  0  0  0  0  0  0  0
    1.4119   -6.3369    3.8613 C   0  0  0  0  0  0  0  0  0  0  0  0
    0.1047   -6.1474    4.1322 C   0  0  0  0  0  0  0  0  0  0  0  0
   -0.8455   -7.2687    4.2322 C   0  0  2  0  0  0  0  0  0  0  0  0
   -0.5867   -8.4383    5.1589 C   0  0  0  0  0  0  0  0  0  0  0  0
   -0.4174   -8.6019    3.6686 C   0  0  2  0  0  0  0  0  0  0  0  0
    0.3379   -8.9190    1.1590 H   0  0  0  0  0  0  0  0  0  0  0  0
    0.9579  -10.7214    3.7912 H   0  0  0  0  0  0  0  0  0  0  0  0
    1.1809  -10.6378    2.0769 H   0  0  0  0  0  0  0  0  0  0  0  0
    3.3225  -11.2565    2.9411 H   0  0  0  0  0  0  0  0  0  0  0  0
    3.7305   -9.3902    1.3263 H   0  0  0  0  0  0  0  0  0  0  0  0
    6.9752   -6.8874    4.2657 H   0  0  0  0  0  0  0  0  0  0  0  0
    7.0988   -8.6339    4.2071 H   0  0  0  0  0  0  0  0  0  0  0  0
    8.9663   -8.1895    2.8481 H   0  0  0  0  0  0  0  0  0  0  0  0
    8.7610   -5.6384    3.1526 H   0  0  0  0  0  0  0  0  0  0  0  0
    9.3598   -6.1589    1.6095 H   0  0  0  0  0  0  0  0  0  0  0  0
    8.4260   -3.5219    1.5737 H   0  0  0  0  0  0  0  0  0  0  0  0
    6.6448   -2.2633    0.3804 H   0  0  0  0  0  0  0  0  0  0  0  0
    4.6336   -3.4619   -0.4732 H   0  0  0  0  0  0  0  0  0  0  0  0
    4.3649   -5.8981   -0.0629 H   0  0  0  0  0  0  0  0  0  0  0  0
    5.3930   -8.0071    0.5919 H   0  0  0  0  0  0  0  0  0  0  0  0
    8.0213   -8.0229    0.4167 H   0  0  0  0  0  0  0  0  0  0  0  0
    7.3358   -9.3101    1.3978 H   0  0  0  0  0  0  0  0  0  0  0  0
    4.4351   -7.1295    4.4615 H   0  0  0  0  0  0  0  0  0  0  0  0
    4.4293   -6.0021    3.1162 H   0  0  0  0  0  0  0  0  0  0  0  0
    2.2110   -8.0739    4.6864 H   0  0  0  0  0  0  0  0  0  0  0  0
    2.0731   -5.4877    3.8241 H   0  0  0  0  0  0  0  0  0  0  0  0
   -0.3077   -5.1669    4.3166 H   0  0  0  0  0  0  0  0  0  0  0  0
   -1.8792   -6.9716    4.0783 H   0  0  0  0  0  0  0  0  0  0  0  0
    0.2816   -8.3779    5.8105 H   0  0  0  0  0  0  0  0  0  0  0  0
   -1.4559   -8.9341    5.5756 H   0  0  0  0  0  0  0  0  0  0  0  0
   -1.1967   -9.1921    3.1890 H   0  0  0  0  0  0  0  0  0  0  0  0
    2.9385   -7.2705    2.0163 H   0  0  0  0  0  0  0  0  0  0  0  0
  2  1  1  6
  1 28  1  0
  2 22  1  0
  2 27  1  0
  2  3  1  0
  3  4  1  0
  3 29  1  0
  3 30  1  0
  4  5  1  0
  4  6  1  0
  4 31  1  6
  6 21  1  0
  6  7  1  0
  6 32  1  6
  8  7  1  6
  8 18  1  0
  8  9  1  0
  8 20  1  0
  9 10  1  0
  9 33  1  0
  9 34  1  0
 10 19  1  0
 10 11  1  0
 10 35  1  1
 11 12  1  0
 11 36  1  0
 11 37  1  0
 12 17  2  0
 12 13  1  0
 13 14  2  0
 13 38  1  0
 14 15  1  0
 14 39  1  0
 15 16  2  0
 15 40  1  0
 16 17  1  0
 16 41  1  0
 17 18  1  0
 18 19  1  0
 18 42  1  6
 19 43  1  0
 19 44  1  0
 20 21  1  0
 20 45  1  0
 20 46  1  0
 21 22  1  0
 21 54  1  6
 22 23  1  0
 22 47  1  1
 23 24  2  0
 23 48  1  0
 24 25  1  0
 24 49  1  0
 25 27  1  0
 25 26  1  0
 25 50  1  6
 26 27  1  0
 26 51  1  0
 26 52  1  0
 27 53  1  6
M  CHG  1  21   1
M  END
>  <i_m_ct_stereo_status>  (83) 
1

>  <s_m_source_file>  (83) 
/var/tmp/pbs.5076255.sched01/tmpfev35gxg/05fxellcm.sdf

>  <i_m_source_file_index>  (83) 
34

>  <i_lp_mmshare_version>  (83) 
48012

>  <i_f3d_flags>  (83) 
0

>  <s_epik_input>  (83) 
W0NIXTE9W0NIXVtDQEhdKFtDSDJdMilbQ0BIXTJbQ0BdKFtPSF0pKFtDSDJdW0NAQEhdM0YpW0NASF0xTihbQ0gyXTQpW0NASF0zT1tDQEBdNDVbQ0BIXTZjN2MoW0NIMl1bQ0BASF0oW0NIMl01KVtDSDJdNilbY0hdW2NIXVtjSF1bY0hdNw==

>  <s_epik_cmdline>  (83) 
J2VwaWtfcHl0aG9uJywgJy1waHQnLCAnMi4wJywgJy1waCcsICc3LjAnLCAnLXRuJywgJzgnLCAnLW1hJywgJzIwMCcsICctaW1hZScsICc8aW5maWxlLm1hZT4nLCAnLW9tYWUnLCAnPG91dGZpbGUubWFlPic=

>  <r_epik_Ionization_Penalty>  (83) 
1.46971

>  <r_epik_Ionization_Penalty_Charging>  (83) 
1.46971

>  <r_epik_Ionization_Penalty_Neutral>  (83) 
6.11264e-07

>  <r_epik_State_Penalty>  (83) 
1.55743

>  <r_epik_Charging_Adjusted_Penalty>  (83) 
3.02714

>  <i_epik_Tot_Q>  (83) 
1

>  <i_epik_Tot_abs_Q>  (83) 
1

>  <s_epik_Chemistry_Notes>  (83) 
This compound contains an acetal/aminal-like group ( X-CH(R)-Y where X, Y are N, S, or O) that may be acid/base labile, releasing an aldehyde.

>  <s_lp_Force_Field>  (83) 
OPLS3e

>  <r_lp_Energy>  (83) 
45.7237

>  <b_lp_Chiralities_Consistent>  (83) 
1

>  <s_lp_Variant>  (83) 
20:0-2

>  <s_i_glide_gridfile>  (83) 
pfpi4k_grid

>  <i_i_glide_lignum>  (83) 
34

>  <i_i_glide_rotatable_bonds>  (83) 
1

>  <r_i_docking_score>  (83) 
-4.18979

>  <r_i_glide_ligand_efficiency>  (83) 
-0.155177

>  <r_i_glide_ligand_efficiency_sa>  (83) 
-0.465532

>  <r_i_glide_ligand_efficiency_ln>  (83) 
-0.975313

>  <r_i_glide_gscore>  (83) 
-4.18979

>  <r_i_glide_lipo>  (83) 
-0.785213

>  <r_i_glide_hbond>  (83) 
-0.32

>  <r_i_glide_metal>  (83) 
-0

>  <r_i_glide_rewards>  (83) 
-0.896834

>  <r_i_glide_evdw>  (83) 
-21.7571

>  <r_i_glide_ecoul>  (83) 
-7.06553

>  <r_i_glide_erotb>  (83) 
0

>  <r_i_glide_esite>  (83) 
-0.0400558

>  <r_i_glide_emodel>  (83) 
-36.5115

>  <r_i_glide_energy>  (83) 
-28.8226

>  <r_i_glide_einternal>  (83) 
0.263533

>  <r_i_glide_intrahb_reward>  (83) 
-0

>  <i_i_glide_confnum>  (83) 
1

>  <i_i_glide_posenum>  (83) 
4

>  <r_i_glide_eff_state_penalty>  (83) 
0

>  <ligand_id>  (83) 
20

>  <original_smiles>  (83) 
OC12CC(F)C3OC4(CC5Cc6ccccc6C4C5)CN3C1C=CC1CC12

>  <smiles>  (83) 
[H]OC12C([H])([H])C([H])(F)C3([H])OC4(C([H])([H])C5([H])C([H])([H])c6c([H])c([H])c([H])c([H])c6C4([H])C5([H])[H])C([H])([H])[N+]3([H])C1([H])C([H])=C([H])C1([H])C([H])([H])C12[H]

$$$$
20:1:1
     RDKit          3D

 54 60  0  0  1  0  0  0  0  0999 V2000
    3.4178   -1.2648   -0.0658 O   0  0  0  0  0  0  0  0  0  0  0  0
    4.3663   -1.7437   -1.0153 C   0  0  1  0  0  0  0  0  0  0  0  0
    5.7782   -1.4854   -0.4387 C   0  0  0  0  0  0  0  0  0  0  0  0
    6.4678   -2.7406    0.1139 C   0  0  2  0  0  0  0  0  0  0  0  0
    6.9833   -3.4653   -0.8775 F   0  0  0  0  0  0  0  0  0  0  0  0
    5.5084   -3.5830    0.9928 C   0  0  2  0  0  0  0  0  0  0  0  0
    6.0867   -4.8295    1.2857 O   0  0  0  0  0  0  0  0  0  0  0  0
    5.0583   -5.8245    1.3152 C   0  0  1  0  0  0  0  0  0  0  0  0
    5.6886   -7.2496    1.2780 C   0  0  0  0  0  0  0  0  0  0  0  0
    5.5556   -7.8476    2.7003 C   0  0  2  0  0  0  0  0  0  0  0  0
    4.2934   -8.7322    2.8464 C   0  0  0  0  0  0  0  0  0  0  0  0
    3.0025   -7.9172    2.7746 C   0  0  0  0  0  0  0  0  0  0  0  0
    1.7588   -8.5931    2.7831 C   0  0  0  0  0  0  0  0  0  0  0  0
    0.5695   -7.8392    2.7629 C   0  0  0  0  0  0  0  0  0  0  0  0
    0.6296   -6.4382    2.7541 C   0  0  0  0  0  0  0  0  0  0  0  0
    1.8612   -5.7563    2.7358 C   0  0  0  0  0  0  0  0  0  0  0  0
    3.0529   -6.5122    2.7337 C   0  0  0  0  0  0  0  0  0  0  0  0
    4.4025   -5.7953    2.7202 C   0  0  1  0  0  0  0  0  0  0  0  0
    5.3993   -6.6002    3.5606 C   0  0  0  0  0  0  0  0  0  0  0  0
    4.2091   -5.4238    0.0869 C   0  0  0  0  0  0  0  0  0  0  0  0
    4.2400   -3.9460    0.0671 N   0  0  2  0  0  0  0  0  0  0  0  0
    4.1200   -3.2507   -1.2377 C   0  0  1  0  0  0  0  0  0  0  0  0
    2.7823   -3.4485   -1.9437 C   0  0  0  0  0  0  0  0  0  0  0  0
    2.3445   -2.6065   -2.8987 C   0  0  0  0  0  0  0  0  0  0  0  0
    3.0627   -1.3685   -3.2332 C   0  0  2  0  0  0  0  0  0  0  0  0
    4.4845   -1.3898   -3.6796 C   0  0  0  0  0  0  0  0  0  0  0  0
    4.1453   -0.9195   -2.2816 C   0  0  2  0  0  0  0  0  0  0  0  0
    2.5303   -1.2294   -0.4549 H   0  0  0  0  0  0  0  0  0  0  0  0
    6.4021   -1.1121   -1.2491 H   0  0  0  0  0  0  0  0  0  0  0  0
    5.7606   -0.6893    0.3128 H   0  0  0  0  0  0  0  0  0  0  0  0
    7.3250   -2.4597    0.7213 H   0  0  0  0  0  0  0  0  0  0  0  0
    5.2121   -3.0709    1.9151 H   0  0  0  0  0  0  0  0  0  0  0  0
    5.2061   -7.9029    0.5447 H   0  0  0  0  0  0  0  0  0  0  0  0
    6.7411   -7.1904    0.9886 H   0  0  0  0  0  0  0  0  0  0  0  0
    6.4398   -8.4263    2.9681 H   0  0  0  0  0  0  0  0  0  0  0  0
    4.2724   -9.5287    2.1052 H   0  0  0  0  0  0  0  0  0  0  0  0
    4.3142   -9.2205    3.8189 H   0  0  0  0  0  0  0  0  0  0  0  0
    1.7114   -9.6717    2.8168 H   0  0  0  0  0  0  0  0  0  0  0  0
   -0.3902   -8.3476    2.7673 H   0  0  0  0  0  0  0  0  0  0  0  0
   -0.2764   -5.8582    2.7797 H   0  0  0  0  0  0  0  0  0  0  0  0
    1.8863   -4.6783    2.7434 H   0  0  0  0  0  0  0  0  0  0  0  0
    4.2884   -4.7898    3.1165 H   0  0  0  0  0  0  0  0  0  0  0  0
    5.0414   -6.8129    4.5667 H   0  0  0  0  0  0  0  0  0  0  0  0
    6.3507   -6.0737    3.6473 H   0  0  0  0  0  0  0  0  0  0  0  0
    4.6876   -5.8030   -0.8222 H   0  0  0  0  0  0  0  0  0  0  0  0
    3.1942   -5.8280    0.0939 H   0  0  0  0  0  0  0  0  0  0  0  0
    4.8698   -3.6506   -1.9273 H   0  0  0  0  0  0  0  0  0  0  0  0
    2.1604   -4.2712   -1.6848 H   0  0  0  0  0  0  0  0  0  0  0  0
    1.4151   -2.7701   -3.4192 H   0  0  0  0  0  0  0  0  0  0  0  0
    2.4294   -0.5943   -3.6460 H   0  0  0  0  0  0  0  0  0  0  0  0
    4.9680   -2.3546   -3.8066 H   0  0  0  0  0  0  0  0  0  0  0  0
    4.7211   -0.6252   -4.4152 H   0  0  0  0  0  0  0  0  0  0  0  0
    4.2193    0.1540   -2.1425 H   0  0  0  0  0  0  0  0  0  0  0  0
    3.4072   -3.6370    0.5530 H   0  0  0  0  0  0  0  0  0  0  0  0
  2  1  1  1
  1 28  1  0
  2 22  1  0
  2 27  1  0
  2  3  1  0
  3  4  1  0
  3 29  1  0
  3 30  1  0
  4  5  1  0
  4  6  1  0
  4 31  1  1
  6 21  1  0
  6  7  1  0
  6 32  1  1
  8  7  1  1
  8 18  1  0
  8  9  1  0
  8 20  1  0
  9 10  1  0
  9 33  1  0
  9 34  1  0
 10 19  1  0
 10 11  1  0
 10 35  1  1
 11 12  1  0
 11 36  1  0
 11 37  1  0
 12 17  2  0
 12 13  1  0
 13 14  2  0
 13 38  1  0
 14 15  1  0
 14 39  1  0
 15 16  2  0
 15 40  1  0
 16 17  1  0
 16 41  1  0
 17 18  1  0
 18 19  1  0
 18 42  1  1
 19 43  1  0
 19 44  1  0
 20 21  1  0
 20 45  1  0
 20 46  1  0
 21 22  1  0
 21 54  1  1
 22 23  1  0
 22 47  1  6
 23 24  2  0
 23 48  1  0
 24 25  1  0
 24 49  1  0
 25 27  1  0
 25 26  1  0
 25 50  1  6
 26 27  1  0
 26 51  1  0
 26 52  1  0
 27 53  1  1
M  CHG  1  21   1
M  END
>  <i_m_ct_stereo_status>  (84) 
1

>  <s_m_source_file>  (84) 
/var/tmp/pbs.5076255.sched01/tmpfev35gxg/05fxellcm.sdf

>  <i_m_source_file_index>  (84) 
34

>  <i_lp_mmshare_version>  (84) 
48012

>  <i_f3d_flags>  (84) 
0

>  <s_epik_input>  (84) 
W0NIXTE9W0NIXVtDQEhdKFtDSDJdMilbQ0BIXTJbQ0BdKFtPSF0pKFtDSDJdW0NAQEhdM0YpW0NASF0xTihbQ0gyXTQpW0NASF0zT1tDQEBdNDVbQ0BIXTZjN2MoW0NIMl1bQ0BASF0oW0NIMl01KVtDSDJdNilbY0hdW2NIXVtjSF1bY0hdNw==

>  <s_epik_cmdline>  (84) 
J2VwaWtfcHl0aG9uJywgJy1waHQnLCAnMi4wJywgJy1waCcsICc3LjAnLCAnLXRuJywgJzgnLCAnLW1hJywgJzIwMCcsICctaW1hZScsICc8aW5maWxlLm1hZT4nLCAnLW9tYWUnLCAnPG91dGZpbGUubWFlPic=

>  <r_epik_Ionization_Penalty>  (84) 
1.46971

>  <r_epik_Ionization_Penalty_Charging>  (84) 
1.46971

>  <r_epik_Ionization_Penalty_Neutral>  (84) 
6.11264e-07

>  <r_epik_State_Penalty>  (84) 
1.55743

>  <r_epik_Charging_Adjusted_Penalty>  (84) 
3.02714

>  <i_epik_Tot_Q>  (84) 
1

>  <i_epik_Tot_abs_Q>  (84) 
1

>  <s_epik_Chemistry_Notes>  (84) 
This compound contains an acetal/aminal-like group ( X-CH(R)-Y where X, Y are N, S, or O) that may be acid/base labile, releasing an aldehyde.

>  <s_lp_Force_Field>  (84) 
OPLS3e

>  <r_lp_Energy>  (84) 
45.7237

>  <b_lp_Chiralities_Consistent>  (84) 
1

>  <s_lp_Variant>  (84) 
20:0-2

>  <s_i_glide_gridfile>  (84) 
pfpi4k_grid

>  <i_i_glide_lignum>  (84) 
34

>  <i_i_glide_rotatable_bonds>  (84) 
1

>  <r_i_docking_score>  (84) 
-3.80981

>  <r_i_glide_ligand_efficiency>  (84) 
-0.141104

>  <r_i_glide_ligand_efficiency_sa>  (84) 
-0.423312

>  <r_i_glide_ligand_efficiency_ln>  (84) 
-0.88686

>  <r_i_glide_gscore>  (84) 
-3.80981

>  <r_i_glide_lipo>  (84) 
-0.486982

>  <r_i_glide_hbond>  (84) 
-0.16

>  <r_i_glide_metal>  (84) 
-0

>  <r_i_glide_rewards>  (84) 
-1.16703

>  <r_i_glide_evdw>  (84) 
-25.8938

>  <r_i_glide_ecoul>  (84) 
-4.67402

>  <r_i_glide_erotb>  (84) 
0

>  <r_i_glide_esite>  (84) 
0

>  <r_i_glide_emodel>  (84) 
-37.5065

>  <r_i_glide_energy>  (84) 
-30.5678

>  <r_i_glide_einternal>  (84) 
0.0907583

>  <r_i_glide_intrahb_reward>  (84) 
-0

>  <i_i_glide_confnum>  (84) 
1

>  <i_i_glide_posenum>  (84) 
10

>  <r_i_glide_eff_state_penalty>  (84) 
0

>  <ligand_id>  (84) 
20

>  <original_smiles>  (84) 
OC12CC(F)C3OC4(CC5Cc6ccccc6C4C5)CN3C1C=CC1CC12

>  <smiles>  (84) 
[H]OC12C([H])([H])C([H])(F)C3([H])OC4(C([H])([H])C5([H])C([H])([H])c6c([H])c([H])c([H])c([H])c6C4([H])C5([H])[H])C([H])([H])[N+]3([H])C1([H])C([H])=C([H])C1([H])C([H])([H])C12[H]

$$$$
20:1:2
     RDKit          3D

 54 60  0  0  1  0  0  0  0  0999 V2000
    4.5653   -8.7608    0.8765 O   0  0  0  0  0  0  0  0  0  0  0  0
    4.2490   -8.3994    2.2137 C   0  0  1  0  0  0  0  0  0  0  0  0
    5.5680   -8.3826    3.0060 C   0  0  0  0  0  0  0  0  0  0  0  0
    6.1001   -6.9553    3.2502 C   0  0  2  0  0  0  0  0  0  0  0  0
    5.4696   -6.3618    4.2692 F   0  0  0  0  0  0  0  0  0  0  0  0
    6.0335   -6.0707    1.9738 C   0  0  2  0  0  0  0  0  0  0  0  0
    6.2973   -4.7375    2.3074 O   0  0  0  0  0  0  0  0  0  0  0  0
    5.4893   -3.8727    1.5052 C   0  0  1  0  0  0  0  0  0  0  0  0
    5.4942   -2.4255    2.0965 C   0  0  0  0  0  0  0  0  0  0  0  0
    6.3911   -1.5664    1.1687 C   0  0  2  0  0  0  0  0  0  0  0  0
    5.5527   -0.8134    0.1173 C   0  0  0  0  0  0  0  0  0  0  0  0
    4.9601   -1.7358   -0.9340 C   0  0  0  0  0  0  0  0  0  0  0  0
    4.1052   -1.2208   -1.9267 C   0  0  0  0  0  0  0  0  0  0  0  0
    3.5479   -2.0712   -2.9024 C   0  0  0  0  0  0  0  0  0  0  0  0
    3.8993   -3.4216   -2.9144 C   0  0  0  0  0  0  0  0  0  0  0  0
    4.7703   -3.9490   -1.9350 C   0  0  0  0  0  0  0  0  0  0  0  0
    5.2857   -3.1121   -0.9287 C   0  0  0  0  0  0  0  0  0  0  0  0
    6.2078   -3.6751    0.1413 C   0  0  1  0  0  0  0  0  0  0  0  0
    7.2591   -2.6188    0.4761 C   0  0  0  0  0  0  0  0  0  0  0  0
    4.1266   -4.6168    1.5462 C   0  0  0  0  0  0  0  0  0  0  0  0
    4.4860   -6.0462    1.5195 N   0  0  2  0  0  0  0  0  0  0  0  0
    3.5668   -7.0021    2.1980 C   0  0  1  0  0  0  0  0  0  0  0  0
    2.1763   -7.0669    1.5795 C   0  0  0  0  0  0  0  0  0  0  0  0
    1.3996   -8.1618    1.7056 C   0  0  0  0  0  0  0  0  0  0  0  0
    1.8469   -9.3708    2.4193 C   0  0  2  0  0  0  0  0  0  0  0  0
    2.3346   -9.3235    3.8460 C   0  0  0  0  0  0  0  0  0  0  0  0
    3.3196   -9.5066    2.7082 C   0  0  2  0  0  0  0  0  0  0  0  0
    4.5979   -9.7121    0.8071 H   0  0  0  0  0  0  0  0  0  0  0  0
    5.4171   -8.8616    3.9787 H   0  0  0  0  0  0  0  0  0  0  0  0
    6.3293   -8.9879    2.5040 H   0  0  0  0  0  0  0  0  0  0  0  0
    7.1406   -7.0122    3.5621 H   0  0  0  0  0  0  0  0  0  0  0  0
    6.6990   -6.4079    1.1715 H   0  0  0  0  0  0  0  0  0  0  0  0
    4.4941   -1.9905    2.1727 H   0  0  0  0  0  0  0  0  0  0  0  0
    5.8917   -2.4294    3.1144 H   0  0  0  0  0  0  0  0  0  0  0  0
    6.9885   -0.8566    1.7426 H   0  0  0  0  0  0  0  0  0  0  0  0
    4.7783   -0.1972    0.5704 H   0  0  0  0  0  0  0  0  0  0  0  0
    6.2138   -0.1283   -0.4008 H   0  0  0  0  0  0  0  0  0  0  0  0
    3.8593   -0.1777   -1.9411 H   0  0  0  0  0  0  0  0  0  0  0  0
    2.8382   -1.6861   -3.6309 H   0  0  0  0  0  0  0  0  0  0  0  0
    3.4664   -4.0956   -3.6528 H   0  0  0  0  0  0  0  0  0  0  0  0
    5.0113   -5.0048   -1.9402 H   0  0  0  0  0  0  0  0  0  0  0  0
    6.6830   -4.5858   -0.2209 H   0  0  0  0  0  0  0  0  0  0  0  0
    7.7856   -2.2401   -0.3994 H   0  0  0  0  0  0  0  0  0  0  0  0
    8.0042   -3.0277    1.1581 H   0  0  0  0  0  0  0  0  0  0  0  0
    3.6233   -4.3780    2.4844 H   0  0  0  0  0  0  0  0  0  0  0  0
    3.4523   -4.3216    0.7418 H   0  0  0  0  0  0  0  0  0  0  0  0
    3.3920   -6.6815    3.2207 H   0  0  0  0  0  0  0  0  0  0  0  0
    1.8066   -6.2016    1.0582 H   0  0  0  0  0  0  0  0  0  0  0  0
    0.4011   -8.2181    1.2950 H   0  0  0  0  0  0  0  0  0  0  0  0
    1.3022  -10.2533    2.1098 H   0  0  0  0  0  0  0  0  0  0  0  0
    2.2889   -8.3626    4.3505 H   0  0  0  0  0  0  0  0  0  0  0  0
    2.1288  -10.1984    4.4625 H   0  0  0  0  0  0  0  0  0  0  0  0
    3.7178  -10.5204    2.6239 H   0  0  0  0  0  0  0  0  0  0  0  0
    4.4289   -6.3395    0.5600 H   0  0  0  0  0  0  0  0  0  0  0  0
  2  1  1  6
  1 28  1  0
  2 22  1  0
  2 27  1  0
  2  3  1  0
  3  4  1  0
  3 29  1  0
  3 30  1  0
  4  5  1  0
  4  6  1  0
  4 31  1  1
  6 21  1  0
  6  7  1  0
  6 32  1  6
  8  7  1  1
  8 18  1  0
  8  9  1  0
  8 20  1  0
  9 10  1  0
  9 33  1  0
  9 34  1  0
 10 19  1  0
 10 11  1  0
 10 35  1  1
 11 12  1  0
 11 36  1  0
 11 37  1  0
 12 17  2  0
 12 13  1  0
 13 14  2  0
 13 38  1  0
 14 15  1  0
 14 39  1  0
 15 16  2  0
 15 40  1  0
 16 17  1  0
 16 41  1  0
 17 18  1  0
 18 19  1  0
 18 42  1  6
 19 43  1  0
 19 44  1  0
 20 21  1  0
 20 45  1  0
 20 46  1  0
 21 22  1  0
 21 54  1  6
 22 23  1  0
 22 47  1  1
 23 24  2  0
 23 48  1  0
 24 25  1  0
 24 49  1  0
 25 27  1  0
 25 26  1  0
 25 50  1  1
 26 27  1  0
 26 51  1  0
 26 52  1  0
 27 53  1  1
M  CHG  1  21   1
M  END
>  <i_m_ct_stereo_status>  (85) 
1

>  <s_m_source_file>  (85) 
/var/tmp/pbs.5076255.sched01/tmpfev35gxg/05fxellcm.sdf

>  <i_m_source_file_index>  (85) 
34

>  <i_lp_mmshare_version>  (85) 
48012

>  <i_f3d_flags>  (85) 
0

>  <s_epik_input>  (85) 
W0NIXTE9W0NIXVtDQEhdKFtDSDJdMilbQ0BIXTJbQ0BdKFtPSF0pKFtDSDJdW0NAQEhdM0YpW0NASF0xTihbQ0gyXTQpW0NASF0zT1tDQEBdNDVbQ0BIXTZjN2MoW0NIMl1bQ0BASF0oW0NIMl01KVtDSDJdNilbY0hdW2NIXVtjSF1bY0hdNw==

>  <s_epik_cmdline>  (85) 
J2VwaWtfcHl0aG9uJywgJy1waHQnLCAnMi4wJywgJy1waCcsICc3LjAnLCAnLXRuJywgJzgnLCAnLW1hJywgJzIwMCcsICctaW1hZScsICc8aW5maWxlLm1hZT4nLCAnLW9tYWUnLCAnPG91dGZpbGUubWFlPic=

>  <r_epik_Ionization_Penalty>  (85) 
1.46971

>  <r_epik_Ionization_Penalty_Charging>  (85) 
1.46971

>  <r_epik_Ionization_Penalty_Neutral>  (85) 
6.11264e-07

>  <r_epik_State_Penalty>  (85) 
1.55743

>  <r_epik_Charging_Adjusted_Penalty>  (85) 
3.02714

>  <i_epik_Tot_Q>  (85) 
1

>  <i_epik_Tot_abs_Q>  (85) 
1

>  <s_epik_Chemistry_Notes>  (85) 
This compound contains an acetal/aminal-like group ( X-CH(R)-Y where X, Y are N, S, or O) that may be acid/base labile, releasing an aldehyde.

>  <s_lp_Force_Field>  (85) 
OPLS3e

>  <r_lp_Energy>  (85) 
45.7237

>  <b_lp_Chiralities_Consistent>  (85) 
1

>  <s_lp_Variant>  (85) 
20:0-2

>  <s_i_glide_gridfile>  (85) 
pfpi4k_grid

>  <i_i_glide_lignum>  (85) 
34

>  <i_i_glide_rotatable_bonds>  (85) 
1

>  <r_i_docking_score>  (85) 
-3.53492

>  <r_i_glide_ligand_efficiency>  (85) 
-0.130923

>  <r_i_glide_ligand_efficiency_sa>  (85) 
-0.392769

>  <r_i_glide_ligand_efficiency_ln>  (85) 
-0.822871

>  <r_i_glide_gscore>  (85) 
-3.53492

>  <r_i_glide_lipo>  (85) 
-0.637327

>  <r_i_glide_hbond>  (85) 
0

>  <r_i_glide_metal>  (85) 
-0

>  <r_i_glide_rewards>  (85) 
-0.964129

>  <r_i_glide_evdw>  (85) 
-27.1406

>  <r_i_glide_ecoul>  (85) 
-3.84287

>  <r_i_glide_erotb>  (85) 
0

>  <r_i_glide_esite>  (85) 
0

>  <r_i_glide_emodel>  (85) 
-37.1714

>  <r_i_glide_energy>  (85) 
-30.9835

>  <r_i_glide_einternal>  (85) 
0.443199

>  <r_i_glide_intrahb_reward>  (85) 
-0

>  <i_i_glide_confnum>  (85) 
2

>  <i_i_glide_posenum>  (85) 
1

>  <r_i_glide_eff_state_penalty>  (85) 
0

>  <ligand_id>  (85) 
20

>  <original_smiles>  (85) 
OC12CC(F)C3OC4(CC5Cc6ccccc6C4C5)CN3C1C=CC1CC12

>  <smiles>  (85) 
[H]OC12C([H])([H])C([H])(F)C3([H])OC4(C([H])([H])C5([H])C([H])([H])c6c([H])c([H])c([H])c([H])c6C4([H])C5([H])[H])C([H])([H])[N+]3([H])C1([H])C([H])=C([H])C1([H])C([H])([H])C12[H]

$$$$
22:0:0
     RDKit          3D

 91 97  0  0  1  0  0  0  0  0999 V2000
    8.8211   -1.4511    8.8977 C   0  0  0  0  0  0  0  0  0  0  0  0
    9.0361   -2.7748    8.4297 O   0  0  0  0  0  0  0  0  0  0  0  0
    8.5593   -3.8221    9.1343 C   0  0  0  0  0  0  0  0  0  0  0  0
    7.8821   -3.7111   10.1609 O   0  0  0  0  0  0  0  0  0  0  0  0
    9.0416   -5.2067    8.6019 C   0  0  1  0  0  0  0  0  0  0  0  0
   10.6000   -5.0928    8.6628 C   0  0  0  0  0  0  0  0  0  0  0  0
    8.6154   -6.2924    9.6224 C   0  0  0  0  0  0  0  0  0  0  0  0
    9.0433   -7.7034    9.2188 C   0  0  0  0  0  0  0  0  0  0  0  0
    8.3823   -8.1185    7.9128 C   0  0  0  0  0  0  0  0  0  0  0  0
    8.5096   -7.1365    6.7111 C   0  0  2  0  0  0  0  0  0  0  0  0
    9.9347   -7.3908    6.1164 C   0  0  0  0  0  0  0  0  0  0  0  0
    8.5229   -5.5738    7.1285 C   0  0  1  0  0  0  0  0  0  0  0  0
    7.4086   -4.6769    6.4897 C   0  0  0  0  0  0  0  0  0  0  0  0
    5.9660   -4.8927    6.9325 C   0  0  0  0  0  0  0  0  0  0  0  0
    5.6167   -6.3648    7.1538 C   0  0  1  0  0  0  0  0  0  0  0  0
    4.2208   -6.5783    7.7081 C   0  0  0  0  0  0  0  0  0  0  0  0
    4.1772   -8.0873    7.7807 C   0  0  0  0  0  0  0  0  0  0  0  0
    4.9374   -8.6413    6.5411 C   0  0  1  0  0  0  0  0  0  0  0  0
    5.5209   -9.9961    7.0480 C   0  0  0  0  0  0  0  0  0  0  0  0
    3.8110   -8.8596    5.6868 O   0  0  0  0  0  0  0  0  0  0  0  0
    3.7021   -9.8485    4.6582 C   0  0  2  0  0  0  0  0  0  0  0  0
    4.9650  -10.0840    3.7937 C   0  0  0  0  0  0  0  0  0  0  0  0
    5.6055   -8.8530    3.1176 C   0  0  2  0  0  0  0  0  0  0  0  0
    5.5270   -9.0585    1.7127 O   0  0  0  0  0  0  0  0  0  0  0  0
    7.1353   -8.7979    3.3219 C   0  0  0  0  0  0  0  0  0  0  0  0
    7.7047   -8.7815    4.7531 C   0  0  0  0  0  0  0  0  0  0  0  0
    7.3863   -7.5264    5.6200 C   0  0  1  0  0  0  0  0  0  0  0  0
    5.8203   -7.3945    5.9836 C   0  0  2  0  0  0  0  0  0  0  0  0
    5.1064   -6.7459    4.7237 C   0  0  0  0  0  0  0  0  0  0  0  0
    4.9160   -7.4896    3.3575 C   0  0  2  0  0  0  0  0  0  0  0  0
    3.5813   -7.4549    2.8101 O   0  0  0  0  0  0  0  0  0  0  0  0
    2.4610   -7.9070    3.5696 C   0  0  1  0  0  0  0  0  0  0  0  0
    1.1672   -7.4187    2.9460 C   0  0  0  0  0  0  0  0  0  0  0  0
   -0.0166   -8.0378    3.1192 C   0  0  0  0  0  0  0  0  0  0  0  0
   -1.2950   -7.5410    2.4873 C   0  0  0  0  0  0  0  0  0  0  0  0
   -0.1439   -9.3003    3.9593 C   0  0  0  0  0  0  0  0  0  0  0  0
    1.1631   -9.7134    4.6766 C   0  0  0  0  0  0  0  0  0  0  0  0
    2.4405   -9.4393    3.8353 C   0  0  2  0  0  0  0  0  0  0  0  0
    2.3223  -10.2494    2.5133 C   0  0  0  0  0  0  0  0  0  0  0  0
    9.2779   -0.7351    8.2121 H   0  0  0  0  0  0  0  0  0  0  0  0
    9.2805   -1.3187    9.8790 H   0  0  0  0  0  0  0  0  0  0  0  0
    7.7561   -1.2196    8.9765 H   0  0  0  0  0  0  0  0  0  0  0  0
   11.1233   -6.0386    8.5701 H   0  0  0  0  0  0  0  0  0  0  0  0
   10.9345   -4.6804    9.6164 H   0  0  0  0  0  0  0  0  0  0  0  0
   10.9947   -4.4413    7.8855 H   0  0  0  0  0  0  0  0  0  0  0  0
    9.0243   -6.0749   10.6122 H   0  0  0  0  0  0  0  0  0  0  0  0
    7.5318   -6.2731    9.7413 H   0  0  0  0  0  0  0  0  0  0  0  0
   10.1227   -7.8190    9.1595 H   0  0  0  0  0  0  0  0  0  0  0  0
    8.7333   -8.4012    9.9935 H   0  0  0  0  0  0  0  0  0  0  0  0
    8.7452   -9.1062    7.6278 H   0  0  0  0  0  0  0  0  0  0  0  0
    7.3489   -8.2814    8.1604 H   0  0  0  0  0  0  0  0  0  0  0  0
   10.0466   -6.9427    5.1281 H   0  0  0  0  0  0  0  0  0  0  0  0
   10.1838   -8.4472    6.0334 H   0  0  0  0  0  0  0  0  0  0  0  0
   10.7292   -6.9777    6.7269 H   0  0  0  0  0  0  0  0  0  0  0  0
    9.3371   -5.1670    6.5318 H   0  0  0  0  0  0  0  0  0  0  0  0
    7.6291   -3.6208    6.6135 H   0  0  0  0  0  0  0  0  0  0  0  0
    7.4606   -4.7785    5.4116 H   0  0  0  0  0  0  0  0  0  0  0  0
    5.8047   -4.3498    7.8666 H   0  0  0  0  0  0  0  0  0  0  0  0
    5.2879   -4.4303    6.2135 H   0  0  0  0  0  0  0  0  0  0  0  0
    6.2278   -6.6303    7.9990 H   0  0  0  0  0  0  0  0  0  0  0  0
    4.0864   -6.1194    8.6892 H   0  0  0  0  0  0  0  0  0  0  0  0
    3.4403   -6.1957    7.0512 H   0  0  0  0  0  0  0  0  0  0  0  0
    4.6839   -8.3798    8.7031 H   0  0  0  0  0  0  0  0  0  0  0  0
    3.1559   -8.4631    7.8684 H   0  0  0  0  0  0  0  0  0  0  0  0
    6.1711   -9.9064    7.9102 H   0  0  0  0  0  0  0  0  0  0  0  0
    6.0493  -10.6072    6.3372 H   0  0  0  0  0  0  0  0  0  0  0  0
    4.7019  -10.6267    7.3961 H   0  0  0  0  0  0  0  0  0  0  0  0
    3.4882  -10.8009    5.1450 H   0  0  0  0  0  0  0  0  0  0  0  0
    5.7176  -10.6069    4.3584 H   0  0  0  0  0  0  0  0  0  0  0  0
    4.7421  -10.8473    3.0496 H   0  0  0  0  0  0  0  0  0  0  0  0
    5.4090   -9.9829    1.5461 H   0  0  0  0  0  0  0  0  0  0  0  0
    7.5742   -9.6723    2.8383 H   0  0  0  0  0  0  0  0  0  0  0  0
    7.5401   -7.9427    2.7773 H   0  0  0  0  0  0  0  0  0  0  0  0
    7.5239   -9.7042    5.2866 H   0  0  0  0  0  0  0  0  0  0  0  0
    8.7691   -8.8506    4.5470 H   0  0  0  0  0  0  0  0  0  0  0  0
    7.5776   -6.7673    4.8663 H   0  0  0  0  0  0  0  0  0  0  0  0
    4.1488   -6.3339    5.0206 H   0  0  0  0  0  0  0  0  0  0  0  0
    5.6511   -5.8399    4.4656 H   0  0  0  0  0  0  0  0  0  0  0  0
    5.4273   -6.8282    2.6578 H   0  0  0  0  0  0  0  0  0  0  0  0
    2.4334   -7.3696    4.5112 H   0  0  0  0  0  0  0  0  0  0  0  0
    1.2356   -6.5214    2.3533 H   0  0  0  0  0  0  0  0  0  0  0  0
   -1.7315   -8.3137    1.8560 H   0  0  0  0  0  0  0  0  0  0  0  0
   -1.0903   -6.6707    1.8683 H   0  0  0  0  0  0  0  0  0  0  0  0
   -2.0268   -7.2712    3.2480 H   0  0  0  0  0  0  0  0  0  0  0  0
   -0.9380   -9.1540    4.6924 H   0  0  0  0  0  0  0  0  0  0  0  0
   -0.4706  -10.1069    3.3005 H   0  0  0  0  0  0  0  0  0  0  0  0
    1.2249   -9.1475    5.6057 H   0  0  0  0  0  0  0  0  0  0  0  0
    1.1028  -10.7624    4.9767 H   0  0  0  0  0  0  0  0  0  0  0  0
    1.3925  -10.0555    1.9765 H   0  0  0  0  0  0  0  0  0  0  0  0
    2.3610  -11.3249    2.7052 H   0  0  0  0  0  0  0  0  0  0  0  0
    3.1071  -10.0021    1.7981 H   0  0  0  0  0  0  0  0  0  0  0  0
  1  2  1  0
  1 40  1  0
  1 41  1  0
  1 42  1  0
  2  3  1  0
  3  4  2  0
  3  5  1  0
  5 12  1  0
  5  6  1  6
  5  7  1  0
  6 43  1  0
  6 44  1  0
  6 45  1  0
  7  8  1  0
  7 46  1  0
  7 47  1  0
  8  9  1  0
  8 48  1  0
  8 49  1  0
  9 10  1  0
  9 50  1  0
  9 51  1  0
 10 27  1  0
 10 11  1  6
 10 12  1  0
 11 52  1  0
 11 53  1  0
 11 54  1  0
 12 13  1  0
 12 55  1  6
 13 14  1  0
 13 56  1  0
 13 57  1  0
 14 15  1  0
 14 58  1  0
 14 59  1  0
 15 28  1  0
 15 16  1  0
 15 60  1  1
 16 17  1  0
 16 61  1  0
 16 62  1  0
 17 18  1  0
 17 63  1  0
 17 64  1  0
 18 28  1  0
 18 19  1  1
 18 20  1  0
 19 65  1  0
 19 66  1  0
 19 67  1  0
 20 21  1  0
 21 38  1  0
 21 22  1  0
 21 68  1  1
 22 23  1  0
 22 69  1  0
 22 70  1  0
 23 30  1  0
 23 24  1  6
 23 25  1  0
 24 71  1  0
 25 26  1  0
 25 72  1  0
 25 73  1  0
 26 27  1  0
 26 74  1  0
 26 75  1  0
 27 28  1  0
 27 76  1  6
 28 29  1  6
 29 30  1  0
 29 77  1  0
 29 78  1  0
 30 31  1  0
 30 79  1  6
 31 32  1  0
 32 38  1  0
 32 33  1  0
 32 80  1  1
 33 34  2  0
 33 81  1  0
 34 35  1  0
 34 36  1  0
 35 82  1  0
 35 83  1  0
 35 84  1  0
 36 37  1  0
 36 85  1  0
 36 86  1  0
 37 38  1  0
 37 87  1  0
 37 88  1  0
 38 39  1  6
 39 89  1  0
 39 90  1  0
 39 91  1  0
M  END
>  <i_m_ct_stereo_status>  (86) 
1

>  <s_m_source_file>  (86) 
/var/tmp/pbs.5076255.sched01/tmpfev35gxg/05fxellcm.sdf

>  <i_m_source_file_index>  (86) 
36

>  <i_lp_mmshare_version>  (86) 
48012

>  <i_f3d_flags>  (86) 
0

>  <s_epik_input>  (86) 
W0NIM11PQyg9TylbQ0BAXTEoW0NIM10pW0NIMl1bQ0gyXVtDSDJdW0NAXShbQ0gzXSkoW0NASF0xW0NIMl1bQ0gyXVtDQEBIXTJbQ0BdMzQ1KVtDQEhdNFtDSDJdW0NIMl1bQ0BdNihbT0hdKVtDQEhdKFtDSDJdNSlPW0NAQEhdN1tDQF0oW0NIM10pKFtDSDJdW0NIMl1DKD1bQ0hdNylbQ0gzXSlbQ0BASF0oW0NIMl02KU9bQ0BdMyhbQ0gzXSlbQ0gyXVtDSDJdMg==

>  <s_epik_cmdline>  (86) 
J2VwaWtfcHl0aG9uJywgJy1waHQnLCAnMi4wJywgJy1waCcsICc3LjAnLCAnLXRuJywgJzgnLCAnLW1hJywgJzIwMCcsICctaW1hZScsICc8aW5maWxlLm1hZT4nLCAnLW9tYWUnLCAnPG91dGZpbGUubWFlPic=

>  <r_lp_tautomer_probability>  (86) 
1

>  <r_epik_Ionization_Penalty>  (86) 
1.36048e-07

>  <r_epik_Ionization_Penalty_Charging>  (86) 
0

>  <r_epik_Ionization_Penalty_Neutral>  (86) 
1.36048e-07

>  <r_epik_State_Penalty>  (86) 
-0

>  <r_epik_Charging_Adjusted_Penalty>  (86) 
0

>  <i_epik_Tot_Q>  (86) 
0

>  <i_epik_Tot_abs_Q>  (86) 
0

>  <s_epik_Chemistry_Notes>  (86) 
This compound has an ester and may undergo hydrolysis at high or low pH.

>  <s_lp_Force_Field>  (86) 
OPLS3e

>  <r_lp_Energy>  (86) 
147.541

>  <b_lp_Chiralities_Consistent>  (86) 
1

>  <s_lp_Variant>  (86) 
22:0-1

>  <s_i_glide_gridfile>  (86) 
pfpi4k_grid

>  <i_i_glide_lignum>  (86) 
36

>  <i_i_glide_rotatable_bonds>  (86) 
3

>  <r_i_docking_score>  (86) 
-1.53722

>  <r_i_glide_ligand_efficiency>  (86) 
-0.0394159

>  <r_i_glide_ligand_efficiency_sa>  (86) 
-0.133667

>  <r_i_glide_ligand_efficiency_ln>  (86) 
-0.329623

>  <r_i_glide_gscore>  (86) 
-1.53722

>  <r_i_glide_lipo>  (86) 
-0.216793

>  <r_i_glide_hbond>  (86) 
0

>  <r_i_glide_metal>  (86) 
-0

>  <r_i_glide_rewards>  (86) 
-0.0096927

>  <r_i_glide_evdw>  (86) 
-25.0923

>  <r_i_glide_ecoul>  (86) 
-0.845488

>  <r_i_glide_erotb>  (86) 
0.0707043

>  <r_i_glide_esite>  (86) 
0

>  <r_i_glide_emodel>  (86) 
-27.4032

>  <r_i_glide_energy>  (86) 
-25.9378

>  <r_i_glide_einternal>  (86) 
0.832971

>  <r_i_glide_intrahb_reward>  (86) 
-0

>  <i_i_glide_confnum>  (86) 
4

>  <i_i_glide_posenum>  (86) 
11

>  <r_i_glide_eff_state_penalty>  (86) 
0

>  <ligand_id>  (86) 
22

>  <original_smiles>  (86) 
COC(=O)C1(C)CCCC2(C)C1CCC1CCC3(C)OC4CC5(O)CCC2C13CC5OC1C=C(C)CCC14C

>  <smiles>  (86) 
[H]OC12C([H])([H])C([H])([H])C3([H])C4(C([H])([H])[H])C([H])([H])C([H])([H])C([H])([H])C(C(=O)OC([H])([H])[H])(C([H])([H])[H])C4([H])C([H])([H])C([H])([H])C4([H])C([H])([H])C([H])([H])C5(C([H])([H])[H])OC([H])(C1([H])[H])C1(C([H])([H])[H])C([H])(OC2([H])C([H])([H])C435)C([H])=C(C([H])([H])[H])C([H])([H])C1([H])[H]

$$$$
22:0:1
     RDKit          3D

 91 97  0  0  1  0  0  0  0  0999 V2000
    6.9820    1.4611    7.2971 C   0  0  0  0  0  0  0  0  0  0  0  0
    7.3075    0.1236    7.6472 O   0  0  0  0  0  0  0  0  0  0  0  0
    6.6099   -0.5021    8.6177 C   0  0  0  0  0  0  0  0  0  0  0  0
    5.6731    0.0120    9.2365 O   0  0  0  0  0  0  0  0  0  0  0  0
    7.1662   -1.9133    8.9777 C   0  0  1  0  0  0  0  0  0  0  0  0
    8.6408   -1.6199    9.4054 C   0  0  0  0  0  0  0  0  0  0  0  0
    6.4083   -2.4300   10.2274 C   0  0  0  0  0  0  0  0  0  0  0  0
    6.8727   -3.8136   10.6824 C   0  0  0  0  0  0  0  0  0  0  0  0
    6.6080   -4.8582    9.6069 C   0  0  0  0  0  0  0  0  0  0  0  0
    7.1303   -4.5457    8.1753 C   0  0  2  0  0  0  0  0  0  0  0  0
    8.6531   -4.8973    8.2024 C   0  0  0  0  0  0  0  0  0  0  0  0
    7.0868   -2.9793    7.7821 C   0  0  1  0  0  0  0  0  0  0  0  0
    6.2495   -2.6093    6.5106 C   0  0  0  0  0  0  0  0  0  0  0  0
    4.7326   -2.7373    6.5777 C   0  0  0  0  0  0  0  0  0  0  0  0
    4.2723   -3.9641    7.3633 C   0  0  1  0  0  0  0  0  0  0  0  0
    2.7666   -4.0410    7.5343 C   0  0  0  0  0  0  0  0  0  0  0  0
    2.6402   -5.3365    8.3022 C   0  0  0  0  0  0  0  0  0  0  0  0
    3.7078   -6.3230    7.7468 C   0  0  1  0  0  0  0  0  0  0  0  0
    4.0563   -7.2107    8.9800 C   0  0  0  0  0  0  0  0  0  0  0  0
    2.8725   -7.0331    6.8278 O   0  0  0  0  0  0  0  0  0  0  0  0
    3.0333   -8.3921    6.4093 C   0  0  2  0  0  0  0  0  0  0  0  0
    4.4868   -8.8634    6.1586 C   0  0  0  0  0  0  0  0  0  0  0  0
    5.3514   -8.0282    5.1949 C   0  0  2  0  0  0  0  0  0  0  0  0
    5.6698   -8.8764    4.1065 O   0  0  0  0  0  0  0  0  0  0  0  0
    6.7538   -7.7283    5.7573 C   0  0  0  0  0  0  0  0  0  0  0  0
    6.8731   -6.9883    7.1029 C   0  0  0  0  0  0  0  0  0  0  0  0
    6.3658   -5.5161    7.1369 C   0  0  1  0  0  0  0  0  0  0  0  0
    4.7696   -5.3943    6.9355 C   0  0  2  0  0  0  0  0  0  0  0  0
    4.4877   -5.4870    5.3779 C   0  0  0  0  0  0  0  0  0  0  0  0
    4.6796   -6.7994    4.5433 C   0  0  2  0  0  0  0  0  0  0  0  0
    3.5770   -7.1883    3.6982 O   0  0  0  0  0  0  0  0  0  0  0  0
    2.2597   -7.3301    4.2282 C   0  0  1  0  0  0  0  0  0  0  0  0
    1.2302   -7.3237    3.1149 C   0  0  0  0  0  0  0  0  0  0  0  0
    0.0203   -7.9046    3.2224 C   0  0  0  0  0  0  0  0  0  0  0  0
   -0.9879   -7.8960    2.0944 C   0  0  0  0  0  0  0  0  0  0  0  0
   -0.4077   -8.6382    4.4882 C   0  0  0  0  0  0  0  0  0  0  0  0
    0.6117   -8.5296    5.6481 C   0  0  0  0  0  0  0  0  0  0  0  0
    2.0903   -8.5527    5.1741 C   0  0  2  0  0  0  0  0  0  0  0  0
    2.3301   -9.8977    4.4291 C   0  0  0  0  0  0  0  0  0  0  0  0
    7.6405    1.8061    6.4979 H   0  0  0  0  0  0  0  0  0  0  0  0
    7.1171    2.1211    8.1556 H   0  0  0  0  0  0  0  0  0  0  0  0
    5.9496    1.5473    6.9510 H   0  0  0  0  0  0  0  0  0  0  0  0
    9.1260   -2.4361    9.9310 H   0  0  0  0  0  0  0  0  0  0  0  0
    8.6946   -0.7743   10.0916 H   0  0  0  0  0  0  0  0  0  0  0  0
    9.2769   -1.3730    8.5561 H   0  0  0  0  0  0  0  0  0  0  0  0
    6.5143   -1.7342   11.0621 H   0  0  0  0  0  0  0  0  0  0  0  0
    5.3415   -2.4704   10.0116 H   0  0  0  0  0  0  0  0  0  0  0  0
    7.9159   -3.8343   10.9888 H   0  0  0  0  0  0  0  0  0  0  0  0
    6.3175   -4.0975   11.5755 H   0  0  0  0  0  0  0  0  0  0  0  0
    6.9968   -5.8203    9.9438 H   0  0  0  0  0  0  0  0  0  0  0  0
    5.5426   -4.9937    9.6038 H   0  0  0  0  0  0  0  0  0  0  0  0
    9.0740   -4.9563    7.1980 H   0  0  0  0  0  0  0  0  0  0  0  0
    8.8691   -5.8365    8.7086 H   0  0  0  0  0  0  0  0  0  0  0  0
    9.2509   -4.1663    8.7358 H   0  0  0  0  0  0  0  0  0  0  0  0
    8.0582   -2.8139    7.3171 H   0  0  0  0  0  0  0  0  0  0  0  0
    6.4771   -1.6074    6.1575 H   0  0  0  0  0  0  0  0  0  0  0  0
    6.6132   -3.2076    5.6837 H   0  0  0  0  0  0  0  0  0  0  0  0
    4.3283   -1.8426    7.0535 H   0  0  0  0  0  0  0  0  0  0  0  0
    4.3193   -2.7384    5.5700 H   0  0  0  0  0  0  0  0  0  0  0  0
    4.5937   -3.7395    8.3677 H   0  0  0  0  0  0  0  0  0  0  0  0
    2.3689   -3.1932    8.0950 H   0  0  0  0  0  0  0  0  0  0  0  0
    2.2363   -4.0946    6.5841 H   0  0  0  0  0  0  0  0  0  0  0  0
    2.8390   -5.1087    9.3523 H   0  0  0  0  0  0  0  0  0  0  0  0
    1.6230   -5.7315    8.2680 H   0  0  0  0  0  0  0  0  0  0  0  0
    4.4237   -6.6595    9.8368 H   0  0  0  0  0  0  0  0  0  0  0  0
    4.7451   -8.0241    8.8294 H   0  0  0  0  0  0  0  0  0  0  0  0
    3.1435   -7.6871    9.3403 H   0  0  0  0  0  0  0  0  0  0  0  0
    2.6456   -9.0270    7.2071 H   0  0  0  0  0  0  0  0  0  0  0  0
    5.0150   -8.9827    7.0903 H   0  0  0  0  0  0  0  0  0  0  0  0
    4.4674   -9.9038    5.8370 H   0  0  0  0  0  0  0  0  0  0  0  0
    4.8563   -9.1083    3.6853 H   0  0  0  0  0  0  0  0  0  0  0  0
    7.2742   -8.6794    5.8865 H   0  0  0  0  0  0  0  0  0  0  0  0
    7.3342   -7.1900    5.0072 H   0  0  0  0  0  0  0  0  0  0  0  0
    6.5011   -7.5691    7.9342 H   0  0  0  0  0  0  0  0  0  0  0  0
    7.9459   -7.0344    7.2645 H   0  0  0  0  0  0  0  0  0  0  0  0
    6.8061   -5.1867    6.2004 H   0  0  0  0  0  0  0  0  0  0  0  0
    3.5045   -5.0865    5.1575 H   0  0  0  0  0  0  0  0  0  0  0  0
    5.1267   -4.7569    4.8837 H   0  0  0  0  0  0  0  0  0  0  0  0
    5.4031   -6.4909    3.7882 H   0  0  0  0  0  0  0  0  0  0  0  0
    1.9824   -6.4186    4.7455 H   0  0  0  0  0  0  0  0  0  0  0  0
    1.5117   -6.8105    2.2062 H   0  0  0  0  0  0  0  0  0  0  0  0
   -1.2411   -8.9135    1.8070 H   0  0  0  0  0  0  0  0  0  0  0  0
   -0.5882   -7.3920    1.2144 H   0  0  0  0  0  0  0  0  0  0  0  0
   -1.8978   -7.3951    2.4057 H   0  0  0  0  0  0  0  0  0  0  0  0
   -1.3821   -8.2772    4.8183 H   0  0  0  0  0  0  0  0  0  0  0  0
   -0.5465   -9.6860    4.2209 H   0  0  0  0  0  0  0  0  0  0  0  0
    0.4206   -7.5927    6.1692 H   0  0  0  0  0  0  0  0  0  0  0  0
    0.4224   -9.3221    6.3754 H   0  0  0  0  0  0  0  0  0  0  0  0
    1.6111  -10.0751    3.6268 H   0  0  0  0  0  0  0  0  0  0  0  0
    2.2568  -10.7474    5.1144 H   0  0  0  0  0  0  0  0  0  0  0  0
    3.3012   -9.9369    3.9378 H   0  0  0  0  0  0  0  0  0  0  0  0
  1  2  1  0
  1 40  1  0
  1 41  1  0
  1 42  1  0
  2  3  1  0
  3  4  2  0
  3  5  1  0
  5 12  1  0
  5  6  1  1
  5  7  1  0
  6 43  1  0
  6 44  1  0
  6 45  1  0
  7  8  1  0
  7 46  1  0
  7 47  1  0
  8  9  1  0
  8 48  1  0
  8 49  1  0
  9 10  1  0
  9 50  1  0
  9 51  1  0
 10 27  1  0
 10 11  1  1
 10 12  1  0
 11 52  1  0
 11 53  1  0
 11 54  1  0
 12 13  1  0
 12 55  1  6
 13 14  1  0
 13 56  1  0
 13 57  1  0
 14 15  1  0
 14 58  1  0
 14 59  1  0
 15 28  1  0
 15 16  1  0
 15 60  1  1
 16 17  1  0
 16 61  1  0
 16 62  1  0
 17 18  1  0
 17 63  1  0
 17 64  1  0
 18 28  1  0
 18 19  1  1
 18 20  1  0
 19 65  1  0
 19 66  1  0
 19 67  1  0
 20 21  1  0
 21 38  1  0
 21 22  1  0
 21 68  1  1
 22 23  1  0
 22 69  1  0
 22 70  1  0
 23 30  1  0
 23 24  1  6
 23 25  1  0
 24 71  1  0
 25 26  1  0
 25 72  1  0
 25 73  1  0
 26 27  1  0
 26 74  1  0
 26 75  1  0
 27 28  1  0
 27 76  1  6
 28 29  1  6
 29 30  1  0
 29 77  1  0
 29 78  1  0
 30 31  1  0
 30 79  1  6
 31 32  1  0
 32 38  1  0
 32 33  1  0
 32 80  1  1
 33 34  2  0
 33 81  1  0
 34 35  1  0
 34 36  1  0
 35 82  1  0
 35 83  1  0
 35 84  1  0
 36 37  1  0
 36 85  1  0
 36 86  1  0
 37 38  1  0
 37 87  1  0
 37 88  1  0
 38 39  1  6
 39 89  1  0
 39 90  1  0
 39 91  1  0
M  END
>  <i_m_ct_stereo_status>  (87) 
1

>  <s_m_source_file>  (87) 
/var/tmp/pbs.5076255.sched01/tmpfev35gxg/05fxellcm.sdf

>  <i_m_source_file_index>  (87) 
36

>  <i_lp_mmshare_version>  (87) 
48012

>  <i_f3d_flags>  (87) 
0

>  <s_epik_input>  (87) 
W0NIM11PQyg9TylbQ0BAXTEoW0NIM10pW0NIMl1bQ0gyXVtDSDJdW0NAXShbQ0gzXSkoW0NASF0xW0NIMl1bQ0gyXVtDQEBIXTJbQ0BdMzQ1KVtDQEhdNFtDSDJdW0NIMl1bQ0BdNihbT0hdKVtDQEhdKFtDSDJdNSlPW0NAQEhdN1tDQF0oW0NIM10pKFtDSDJdW0NIMl1DKD1bQ0hdNylbQ0gzXSlbQ0BASF0oW0NIMl02KU9bQ0BdMyhbQ0gzXSlbQ0gyXVtDSDJdMg==

>  <s_epik_cmdline>  (87) 
J2VwaWtfcHl0aG9uJywgJy1waHQnLCAnMi4wJywgJy1waCcsICc3LjAnLCAnLXRuJywgJzgnLCAnLW1hJywgJzIwMCcsICctaW1hZScsICc8aW5maWxlLm1hZT4nLCAnLW9tYWUnLCAnPG91dGZpbGUubWFlPic=

>  <r_lp_tautomer_probability>  (87) 
1

>  <r_epik_Ionization_Penalty>  (87) 
1.36048e-07

>  <r_epik_Ionization_Penalty_Charging>  (87) 
0

>  <r_epik_Ionization_Penalty_Neutral>  (87) 
1.36048e-07

>  <r_epik_State_Penalty>  (87) 
-0

>  <r_epik_Charging_Adjusted_Penalty>  (87) 
0

>  <i_epik_Tot_Q>  (87) 
0

>  <i_epik_Tot_abs_Q>  (87) 
0

>  <s_epik_Chemistry_Notes>  (87) 
This compound has an ester and may undergo hydrolysis at high or low pH.

>  <s_lp_Force_Field>  (87) 
OPLS3e

>  <r_lp_Energy>  (87) 
147.541

>  <b_lp_Chiralities_Consistent>  (87) 
1

>  <s_lp_Variant>  (87) 
22:0-1

>  <s_i_glide_gridfile>  (87) 
pfpi4k_grid

>  <i_i_glide_lignum>  (87) 
36

>  <i_i_glide_rotatable_bonds>  (87) 
3

>  <r_i_docking_score>  (87) 
-1.22888

>  <r_i_glide_ligand_efficiency>  (87) 
-0.0315099

>  <r_i_glide_ligand_efficiency_sa>  (87) 
-0.106857

>  <r_i_glide_ligand_efficiency_ln>  (87) 
-0.263508

>  <r_i_glide_gscore>  (87) 
-1.22888

>  <r_i_glide_lipo>  (87) 
-0.157863

>  <r_i_glide_hbond>  (87) 
0

>  <r_i_glide_metal>  (87) 
-0

>  <r_i_glide_rewards>  (87) 
-0.00768762

>  <r_i_glide_evdw>  (87) 
-21.3613

>  <r_i_glide_ecoul>  (87) 
-0.439834

>  <r_i_glide_erotb>  (87) 
0.0707043

>  <r_i_glide_esite>  (87) 
0

>  <r_i_glide_emodel>  (87) 
-23.473

>  <r_i_glide_energy>  (87) 
-21.8011

>  <r_i_glide_einternal>  (87) 
0.0363733

>  <r_i_glide_intrahb_reward>  (87) 
-0

>  <i_i_glide_confnum>  (87) 
2

>  <i_i_glide_posenum>  (87) 
14

>  <r_i_glide_eff_state_penalty>  (87) 
0

>  <ligand_id>  (87) 
22

>  <original_smiles>  (87) 
COC(=O)C1(C)CCCC2(C)C1CCC1CCC3(C)OC4CC5(O)CCC2C13CC5OC1C=C(C)CCC14C

>  <smiles>  (87) 
[H]OC12C([H])([H])C([H])([H])C3([H])C4(C([H])([H])[H])C([H])([H])C([H])([H])C([H])([H])C(C(=O)OC([H])([H])[H])(C([H])([H])[H])C4([H])C([H])([H])C([H])([H])C4([H])C([H])([H])C([H])([H])C5(C([H])([H])[H])OC([H])(C1([H])[H])C1(C([H])([H])[H])C([H])(OC2([H])C([H])([H])C435)C([H])=C(C([H])([H])[H])C([H])([H])C1([H])[H]

$$$$
23:0:0
     RDKit          3D

 73 79  0  0  1  0  0  0  0  0999 V2000
    6.1991   -9.9681    3.3767 C   0  0  0  0  0  0  0  0  0  0  0  0
    5.5647   -8.6843    3.9530 C   0  0  2  0  0  0  0  0  0  0  0  0
    4.1891   -8.9584    4.6582 C   0  0  1  0  0  0  0  0  0  0  0  0
    3.8918   -7.7439    5.4792 C   0  0  0  0  0  0  0  0  0  0  0  0
    3.8365   -6.5245    4.5304 C   0  0  2  0  0  0  0  0  0  0  0  0
    2.8288   -5.4420    5.0053 C   0  0  1  0  0  0  0  0  0  0  0  0
    2.5001   -5.5055    6.5524 C   0  0  0  0  0  0  0  0  0  0  0  0
    3.4440   -3.9512    4.9474 C   0  0  1  0  0  0  0  0  0  0  0  0
    4.5816   -3.8140    5.7857 O   0  0  0  0  0  0  0  0  0  0  0  0
    3.8055   -3.1456    3.6668 C   0  0  0  0  0  0  0  0  0  0  0  0
    4.8279   -3.7514    2.6890 C   0  0  0  0  0  0  0  0  0  0  0  0
    4.2499   -4.6080    1.5401 C   0  0  0  0  0  0  0  0  0  0  0  0
    3.4614   -3.6985    0.5540 C   0  0  0  0  0  0  0  0  0  0  0  0
    5.4073   -5.1472    0.6551 C   0  0  0  0  0  0  0  0  0  0  0  0
    3.3509   -5.7832    2.0669 C   0  0  2  0  0  0  0  0  0  0  0  0
    1.9257   -5.3710    2.6249 C   0  0  0  0  0  0  0  0  0  0  0  0
    1.5737   -5.6979    4.1192 C   0  0  2  0  0  0  0  0  0  0  0  0
    0.6138   -4.7065    4.4862 O   0  0  0  0  0  0  0  0  0  0  0  0
    0.8749   -7.1636    4.2560 C   0  0  2  0  0  0  0  0  0  0  0  0
   -0.3963   -7.0267    3.6236 O   0  0  0  0  0  0  0  0  0  0  0  0
    0.6203   -7.4573    5.5935 O   0  0  0  0  0  0  0  0  0  0  0  0
    0.2650   -8.8323    5.7605 C   0  0  0  0  0  0  0  0  0  0  0  0
    0.6019   -9.5168    4.4361 C   0  0  1  0  0  0  0  0  0  0  0  0
   -0.5667   -9.7598    3.6823 O   0  0  0  0  0  0  0  0  0  0  0  0
    1.5190   -8.5322    3.7299 C   0  0  1  0  0  0  0  0  0  0  0  0
    1.7012   -8.5867    2.2265 C   0  0  1  0  0  0  0  0  0  0  0  0
    0.9433   -7.8572    1.2841 O   0  0  0  0  0  0  0  0  0  0  0  0
    3.2104   -8.2856    2.4148 C   0  0  2  0  0  0  0  0  0  0  0  0
    3.8632   -8.9018    1.1337 C   0  0  0  0  0  0  0  0  0  0  0  0
    3.0344   -9.1094    3.6572 C   0  0  1  0  0  0  0  0  0  0  0  0
    3.9462   -6.9424    2.9503 C   0  0  2  0  0  0  0  0  0  0  0  0
    5.4651   -7.4505    2.9526 C   0  0  1  0  0  0  0  0  0  0  0  0
    6.4827   -6.5471    3.3458 O   0  0  0  0  0  0  0  0  0  0  0  0
    5.4864  -10.5746    2.8190 H   0  0  0  0  0  0  0  0  0  0  0  0
    6.5644  -10.6076    4.1818 H   0  0  0  0  0  0  0  0  0  0  0  0
    7.0470   -9.7446    2.7280 H   0  0  0  0  0  0  0  0  0  0  0  0
    6.2543   -8.3998    4.7517 H   0  0  0  0  0  0  0  0  0  0  0  0
    4.2638   -9.8281    5.3123 H   0  0  0  0  0  0  0  0  0  0  0  0
    2.9704   -7.9646    5.9977 H   0  0  0  0  0  0  0  0  0  0  0  0
    4.6455   -7.5936    6.2547 H   0  0  0  0  0  0  0  0  0  0  0  0
    4.7586   -6.0272    4.7865 H   0  0  0  0  0  0  0  0  0  0  0  0
    1.8118   -4.7146    6.8484 H   0  0  0  0  0  0  0  0  0  0  0  0
    3.3907   -5.4002    7.1710 H   0  0  0  0  0  0  0  0  0  0  0  0
    2.0412   -6.4068    6.9353 H   0  0  0  0  0  0  0  0  0  0  0  0
    2.7032   -3.3106    5.4262 H   0  0  0  0  0  0  0  0  0  0  0  0
    4.8107   -2.8989    5.8352 H   0  0  0  0  0  0  0  0  0  0  0  0
    2.9233   -2.7622    3.1646 H   0  0  0  0  0  0  0  0  0  0  0  0
    4.2579   -2.2141    4.0134 H   0  0  0  0  0  0  0  0  0  0  0  0
    5.3832   -2.9284    2.2346 H   0  0  0  0  0  0  0  0  0  0  0  0
    5.5716   -4.2937    3.2627 H   0  0  0  0  0  0  0  0  0  0  0  0
    3.0151   -4.2820   -0.2507 H   0  0  0  0  0  0  0  0  0  0  0  0
    4.1165   -2.9675    0.0801 H   0  0  0  0  0  0  0  0  0  0  0  0
    2.6679   -3.1125    1.0081 H   0  0  0  0  0  0  0  0  0  0  0  0
    5.0796   -5.9587    0.0061 H   0  0  0  0  0  0  0  0  0  0  0  0
    6.2638   -5.4985    1.2158 H   0  0  0  0  0  0  0  0  0  0  0  0
    5.8150   -4.3781    0.0002 H   0  0  0  0  0  0  0  0  0  0  0  0
    3.0931   -6.2558    1.1211 H   0  0  0  0  0  0  0  0  0  0  0  0
    1.8001   -4.3086    2.5091 H   0  0  0  0  0  0  0  0  0  0  0  0
    1.1220   -5.6699    1.9706 H   0  0  0  0  0  0  0  0  0  0  0  0
    1.0327   -3.8618    4.4530 H   0  0  0  0  0  0  0  0  0  0  0  0
   -0.7490   -7.9100    3.5645 H   0  0  0  0  0  0  0  0  0  0  0  0
    0.8765   -9.2328    6.5710 H   0  0  0  0  0  0  0  0  0  0  0  0
   -0.7813   -8.9608    6.0399 H   0  0  0  0  0  0  0  0  0  0  0  0
    1.0825  -10.4779    4.6287 H   0  0  0  0  0  0  0  0  0  0  0  0
   -1.1703  -10.2946    4.2245 H   0  0  0  0  0  0  0  0  0  0  0  0
    1.5395   -9.6339    1.9411 H   0  0  0  0  0  0  0  0  0  0  0  0
    0.5150   -8.5153    0.7429 H   0  0  0  0  0  0  0  0  0  0  0  0
    4.8484   -9.3368    1.2468 H   0  0  0  0  0  0  0  0  0  0  0  0
    3.9232   -8.1788    0.3205 H   0  0  0  0  0  0  0  0  0  0  0  0
    3.2928   -9.7487    0.7448 H   0  0  0  0  0  0  0  0  0  0  0  0
    2.9997  -10.1687    3.3733 H   0  0  0  0  0  0  0  0  0  0  0  0
    5.8218   -7.7019    1.9583 H   0  0  0  0  0  0  0  0  0  0  0  0
    7.3187   -6.9797    3.2482 H   0  0  0  0  0  0  0  0  0  0  0  0
  1  2  1  0
  1 34  1  0
  1 35  1  0
  1 36  1  0
  2 32  1  0
  2  3  1  0
  2 37  1  1
  3 30  1  0
  3  4  1  0
  3 38  1  1
  4  5  1  0
  4 39  1  0
  4 40  1  0
  5 31  1  0
  5  6  1  0
  5 41  1  1
  6 17  1  0
  6  7  1  1
  6  8  1  0
  7 42  1  0
  7 43  1  0
  7 44  1  0
  8  9  1  0
  8 10  1  0
  8 45  1  1
  9 46  1  0
 10 11  1  0
 10 47  1  0
 10 48  1  0
 11 12  1  0
 11 49  1  0
 11 50  1  0
 12 13  1  0
 12 14  1  0
 12 15  1  0
 13 51  1  0
 13 52  1  0
 13 53  1  0
 14 54  1  0
 14 55  1  0
 14 56  1  0
 15 31  1  0
 15 16  1  0
 15 57  1  6
 16 17  1  0
 16 58  1  0
 16 59  1  0
 17 18  1  1
 17 19  1  0
 18 60  1  0
 25 19  1  1
 19 20  1  6
 19 21  1  0
 20 61  1  0
 21 22  1  0
 22 23  1  0
 22 62  1  0
 22 63  1  0
 23 24  1  0
 23 25  1  0
 23 64  1  1
 24 65  1  0
 25 30  1  0
 25 26  1  0
 26 27  1  0
 26 28  1  0
 26 66  1  6
 27 67  1  0
 28 29  1  6
 28 30  1  0
 31 28  1  1
 29 68  1  0
 29 69  1  0
 29 70  1  0
 30 71  1  6
 31 32  1  0
 32 33  1  0
 32 72  1  6
 33 73  1  0
M  END
>  <i_m_ct_stereo_status>  (88) 
1

>  <s_m_source_file>  (88) 
/var/tmp/pbs.5076255.sched01/tmpfev35gxg/05fxellcm.sdf

>  <i_m_source_file_index>  (88) 
37

>  <i_lp_mmshare_version>  (88) 
48012

>  <i_f3d_flags>  (88) 
0

>  <s_epik_input>  (88) 
W09IXVtDQEhdMVtDSDJdW0NIMl1DKFtDSDNdKShbQ0gzXSlbQ0BIXShbQ0gyXTIpW0NAXTMoW0NAXShbQ0gzXSkoW0NAQEhdNFtPSF0pW0NASF01W0NASF0oW0NIMl02KVtDQEBIXShbQ0gzXSlbQ0BASF0zW09IXSlbQ0BIXTZbQ0BdMShbQ0gzXSlbQ0BdMihbT0hdKVtDQF0oW0NAQF00NTcpKFtPSF0pT1tDSDJdW0NASF03W09IXQ==

>  <s_epik_cmdline>  (88) 
J2VwaWtfcHl0aG9uJywgJy1waHQnLCAnMi4wJywgJy1waCcsICc3LjAnLCAnLXRuJywgJzgnLCAnLW1hJywgJzIwMCcsICctaW1hZScsICc8aW5maWxlLm1hZT4nLCAnLW9tYWUnLCAnPG91dGZpbGUubWFlPic=

>  <r_lp_tautomer_probability>  (88) 
1

>  <r_epik_Ionization_Penalty>  (88) 
3.91848e-06

>  <r_epik_Ionization_Penalty_Charging>  (88) 
0

>  <r_epik_Ionization_Penalty_Neutral>  (88) 
3.91848e-06

>  <r_epik_State_Penalty>  (88) 
-0

>  <r_epik_Charging_Adjusted_Penalty>  (88) 
0

>  <i_epik_Tot_Q>  (88) 
0

>  <i_epik_Tot_abs_Q>  (88) 
0

>  <s_lp_Force_Field>  (88) 
OPLS3e

>  <r_lp_Energy>  (88) 
191.023

>  <b_lp_Chiralities_Consistent>  (88) 
1

>  <s_lp_Variant>  (88) 
23:0-1

>  <s_i_glide_gridfile>  (88) 
pfpi4k_grid

>  <i_i_glide_lignum>  (88) 
37

>  <i_i_glide_rotatable_bonds>  (88) 
6

>  <r_i_docking_score>  (88) 
-2.86732

>  <r_i_glide_ligand_efficiency>  (88) 
-0.0868884

>  <r_i_glide_ligand_efficiency_sa>  (88) 
-0.278697

>  <r_i_glide_ligand_efficiency_ln>  (88) 
-0.637676

>  <r_i_glide_gscore>  (88) 
-2.86732

>  <r_i_glide_lipo>  (88) 
-0.148034

>  <r_i_glide_hbond>  (88) 
0

>  <r_i_glide_metal>  (88) 
-0

>  <r_i_glide_rewards>  (88) 
-0.241421

>  <r_i_glide_evdw>  (88) 
-16.3387

>  <r_i_glide_ecoul>  (88) 
-10.9737

>  <r_i_glide_erotb>  (88) 
0

>  <r_i_glide_esite>  (88) 
-0.0148703

>  <r_i_glide_emodel>  (88) 
-31.9553

>  <r_i_glide_energy>  (88) 
-27.3124

>  <r_i_glide_einternal>  (88) 
2.60699

>  <r_i_glide_intrahb_reward>  (88) 
-0

>  <i_i_glide_confnum>  (88) 
1

>  <i_i_glide_posenum>  (88) 
32

>  <r_i_glide_eff_state_penalty>  (88) 
0

>  <ligand_id>  (88) 
23

>  <original_smiles>  (88) 
CC1C2CC3C4(C)C(O)CCC(C)(C)C5CC4(O)C4(O)OCC(O)C46C(O)C(C)(C26)C53C1O

>  <smiles>  (88) 
[H]OC1([H])C([H])([H])OC2(O[H])C3(O[H])C([H])([H])C4([H])C(C([H])([H])[H])(C([H])([H])[H])C([H])([H])C([H])([H])C([H])(O[H])C3(C([H])([H])[H])C3([H])C([H])([H])C5([H])C([H])(C([H])([H])[H])C([H])(O[H])C43C3(C([H])([H])[H])C([H])(O[H])C12C53[H]

$$$$
23:0:1
     RDKit          3D

 73 79  0  0  1  0  0  0  0  0999 V2000
    6.1999   -9.9499    3.4616 C   0  0  0  0  0  0  0  0  0  0  0  0
    5.5895   -8.6320    3.9839 C   0  0  2  0  0  0  0  0  0  0  0  0
    4.2043   -8.8555    4.6873 C   0  0  1  0  0  0  0  0  0  0  0  0
    3.9190   -7.6069    5.4585 C   0  0  0  0  0  0  0  0  0  0  0  0
    3.8930   -6.4246    4.4623 C   0  0  2  0  0  0  0  0  0  0  0  0
    2.9055   -5.3036    4.8888 C   0  0  1  0  0  0  0  0  0  0  0  0
    2.5610   -5.3050    6.4329 C   0  0  0  0  0  0  0  0  0  0  0  0
    3.5489   -3.8304    4.7787 C   0  0  1  0  0  0  0  0  0  0  0  0
    4.6778   -3.6781    5.6268 O   0  0  0  0  0  0  0  0  0  0  0  0
    3.9397   -3.0788    3.4745 C   0  0  0  0  0  0  0  0  0  0  0  0
    4.9603   -3.7376    2.5286 C   0  0  0  0  0  0  0  0  0  0  0  0
    4.3759   -4.6263    1.4083 C   0  0  0  0  0  0  0  0  0  0  0  0
    3.6131   -3.7395    0.3810 C   0  0  0  0  0  0  0  0  0  0  0  0
    5.5303   -5.2196    0.5544 C   0  0  0  0  0  0  0  0  0  0  0  0
    3.4471   -5.7632    1.9690 C   0  0  2  0  0  0  0  0  0  0  0  0
    2.0262   -5.3015    2.4975 C   0  0  0  0  0  0  0  0  0  0  0  0
    1.6529   -5.5698    3.9974 C   0  0  2  0  0  0  0  0  0  0  0  0
    0.7114   -4.5470    4.3247 O   0  0  0  0  0  0  0  0  0  0  0  0
    0.9250   -7.0096    4.1844 C   0  0  2  0  0  0  0  0  0  0  0  0
   -0.3370   -6.8759    3.5391 O   0  0  0  0  0  0  0  0  0  0  0  0
    0.6556   -7.2493    5.5267 O   0  0  0  0  0  0  0  0  0  0  0  0
    0.2712   -8.6115    5.7406 C   0  0  0  0  0  0  0  0  0  0  0  0
    0.5973   -9.3543    4.4458 C   0  0  1  0  0  0  0  0  0  0  0  0
   -0.5847   -9.5783    3.6865 O   0  0  0  0  0  0  0  0  0  0  0  0
    1.5497   -8.4158    3.7233 C   0  0  1  0  0  0  0  0  0  0  0  0
    1.7426   -8.5375    2.2304 C   0  0  1  0  0  0  0  0  0  0  0  0
    0.9887   -7.8343    1.2747 O   0  0  0  0  0  0  0  0  0  0  0  0
    3.2570   -8.2473    2.4087 C   0  0  2  0  0  0  0  0  0  0  0  0
    3.9089   -8.9239    1.1562 C   0  0  0  0  0  0  0  0  0  0  0  0
    3.0554   -9.0234    3.6768 C   0  0  1  0  0  0  0  0  0  0  0  0
    4.0144   -6.8997    2.9009 C   0  0  2  0  0  0  0  0  0  0  0  0
    5.5223   -7.4350    2.9379 C   0  0  1  0  0  0  0  0  0  0  0  0
    6.5560   -6.5357    3.3030 O   0  0  0  0  0  0  0  0  0  0  0  0
    5.4806  -10.5641    2.9204 H   0  0  0  0  0  0  0  0  0  0  0  0
    6.5458  -10.5659    4.2927 H   0  0  0  0  0  0  0  0  0  0  0  0
    7.0583   -9.7677    2.8125 H   0  0  0  0  0  0  0  0  0  0  0  0
    6.2812   -8.3338    4.7748 H   0  0  0  0  0  0  0  0  0  0  0  0
    4.2517   -9.7024    5.3733 H   0  0  0  0  0  0  0  0  0  0  0  0
    2.9867   -7.7906    5.9753 H   0  0  0  0  0  0  0  0  0  0  0  0
    4.6670   -7.4436    6.2342 H   0  0  0  0  0  0  0  0  0  0  0  0
    4.8225   -5.9379    4.7083 H   0  0  0  0  0  0  0  0  0  0  0  0
    1.8848   -4.4906    6.6906 H   0  0  0  0  0  0  0  0  0  0  0  0
    3.4471   -5.1902    7.0572 H   0  0  0  0  0  0  0  0  0  0  0  0
    2.0816   -6.1803    6.8441 H   0  0  0  0  0  0  0  0  0  0  0  0
    2.8194   -3.1569    5.2291 H   0  0  0  0  0  0  0  0  0  0  0  0
    5.3919   -4.1838    5.2734 H   0  0  0  0  0  0  0  0  0  0  0  0
    3.0706   -2.6934    2.9494 H   0  0  0  0  0  0  0  0  0  0  0  0
    4.4069   -2.1486    3.8002 H   0  0  0  0  0  0  0  0  0  0  0  0
    5.5312   -2.9399    2.0489 H   0  0  0  0  0  0  0  0  0  0  0  0
    5.6942   -4.2692    3.1233 H   0  0  0  0  0  0  0  0  0  0  0  0
    3.1621   -4.3451   -0.4053 H   0  0  0  0  0  0  0  0  0  0  0  0
    4.2871   -3.0399   -0.1143 H   0  0  0  0  0  0  0  0  0  0  0  0
    2.8294   -3.1187    0.8062 H   0  0  0  0  0  0  0  0  0  0  0  0
    5.1930   -6.0482   -0.0678 H   0  0  0  0  0  0  0  0  0  0  0  0
    6.3759   -5.5679    1.1338 H   0  0  0  0  0  0  0  0  0  0  0  0
    5.9599   -4.4810   -0.1222 H   0  0  0  0  0  0  0  0  0  0  0  0
    3.1894   -6.2657    1.0399 H   0  0  0  0  0  0  0  0  0  0  0  0
    1.9215   -4.2426    2.3427 H   0  0  0  0  0  0  0  0  0  0  0  0
    1.2233   -5.6094    1.8426 H   0  0  0  0  0  0  0  0  0  0  0  0
    1.1350   -3.7082    4.2314 H   0  0  0  0  0  0  0  0  0  0  0  0
   -0.6908   -7.7586    3.4782 H   0  0  0  0  0  0  0  0  0  0  0  0
    0.8704   -8.9981    6.5661 H   0  0  0  0  0  0  0  0  0  0  0  0
   -0.7814   -8.7111    6.0126 H   0  0  0  0  0  0  0  0  0  0  0  0
    1.0527  -10.3223    4.6678 H   0  0  0  0  0  0  0  0  0  0  0  0
   -1.1548  -10.1675    4.2022 H   0  0  0  0  0  0  0  0  0  0  0  0
    1.5662   -9.5888    1.9694 H   0  0  0  0  0  0  0  0  0  0  0  0
    0.5465   -8.4895    0.7506 H   0  0  0  0  0  0  0  0  0  0  0  0
    4.8843   -9.3708    1.2953 H   0  0  0  0  0  0  0  0  0  0  0  0
    3.9900   -8.2357    0.3164 H   0  0  0  0  0  0  0  0  0  0  0  0
    3.3268   -9.7735    0.7948 H   0  0  0  0  0  0  0  0  0  0  0  0
    2.9998  -10.0919    3.4355 H   0  0  0  0  0  0  0  0  0  0  0  0
    5.8808   -7.7331    1.9575 H   0  0  0  0  0  0  0  0  0  0  0  0
    6.4129   -6.2731    4.1981 H   0  0  0  0  0  0  0  0  0  0  0  0
  1  2  1  0
  1 34  1  0
  1 35  1  0
  1 36  1  0
  2 32  1  0
  2  3  1  0
  2 37  1  1
  3 30  1  0
  3  4  1  0
  3 38  1  1
  4  5  1  0
  4 39  1  0
  4 40  1  0
  5 31  1  0
  5  6  1  0
  5 41  1  1
  6 17  1  0
  6  7  1  1
  6  8  1  0
  7 42  1  0
  7 43  1  0
  7 44  1  0
  8  9  1  0
  8 10  1  0
  8 45  1  1
  9 46  1  0
 10 11  1  0
 10 47  1  0
 10 48  1  0
 11 12  1  0
 11 49  1  0
 11 50  1  0
 12 13  1  0
 12 14  1  0
 12 15  1  0
 13 51  1  0
 13 52  1  0
 13 53  1  0
 14 54  1  0
 14 55  1  0
 14 56  1  0
 15 31  1  0
 15 16  1  0
 15 57  1  6
 16 17  1  0
 16 58  1  0
 16 59  1  0
 17 18  1  1
 17 19  1  0
 18 60  1  0
 25 19  1  6
 19 20  1  6
 19 21  1  0
 20 61  1  0
 21 22  1  0
 22 23  1  0
 22 62  1  0
 22 63  1  0
 23 24  1  0
 23 25  1  0
 23 64  1  1
 24 65  1  0
 25 30  1  0
 25 26  1  0
 26 27  1  0
 26 28  1  0
 26 66  1  6
 27 67  1  0
 28 29  1  6
 28 30  1  0
 31 28  1  1
 29 68  1  0
 29 69  1  0
 29 70  1  0
 30 71  1  6
 31 32  1  0
 32 33  1  0
 32 72  1  6
 33 73  1  0
M  END
>  <i_m_ct_stereo_status>  (89) 
1

>  <s_m_source_file>  (89) 
/var/tmp/pbs.5076255.sched01/tmpfev35gxg/05fxellcm.sdf

>  <i_m_source_file_index>  (89) 
37

>  <i_lp_mmshare_version>  (89) 
48012

>  <i_f3d_flags>  (89) 
0

>  <s_epik_input>  (89) 
W09IXVtDQEhdMVtDSDJdW0NIMl1DKFtDSDNdKShbQ0gzXSlbQ0BIXShbQ0gyXTIpW0NAXTMoW0NAXShbQ0gzXSkoW0NAQEhdNFtPSF0pW0NASF01W0NASF0oW0NIMl02KVtDQEBIXShbQ0gzXSlbQ0BASF0zW09IXSlbQ0BIXTZbQ0BdMShbQ0gzXSlbQ0BdMihbT0hdKVtDQF0oW0NAQF00NTcpKFtPSF0pT1tDSDJdW0NASF03W09IXQ==

>  <s_epik_cmdline>  (89) 
J2VwaWtfcHl0aG9uJywgJy1waHQnLCAnMi4wJywgJy1waCcsICc3LjAnLCAnLXRuJywgJzgnLCAnLW1hJywgJzIwMCcsICctaW1hZScsICc8aW5maWxlLm1hZT4nLCAnLW9tYWUnLCAnPG91dGZpbGUubWFlPic=

>  <r_lp_tautomer_probability>  (89) 
1

>  <r_epik_Ionization_Penalty>  (89) 
3.91848e-06

>  <r_epik_Ionization_Penalty_Charging>  (89) 
0

>  <r_epik_Ionization_Penalty_Neutral>  (89) 
3.91848e-06

>  <r_epik_State_Penalty>  (89) 
-0

>  <r_epik_Charging_Adjusted_Penalty>  (89) 
0

>  <i_epik_Tot_Q>  (89) 
0

>  <i_epik_Tot_abs_Q>  (89) 
0

>  <s_lp_Force_Field>  (89) 
OPLS3e

>  <r_lp_Energy>  (89) 
191.023

>  <b_lp_Chiralities_Consistent>  (89) 
1

>  <s_lp_Variant>  (89) 
23:0-1

>  <s_i_glide_gridfile>  (89) 
pfpi4k_grid

>  <i_i_glide_lignum>  (89) 
37

>  <i_i_glide_rotatable_bonds>  (89) 
6

>  <r_i_docking_score>  (89) 
-2.76762

>  <r_i_glide_ligand_efficiency>  (89) 
-0.0838672

>  <r_i_glide_ligand_efficiency_sa>  (89) 
-0.269007

>  <r_i_glide_ligand_efficiency_ln>  (89) 
-0.615504

>  <r_i_glide_gscore>  (89) 
-2.76762

>  <r_i_glide_lipo>  (89) 
-0.175669

>  <r_i_glide_hbond>  (89) 
0

>  <r_i_glide_metal>  (89) 
-0

>  <r_i_glide_rewards>  (89) 
-0.241421

>  <r_i_glide_evdw>  (89) 
-17.2866

>  <r_i_glide_ecoul>  (89) 
-9.80976

>  <r_i_glide_erotb>  (89) 
0

>  <r_i_glide_esite>  (89) 
-0.0147336

>  <r_i_glide_emodel>  (89) 
-31.899

>  <r_i_glide_energy>  (89) 
-27.0963

>  <r_i_glide_einternal>  (89) 
1.89376

>  <r_i_glide_intrahb_reward>  (89) 
-0

>  <i_i_glide_confnum>  (89) 
2

>  <i_i_glide_posenum>  (89) 
17

>  <r_i_glide_eff_state_penalty>  (89) 
0

>  <ligand_id>  (89) 
23

>  <original_smiles>  (89) 
CC1C2CC3C4(C)C(O)CCC(C)(C)C5CC4(O)C4(O)OCC(O)C46C(O)C(C)(C26)C53C1O

>  <smiles>  (89) 
[H]OC1([H])C([H])([H])OC2(O[H])C3(O[H])C([H])([H])C4([H])C(C([H])([H])[H])(C([H])([H])[H])C([H])([H])C([H])([H])C([H])(O[H])C3(C([H])([H])[H])C3([H])C([H])([H])C5([H])C([H])(C([H])([H])[H])C([H])(O[H])C43C3(C([H])([H])[H])C([H])(O[H])C12C53[H]

$$$$
23:0:2
     RDKit          3D

 73 79  0  0  1  0  0  0  0  0999 V2000
    7.7026   -7.4192    2.5321 C   0  0  0  0  0  0  0  0  0  0  0  0
    6.9732   -6.0843    2.7864 C   0  0  2  0  0  0  0  0  0  0  0  0
    5.8387   -6.2176    3.8665 C   0  0  1  0  0  0  0  0  0  0  0  0
    5.4957   -4.8302    4.2949 C   0  0  0  0  0  0  0  0  0  0  0  0
    5.0464   -4.0475    3.0373 C   0  0  2  0  0  0  0  0  0  0  0  0
    3.9816   -2.9630    3.3616 C   0  0  1  0  0  0  0  0  0  0  0  0
    3.9792   -2.4906    4.8708 C   0  0  0  0  0  0  0  0  0  0  0  0
    4.2763   -1.5430    2.6611 C   0  0  1  0  0  0  0  0  0  0  0  0
    5.5127   -0.9847    3.0849 O   0  0  0  0  0  0  0  0  0  0  0  0
    4.2283   -1.2202    1.1406 C   0  0  0  0  0  0  0  0  0  0  0  0
    5.1328   -2.0317    0.1950 C   0  0  0  0  0  0  0  0  0  0  0  0
    4.5070   -3.2989   -0.4227 C   0  0  0  0  0  0  0  0  0  0  0  0
    3.3847   -2.8979   -1.4182 C   0  0  0  0  0  0  0  0  0  0  0  0
    5.5281   -4.0075   -1.3413 C   0  0  0  0  0  0  0  0  0  0  0  0
    3.9641   -4.2934    0.6636 C   0  0  2  0  0  0  0  0  0  0  0  0
    2.6396   -3.8476    1.3912 C   0  0  0  0  0  0  0  0  0  0  0  0
    2.6493   -3.6469    2.9439 C   0  0  2  0  0  0  0  0  0  0  0  0
    1.6295   -2.6808    3.1706 O   0  0  0  0  0  0  0  0  0  0  0  0
    2.2554   -5.0076    3.7411 C   0  0  2  0  0  0  0  0  0  0  0  0
    0.8893   -5.2271    3.4437 O   0  0  0  0  0  0  0  0  0  0  0  0
    2.3300   -4.8200    5.1180 O   0  0  0  0  0  0  0  0  0  0  0  0
    2.2641   -6.0594    5.8230 C   0  0  0  0  0  0  0  0  0  0  0  0
    2.4362   -7.1478    4.7642 C   0  0  1  0  0  0  0  0  0  0  0  0
    1.1856   -7.7573    4.4871 O   0  0  0  0  0  0  0  0  0  0  0  0
    3.0015   -6.4093    3.5598 C   0  0  1  0  0  0  0  0  0  0  0  0
    2.8717   -6.9975    2.1668 C   0  0  1  0  0  0  0  0  0  0  0  0
    1.7996   -6.7526    1.2834 O   0  0  0  0  0  0  0  0  0  0  0  0
    4.3146   -6.4966    1.8463 C   0  0  2  0  0  0  0  0  0  0  0  0
    4.7905   -7.4675    0.7225 C   0  0  0  0  0  0  0  0  0  0  0  0
    4.5454   -6.8336    3.2926 C   0  0  1  0  0  0  0  0  0  0  0  0
    4.9093   -4.9924    1.7056 C   0  0  2  0  0  0  0  0  0  0  0  0
    6.4589   -5.3199    1.4922 C   0  0  1  0  0  0  0  0  0  0  0  0
    7.3583   -4.2495    1.2728 O   0  0  0  0  0  0  0  0  0  0  0  0
    7.0166   -8.2544    2.4057 H   0  0  0  0  0  0  0  0  0  0  0  0
    8.3323   -7.6800    3.3824 H   0  0  0  0  0  0  0  0  0  0  0  0
    8.3502   -7.3649    1.6549 H   0  0  0  0  0  0  0  0  0  0  0  0
    7.7427   -5.4581    3.2394 H   0  0  0  0  0  0  0  0  0  0  0  0
    6.1926   -6.7884    4.7255 H   0  0  0  0  0  0  0  0  0  0  0  0
    4.7388   -4.9397    5.0613 H   0  0  0  0  0  0  0  0  0  0  0  0
    6.3356   -4.3400    4.7849 H   0  0  0  0  0  0  0  0  0  0  0  0
    5.9002   -3.4031    2.8775 H   0  0  0  0  0  0  0  0  0  0  0  0
    3.2337   -1.7140    5.0404 H   0  0  0  0  0  0  0  0  0  0  0  0
    4.9430   -2.0768    5.1718 H   0  0  0  0  0  0  0  0  0  0  0  0
    3.7749   -3.2241    5.6376 H   0  0  0  0  0  0  0  0  0  0  0  0
    3.5338   -0.8526    3.0672 H   0  0  0  0  0  0  0  0  0  0  0  0
    6.2121   -1.5015    2.7126 H   0  0  0  0  0  0  0  0  0  0  0  0
    3.2085   -1.1324    0.7761 H   0  0  0  0  0  0  0  0  0  0  0  0
    4.5687   -0.1886    1.0460 H   0  0  0  0  0  0  0  0  0  0  0  0
    5.4206   -1.3778   -0.6307 H   0  0  0  0  0  0  0  0  0  0  0  0
    6.0647   -2.2476    0.7109 H   0  0  0  0  0  0  0  0  0  0  0  0
    2.8917   -3.7728   -1.8401 H   0  0  0  0  0  0  0  0  0  0  0  0
    3.7842   -2.3310   -2.2595 H   0  0  0  0  0  0  0  0  0  0  0  0
    2.6117   -2.2627   -0.9982 H   0  0  0  0  0  0  0  0  0  0  0  0
    5.2098   -5.0243   -1.5666 H   0  0  0  0  0  0  0  0  0  0  0  0
    6.5296   -4.0483   -0.9418 H   0  0  0  0  0  0  0  0  0  0  0  0
    5.6452   -3.4992   -2.2973 H   0  0  0  0  0  0  0  0  0  0  0  0
    3.6076   -5.0971    0.0231 H   0  0  0  0  0  0  0  0  0  0  0  0
    2.2866   -2.9243    0.9587 H   0  0  0  0  0  0  0  0  0  0  0  0
    1.8137   -4.4685    1.0903 H   0  0  0  0  0  0  0  0  0  0  0  0
    0.8222   -3.0616    2.8595 H   0  0  0  0  0  0  0  0  0  0  0  0
    0.6925   -6.1097    3.7547 H   0  0  0  0  0  0  0  0  0  0  0  0
    3.0867   -6.0914    6.5411 H   0  0  0  0  0  0  0  0  0  0  0  0
    1.3248   -6.1696    6.3680 H   0  0  0  0  0  0  0  0  0  0  0  0
    3.1107   -7.9334    5.1114 H   0  0  0  0  0  0  0  0  0  0  0  0
    1.0130   -8.4130    5.1531 H   0  0  0  0  0  0  0  0  0  0  0  0
    2.8536   -8.0849    2.2887 H   0  0  0  0  0  0  0  0  0  0  0  0
    1.5128   -7.6030    0.9766 H   0  0  0  0  0  0  0  0  0  0  0  0
    5.8318   -7.7362    0.7563 H   0  0  0  0  0  0  0  0  0  0  0  0
    4.5701   -7.0939   -0.2779 H   0  0  0  0  0  0  0  0  0  0  0  0
    4.3144   -8.4449    0.7861 H   0  0  0  0  0  0  0  0  0  0  0  0
    4.6545   -7.9210    3.3888 H   0  0  0  0  0  0  0  0  0  0  0  0
    6.6450   -5.8838    0.5836 H   0  0  0  0  0  0  0  0  0  0  0  0
    7.0629   -3.7818    0.4971 H   0  0  0  0  0  0  0  0  0  0  0  0
  1  2  1  0
  1 34  1  0
  1 35  1  0
  1 36  1  0
  2 32  1  0
  2  3  1  0
  2 37  1  1
  3 30  1  0
  3  4  1  0
  3 38  1  1
  4  5  1  0
  4 39  1  0
  4 40  1  0
  5 31  1  0
  5  6  1  0
  5 41  1  6
  6 17  1  0
  6  7  1  1
  6  8  1  0
  7 42  1  0
  7 43  1  0
  7 44  1  0
  8  9  1  0
  8 10  1  0
  8 45  1  1
  9 46  1  0
 10 11  1  0
 10 47  1  0
 10 48  1  0
 11 12  1  0
 11 49  1  0
 11 50  1  0
 12 13  1  0
 12 14  1  0
 12 15  1  0
 13 51  1  0
 13 52  1  0
 13 53  1  0
 14 54  1  0
 14 55  1  0
 14 56  1  0
 15 31  1  0
 15 16  1  0
 15 57  1  6
 16 17  1  0
 16 58  1  0
 16 59  1  0
 17 18  1  6
 17 19  1  0
 18 60  1  0
 25 19  1  6
 19 20  1  1
 19 21  1  0
 20 61  1  0
 21 22  1  0
 22 23  1  0
 22 62  1  0
 22 63  1  0
 23 24  1  0
 23 25  1  0
 23 64  1  1
 24 65  1  0
 25 30  1  0
 25 26  1  0
 26 27  1  0
 26 28  1  0
 26 66  1  1
 27 67  1  0
 28 29  1  6
 28 30  1  0
 31 28  1  1
 29 68  1  0
 29 69  1  0
 29 70  1  0
 30 71  1  6
 31 32  1  0
 32 33  1  0
 32 72  1  6
 33 73  1  0
M  END
>  <i_m_ct_stereo_status>  (90) 
1

>  <s_m_source_file>  (90) 
/var/tmp/pbs.5076255.sched01/tmpfev35gxg/05fxellcm.sdf

>  <i_m_source_file_index>  (90) 
37

>  <i_lp_mmshare_version>  (90) 
48012

>  <i_f3d_flags>  (90) 
0

>  <s_epik_input>  (90) 
W09IXVtDQEhdMVtDSDJdW0NIMl1DKFtDSDNdKShbQ0gzXSlbQ0BIXShbQ0gyXTIpW0NAXTMoW0NAXShbQ0gzXSkoW0NAQEhdNFtPSF0pW0NASF01W0NASF0oW0NIMl02KVtDQEBIXShbQ0gzXSlbQ0BASF0zW09IXSlbQ0BIXTZbQ0BdMShbQ0gzXSlbQ0BdMihbT0hdKVtDQF0oW0NAQF00NTcpKFtPSF0pT1tDSDJdW0NASF03W09IXQ==

>  <s_epik_cmdline>  (90) 
J2VwaWtfcHl0aG9uJywgJy1waHQnLCAnMi4wJywgJy1waCcsICc3LjAnLCAnLXRuJywgJzgnLCAnLW1hJywgJzIwMCcsICctaW1hZScsICc8aW5maWxlLm1hZT4nLCAnLW9tYWUnLCAnPG91dGZpbGUubWFlPic=

>  <r_lp_tautomer_probability>  (90) 
1

>  <r_epik_Ionization_Penalty>  (90) 
3.91848e-06

>  <r_epik_Ionization_Penalty_Charging>  (90) 
0

>  <r_epik_Ionization_Penalty_Neutral>  (90) 
3.91848e-06

>  <r_epik_State_Penalty>  (90) 
-0

>  <r_epik_Charging_Adjusted_Penalty>  (90) 
0

>  <i_epik_Tot_Q>  (90) 
0

>  <i_epik_Tot_abs_Q>  (90) 
0

>  <s_lp_Force_Field>  (90) 
OPLS3e

>  <r_lp_Energy>  (90) 
191.023

>  <b_lp_Chiralities_Consistent>  (90) 
1

>  <s_lp_Variant>  (90) 
23:0-1

>  <s_i_glide_gridfile>  (90) 
pfpi4k_grid

>  <i_i_glide_lignum>  (90) 
37

>  <i_i_glide_rotatable_bonds>  (90) 
6

>  <r_i_docking_score>  (90) 
-2.00598

>  <r_i_glide_ligand_efficiency>  (90) 
-0.0607874

>  <r_i_glide_ligand_efficiency_sa>  (90) 
-0.194978

>  <r_i_glide_ligand_efficiency_ln>  (90) 
-0.44612

>  <r_i_glide_gscore>  (90) 
-2.00598

>  <r_i_glide_lipo>  (90) 
-0.357659

>  <r_i_glide_hbond>  (90) 
0

>  <r_i_glide_metal>  (90) 
-0

>  <r_i_glide_rewards>  (90) 
-0.241421

>  <r_i_glide_evdw>  (90) 
-20.117

>  <r_i_glide_ecoul>  (90) 
-2.67369

>  <r_i_glide_erotb>  (90) 
0

>  <r_i_glide_esite>  (90) 
0

>  <r_i_glide_emodel>  (90) 
-25.4854

>  <r_i_glide_energy>  (90) 
-22.7907

>  <r_i_glide_einternal>  (90) 
2.48309

>  <r_i_glide_intrahb_reward>  (90) 
-0

>  <i_i_glide_confnum>  (90) 
1

>  <i_i_glide_posenum>  (90) 
13

>  <r_i_glide_eff_state_penalty>  (90) 
0

>  <ligand_id>  (90) 
23

>  <original_smiles>  (90) 
CC1C2CC3C4(C)C(O)CCC(C)(C)C5CC4(O)C4(O)OCC(O)C46C(O)C(C)(C26)C53C1O

>  <smiles>  (90) 
[H]OC1([H])C([H])([H])OC2(O[H])C3(O[H])C([H])([H])C4([H])C(C([H])([H])[H])(C([H])([H])[H])C([H])([H])C([H])([H])C([H])(O[H])C3(C([H])([H])[H])C3([H])C([H])([H])C5([H])C([H])(C([H])([H])[H])C([H])(O[H])C43C3(C([H])([H])[H])C([H])(O[H])C12C53[H]

$$$$
24:0:0
     RDKit          3D

 67 74  0  0  1  0  0  0  0  0999 V2000
    3.4001   -3.5247   -3.2472 C   0  0  0  0  0  0  0  0  0  0  0  0
    3.4151   -3.6940   -1.6883 C   0  0  2  0  0  0  0  0  0  0  0  0
    2.8947   -2.5014   -0.9682 C   0  0  0  0  0  0  0  0  0  0  0  0
    3.8225   -1.8314    0.1102 C   0  0  2  0  0  0  0  0  0  0  0  0
    4.3207   -0.7224   -0.6200 O   0  0  0  0  0  0  0  0  0  0  0  0
    4.8786   -0.8328   -1.8436 C   0  0  0  0  0  0  0  0  0  0  0  0
    4.6743    0.0219   -2.6796 O   0  0  0  0  0  0  0  0  0  0  0  0
    5.6253   -1.9893   -2.0600 O   0  0  0  0  0  0  0  0  0  0  0  0
    5.8670   -3.0067   -1.0881 C   0  0  1  0  0  0  0  0  0  0  0  0
    6.2296   -2.2505    0.2338 C   0  0  0  0  0  0  0  0  0  0  0  0
    4.9919   -2.5299    1.0748 C   0  0  1  0  0  0  0  0  0  0  0  0
    4.8215   -1.7596    2.3688 C   0  0  0  0  0  0  0  0  0  0  0  0
    3.5223   -2.2806    3.0497 C   0  0  0  0  0  0  0  0  0  0  0  0
    3.5134   -3.8152    3.3992 C   0  0  1  0  0  0  0  0  0  0  0  0
    3.3160   -3.7798    4.9411 C   0  0  0  0  0  0  0  0  0  0  0  0
    2.4916   -4.7154    2.5898 C   0  0  1  0  0  0  0  0  0  0  0  0
    2.8590   -4.7466    1.0379 C   0  0  0  0  0  0  0  0  0  0  0  0
    4.3501   -4.8397    0.4496 C   0  0  1  0  0  0  0  0  0  0  0  0
    4.6554   -6.3453    0.2478 C   0  0  0  0  0  0  0  0  0  0  0  0
    4.7059   -4.1537   -1.0072 C   0  0  1  0  0  0  0  0  0  0  0  0
    5.1976   -4.1276    1.4908 C   0  0  1  0  0  0  0  0  0  0  0  0
    6.6899   -4.6532    1.4043 C   0  0  0  0  0  0  0  0  0  0  0  0
    4.8420   -4.4679    3.0198 C   0  0  2  0  0  0  0  0  0  0  0  0
    4.9296   -5.9691    3.5521 C   0  0  0  0  0  0  0  0  0  0  0  0
    3.6326   -6.8210    3.5965 C   0  0  1  0  0  0  0  0  0  0  0  0
    3.0414   -7.0618    4.9811 C   0  0  2  0  0  0  0  0  0  0  0  0
    1.7288   -7.7790    5.1647 C   0  0  0  0  0  0  0  0  0  0  0  0
    1.7522   -6.3914    4.5367 C   0  0  2  0  0  0  0  0  0  0  0  0
    2.3247   -6.1628    3.1351 C   0  0  1  0  0  0  0  0  0  0  0  0
    1.3968   -7.0069    2.2142 C   0  0  0  0  0  0  0  0  0  0  0  0
    1.8066   -8.1167    1.8139 O   0  0  0  0  0  0  0  0  0  0  0  0
    0.2974   -6.4862    1.9109 O   0  0  0  0  0  0  0  0  0  0  0  0
    3.9672   -2.7051   -3.6686 H   0  0  0  0  0  0  0  0  0  0  0  0
    2.3675   -3.4583   -3.6003 H   0  0  0  0  0  0  0  0  0  0  0  0
    3.8098   -4.4196   -3.7213 H   0  0  0  0  0  0  0  0  0  0  0  0
    2.6495   -4.4333   -1.4927 H   0  0  0  0  0  0  0  0  0  0  0  0
    2.6024   -1.7939   -1.7392 H   0  0  0  0  0  0  0  0  0  0  0  0
    1.8912   -2.6906   -0.5987 H   0  0  0  0  0  0  0  0  0  0  0  0
    3.0909   -1.3228    0.7432 H   0  0  0  0  0  0  0  0  0  0  0  0
    6.7738   -3.4983   -1.4354 H   0  0  0  0  0  0  0  0  0  0  0  0
    7.1969   -2.5031    0.6490 H   0  0  0  0  0  0  0  0  0  0  0  0
    6.4364   -1.1859    0.1271 H   0  0  0  0  0  0  0  0  0  0  0  0
    5.6935   -1.8757    3.0088 H   0  0  0  0  0  0  0  0  0  0  0  0
    4.7442   -0.6834    2.1756 H   0  0  0  0  0  0  0  0  0  0  0  0
    3.4064   -1.6451    3.9282 H   0  0  0  0  0  0  0  0  0  0  0  0
    2.6158   -2.0420    2.4963 H   0  0  0  0  0  0  0  0  0  0  0  0
    3.6206   -4.6735    5.4593 H   0  0  0  0  0  0  0  0  0  0  0  0
    2.2799   -3.5650    5.1988 H   0  0  0  0  0  0  0  0  0  0  0  0
    3.9261   -3.0120    5.4171 H   0  0  0  0  0  0  0  0  0  0  0  0
    1.5132   -4.2349    2.6731 H   0  0  0  0  0  0  0  0  0  0  0  0
    2.2324   -5.4145    0.4531 H   0  0  0  0  0  0  0  0  0  0  0  0
    2.4265   -3.7986    0.8815 H   0  0  0  0  0  0  0  0  0  0  0  0
    5.6750   -6.5032   -0.0888 H   0  0  0  0  0  0  0  0  0  0  0  0
    4.0223   -6.7614   -0.5313 H   0  0  0  0  0  0  0  0  0  0  0  0
    4.5041   -6.9631    1.1226 H   0  0  0  0  0  0  0  0  0  0  0  0
    5.0613   -4.9448   -1.6723 H   0  0  0  0  0  0  0  0  0  0  0  0
    6.8301   -5.6919    1.6683 H   0  0  0  0  0  0  0  0  0  0  0  0
    7.3435   -4.1002    2.0762 H   0  0  0  0  0  0  0  0  0  0  0  0
    7.1350   -4.6255    0.4093 H   0  0  0  0  0  0  0  0  0  0  0  0
    5.6064   -3.9635    3.6056 H   0  0  0  0  0  0  0  0  0  0  0  0
    5.6502   -6.5609    3.0066 H   0  0  0  0  0  0  0  0  0  0  0  0
    5.3757   -5.9364    4.5459 H   0  0  0  0  0  0  0  0  0  0  0  0
    3.7986   -7.7940    3.1370 H   0  0  0  0  0  0  0  0  0  0  0  0
    3.5783   -6.7408    5.8719 H   0  0  0  0  0  0  0  0  0  0  0  0
    1.5655   -8.6439    4.5307 H   0  0  0  0  0  0  0  0  0  0  0  0
    1.3465   -7.8779    6.1802 H   0  0  0  0  0  0  0  0  0  0  0  0
    1.2890   -5.5774    5.0879 H   0  0  0  0  0  0  0  0  0  0  0  0
  1  2  1  0
  1 33  1  0
  1 34  1  0
  1 35  1  0
  2 20  1  0
  2  3  1  0
  2 36  1  6
  3  4  1  0
  3 37  1  0
  3 38  1  0
  4 11  1  0
  4  5  1  0
  4 39  1  1
  5  6  1  0
  6  7  2  0
  6  8  1  0
  8  9  1  0
  9 20  1  0
  9 10  1  0
  9 40  1  6
 10 11  1  0
 10 41  1  0
 10 42  1  0
 11 21  1  0
 11 12  1  1
 12 13  1  0
 12 43  1  0
 12 44  1  0
 13 14  1  0
 13 45  1  0
 13 46  1  0
 14 23  1  0
 14 15  1  1
 14 16  1  0
 15 47  1  0
 15 48  1  0
 15 49  1  0
 16 29  1  0
 16 17  1  0
 16 50  1  6
 17 18  1  0
 17 51  1  0
 17 52  1  0
 18 19  1  6
 18 20  1  0
 18 21  1  0
 19 53  1  0
 19 54  1  0
 19 55  1  0
 20 56  1  6
 21 22  1  6
 21 23  1  0
 22 57  1  0
 22 58  1  0
 22 59  1  0
 23 24  1  0
 23 60  1  1
 24 25  1  0
 24 61  1  0
 24 62  1  0
 25 29  1  0
 25 26  1  0
 25 63  1  6
 26 28  1  0
 26 27  1  0
 26 64  1  1
 27 28  1  0
 27 65  1  0
 27 66  1  0
 28 29  1  0
 28 67  1  1
 29 30  1  6
 30 31  2  0
 30 32  1  0
M  CHG  1  32  -1
M  END
>  <i_m_ct_stereo_status>  (91) 
1

>  <s_m_source_file>  (91) 
/var/tmp/pbs.5076255.sched01/tmpfev35gxg/05fxellcm.sdf

>  <i_m_source_file_index>  (91) 
38

>  <i_lp_mmshare_version>  (91) 
48012

>  <i_f3d_flags>  (91) 
0

>  <s_epik_input>  (91) 
TzFDKD1PKU9bQ0BASF0oW0NIMl0yKVtDQEhdKFtDQEhdKFtDSDNdKVtDSDJdW0NASF0xW0NAQF0yMzQpW0NAQF01KFtDSDNdKVtDQF00KFtDSDNdKVtDQEhdNltDQEBdKFtDSDNdKShbQ0gyXVtDSDJdMylbQ0BASF0oW0NIMl01KVtDQEBdNyhDKD1PKVtPSF0pW0NAQEhdKFtDSDJdNilbQ0BIXThbQ0BASF03W0NIMl04

>  <s_epik_cmdline>  (91) 
J2VwaWtfcHl0aG9uJywgJy1waHQnLCAnMi4wJywgJy1waCcsICc3LjAnLCAnLXRuJywgJzgnLCAnLW1hJywgJzIwMCcsICctaW1hZScsICc8aW5maWxlLm1hZT4nLCAnLW9tYWUnLCAnPG91dGZpbGUubWFlPic=

>  <r_epik_Ionization_Penalty>  (91) 
0.00931708

>  <r_epik_Ionization_Penalty_Charging>  (91) 
0.00931708

>  <r_epik_Ionization_Penalty_Neutral>  (91) 
0

>  <r_epik_State_Penalty>  (91) 
0.00706907

>  <r_epik_Charging_Adjusted_Penalty>  (91) 
0.0163862

>  <i_epik_Tot_Q>  (91) 
-1

>  <i_epik_Tot_abs_Q>  (91) 
1

>  <s_epik_Chemistry_Notes>  (91) 
This compound has an ester and may undergo hydrolysis at high or low pH.

>  <s_lp_Force_Field>  (91) 
OPLS3e

>  <r_lp_Energy>  (91) 
221.243

>  <b_lp_Chiralities_Consistent>  (91) 
1

>  <s_lp_Variant>  (91) 
24:0-1

>  <s_i_glide_gridfile>  (91) 
pfpi4k_grid

>  <i_i_glide_lignum>  (91) 
38

>  <i_i_glide_rotatable_bonds>  (91) 
1

>  <r_i_docking_score>  (91) 
-2.11787

>  <r_i_glide_ligand_efficiency>  (91) 
-0.0661836

>  <r_i_glide_ligand_efficiency_sa>  (91) 
-0.21012

>  <r_i_glide_ligand_efficiency_ln>  (91) 
-0.47425

>  <r_i_glide_gscore>  (91) 
-2.11787

>  <r_i_glide_lipo>  (91) 
-0.551727

>  <r_i_glide_hbond>  (91) 
-0.195672

>  <r_i_glide_metal>  (91) 
-0

>  <r_i_glide_rewards>  (91) 
-0.412065

>  <r_i_glide_evdw>  (91) 
-11.7688

>  <r_i_glide_ecoul>  (91) 
-1.93446

>  <r_i_glide_erotb>  (91) 
0

>  <r_i_glide_esite>  (91) 
-0.0798028

>  <r_i_glide_emodel>  (91) 
-14.4892

>  <r_i_glide_energy>  (91) 
-13.7033

>  <r_i_glide_einternal>  (91) 
0.138327

>  <r_i_glide_intrahb_reward>  (91) 
-0

>  <i_i_glide_confnum>  (91) 
2

>  <i_i_glide_posenum>  (91) 
9

>  <r_i_glide_eff_state_penalty>  (91) 
0

>  <ligand_id>  (91) 
24

>  <original_smiles>  (91) 
CC1CC2OC(=O)OC3CC24CCC2(C)C5CC(C)(C13)C4(C)C2CC1C2CC2C15C(=O)O

>  <smiles>  (91) 
[H]C([H])([H])C1([H])C([H])([H])C2([H])OC(=O)OC3([H])C([H])([H])C24C([H])([H])C([H])([H])C2(C([H])([H])[H])C5([H])C([H])([H])C(C([H])([H])[H])(C31[H])C4(C([H])([H])[H])C2([H])C([H])([H])C1([H])C2([H])C([H])([H])C2([H])C15C(=O)[O-]

$$$$
24:0:1
     RDKit          3D

 67 74  0  0  1  0  0  0  0  0999 V2000
    6.8949   -5.2785    6.7865 C   0  0  0  0  0  0  0  0  0  0  0  0
    6.0745   -5.0715    5.4925 C   0  0  2  0  0  0  0  0  0  0  0  0
    4.6134   -4.6830    5.7362 C   0  0  0  0  0  0  0  0  0  0  0  0
    3.5301   -5.6086    5.0386 C   0  0  2  0  0  0  0  0  0  0  0  0
    3.0732   -6.3784    6.1664 O   0  0  0  0  0  0  0  0  0  0  0  0
    3.8785   -7.1679    6.9742 C   0  0  0  0  0  0  0  0  0  0  0  0
    3.5861   -7.4570    8.1340 O   0  0  0  0  0  0  0  0  0  0  0  0
    5.0338   -7.6068    6.3364 O   0  0  0  0  0  0  0  0  0  0  0  0
    5.3076   -7.5421    4.9289 C   0  0  1  0  0  0  0  0  0  0  0  0
    3.9620   -7.8696    4.2064 C   0  0  0  0  0  0  0  0  0  0  0  0
    3.6278   -6.5117    3.6237 C   0  0  1  0  0  0  0  0  0  0  0  0
    2.2486   -6.3149    3.0108 C   0  0  0  0  0  0  0  0  0  0  0  0
    2.2054   -4.8723    2.4215 C   0  0  0  0  0  0  0  0  0  0  0  0
    3.2557   -4.5628    1.2956 C   0  0  1  0  0  0  0  0  0  0  0  0
    2.3554   -4.1968    0.0895 C   0  0  0  0  0  0  0  0  0  0  0  0
    4.3811   -3.5069    1.6583 C   0  0  1  0  0  0  0  0  0  0  0  0
    5.2855   -4.0738    2.8399 C   0  0  0  0  0  0  0  0  0  0  0  0
    5.8257   -5.5855    2.9664 C   0  0  1  0  0  0  0  0  0  0  0  0
    7.1972   -5.6757    2.2271 C   0  0  0  0  0  0  0  0  0  0  0  0
    6.1209   -6.2064    4.4524 C   0  0  1  0  0  0  0  0  0  0  0  0
    4.6955   -6.3977    2.3615 C   0  0  1  0  0  0  0  0  0  0  0  0
    5.2716   -7.7809    1.8222 C   0  0  0  0  0  0  0  0  0  0  0  0
    4.0850   -5.7974    1.0100 C   0  0  2  0  0  0  0  0  0  0  0  0
    5.0146   -5.5511   -0.2548 C   0  0  0  0  0  0  0  0  0  0  0  0
    5.6140   -4.1386   -0.5228 C   0  0  1  0  0  0  0  0  0  0  0  0
    4.9819   -3.3566   -1.6726 C   0  0  1  0  0  0  0  0  0  0  0  0
    5.3492   -1.9240   -1.9836 C   0  0  0  0  0  0  0  0  0  0  0  0
    4.6076   -2.2659   -0.6915 C   0  0  2  0  0  0  0  0  0  0  0  0
    5.2570   -3.0372    0.4577 C   0  0  1  0  0  0  0  0  0  0  0  0
    6.4290   -2.1030    0.8743 C   0  0  0  0  0  0  0  0  0  0  0  0
    6.1655   -1.2604    1.7524 O   0  0  0  0  0  0  0  0  0  0  0  0
    7.5251   -2.1992    0.2807 O   0  0  0  0  0  0  0  0  0  0  0  0
    6.4974   -6.0428    7.4500 H   0  0  0  0  0  0  0  0  0  0  0  0
    6.9156   -4.3539    7.3609 H   0  0  0  0  0  0  0  0  0  0  0  0
    7.9286   -5.5392    6.5570 H   0  0  0  0  0  0  0  0  0  0  0  0
    6.5823   -4.2156    5.0536 H   0  0  0  0  0  0  0  0  0  0  0  0
    4.4328   -4.6063    6.8087 H   0  0  0  0  0  0  0  0  0  0  0  0
    4.4687   -3.6259    5.5207 H   0  0  0  0  0  0  0  0  0  0  0  0
    2.6946   -4.9275    4.9287 H   0  0  0  0  0  0  0  0  0  0  0  0
    5.9593   -8.3919    4.7401 H   0  0  0  0  0  0  0  0  0  0  0  0
    3.9939   -8.7175    3.5304 H   0  0  0  0  0  0  0  0  0  0  0  0
    3.1584   -8.2650    4.8239 H   0  0  0  0  0  0  0  0  0  0  0  0
    2.0422   -7.0745    2.2542 H   0  0  0  0  0  0  0  0  0  0  0  0
    1.4762   -6.4398    3.7722 H   0  0  0  0  0  0  0  0  0  0  0  0
    1.1784   -4.7545    2.0787 H   0  0  0  0  0  0  0  0  0  0  0  0
    2.2733   -4.1037    3.1904 H   0  0  0  0  0  0  0  0  0  0  0  0
    2.8137   -4.2586   -0.8795 H   0  0  0  0  0  0  0  0  0  0  0  0
    1.9527   -3.1900    0.2059 H   0  0  0  0  0  0  0  0  0  0  0  0
    1.5166   -4.8851   -0.0096 H   0  0  0  0  0  0  0  0  0  0  0  0
    3.8695   -2.6179    2.0494 H   0  0  0  0  0  0  0  0  0  0  0  0
    6.1245   -3.4223    3.0360 H   0  0  0  0  0  0  0  0  0  0  0  0
    4.5729   -3.8242    3.5827 H   0  0  0  0  0  0  0  0  0  0  0  0
    7.6212   -6.6770    2.2134 H   0  0  0  0  0  0  0  0  0  0  0  0
    7.9562   -5.0662    2.7431 H   0  0  0  0  0  0  0  0  0  0  0  0
    7.1985   -5.3093    1.2098 H   0  0  0  0  0  0  0  0  0  0  0  0
    7.1604   -6.5378    4.4664 H   0  0  0  0  0  0  0  0  0  0  0  0
    5.9822   -7.7102    1.0056 H   0  0  0  0  0  0  0  0  0  0  0  0
    4.4703   -8.4257    1.4519 H   0  0  0  0  0  0  0  0  0  0  0  0
    5.8508   -8.3473    2.5532 H   0  0  0  0  0  0  0  0  0  0  0  0
    3.3908   -6.5610    0.6430 H   0  0  0  0  0  0  0  0  0  0  0  0
    5.8547   -6.2282   -0.2764 H   0  0  0  0  0  0  0  0  0  0  0  0
    4.4556   -5.9074   -1.0978 H   0  0  0  0  0  0  0  0  0  0  0  0
    6.6835   -4.2190   -0.6863 H   0  0  0  0  0  0  0  0  0  0  0  0
    4.2089   -3.8358   -2.2830 H   0  0  0  0  0  0  0  0  0  0  0  0
    6.4100   -1.6837   -1.9729 H   0  0  0  0  0  0  0  0  0  0  0  0
    4.7863   -1.4251   -2.7620 H   0  0  0  0  0  0  0  0  0  0  0  0
    3.5685   -1.9425   -0.5934 H   0  0  0  0  0  0  0  0  0  0  0  0
  1  2  1  0
  1 33  1  0
  1 34  1  0
  1 35  1  0
  2 20  1  0
  2  3  1  0
  2 36  1  6
  3  4  1  0
  3 37  1  0
  3 38  1  0
  4 11  1  0
  4  5  1  0
  4 39  1  6
  5  6  1  0
  6  7  2  0
  6  8  1  0
  8  9  1  0
  9 20  1  0
  9 10  1  0
  9 40  1  1
 10 11  1  0
 10 41  1  0
 10 42  1  0
 11 21  1  0
 11 12  1  6
 12 13  1  0
 12 43  1  0
 12 44  1  0
 13 14  1  0
 13 45  1  0
 13 46  1  0
 14 23  1  0
 14 15  1  6
 14 16  1  0
 15 47  1  0
 15 48  1  0
 15 49  1  0
 16 29  1  0
 16 17  1  0
 16 50  1  1
 17 18  1  0
 17 51  1  0
 17 52  1  0
 18 19  1  6
 18 20  1  0
 18 21  1  0
 19 53  1  0
 19 54  1  0
 19 55  1  0
 20 56  1  6
 21 22  1  6
 21 23  1  0
 22 57  1  0
 22 58  1  0
 22 59  1  0
 23 24  1  0
 23 60  1  6
 24 25  1  0
 24 61  1  0
 24 62  1  0
 25 29  1  0
 25 26  1  0
 25 63  1  6
 26 28  1  0
 26 27  1  0
 26 64  1  6
 27 28  1  0
 27 65  1  0
 27 66  1  0
 28 29  1  0
 28 67  1  1
 29 30  1  1
 30 31  2  0
 30 32  1  0
M  CHG  1  32  -1
M  END
>  <i_m_ct_stereo_status>  (92) 
1

>  <s_m_source_file>  (92) 
/var/tmp/pbs.5076255.sched01/tmpfev35gxg/05fxellcm.sdf

>  <i_m_source_file_index>  (92) 
38

>  <i_lp_mmshare_version>  (92) 
48012

>  <i_f3d_flags>  (92) 
0

>  <s_epik_input>  (92) 
TzFDKD1PKU9bQ0BASF0oW0NIMl0yKVtDQEhdKFtDQEhdKFtDSDNdKVtDSDJdW0NASF0xW0NAQF0yMzQpW0NAQF01KFtDSDNdKVtDQF00KFtDSDNdKVtDQEhdNltDQEBdKFtDSDNdKShbQ0gyXVtDSDJdMylbQ0BASF0oW0NIMl01KVtDQEBdNyhDKD1PKVtPSF0pW0NAQEhdKFtDSDJdNilbQ0BIXThbQ0BASF03W0NIMl04

>  <s_epik_cmdline>  (92) 
J2VwaWtfcHl0aG9uJywgJy1waHQnLCAnMi4wJywgJy1waCcsICc3LjAnLCAnLXRuJywgJzgnLCAnLW1hJywgJzIwMCcsICctaW1hZScsICc8aW5maWxlLm1hZT4nLCAnLW9tYWUnLCAnPG91dGZpbGUubWFlPic=

>  <r_epik_Ionization_Penalty>  (92) 
0.00931708

>  <r_epik_Ionization_Penalty_Charging>  (92) 
0.00931708

>  <r_epik_Ionization_Penalty_Neutral>  (92) 
0

>  <r_epik_State_Penalty>  (92) 
0.00706907

>  <r_epik_Charging_Adjusted_Penalty>  (92) 
0.0163862

>  <i_epik_Tot_Q>  (92) 
-1

>  <i_epik_Tot_abs_Q>  (92) 
1

>  <s_epik_Chemistry_Notes>  (92) 
This compound has an ester and may undergo hydrolysis at high or low pH.

>  <s_lp_Force_Field>  (92) 
OPLS3e

>  <r_lp_Energy>  (92) 
221.243

>  <b_lp_Chiralities_Consistent>  (92) 
1

>  <s_lp_Variant>  (92) 
24:0-1

>  <s_i_glide_gridfile>  (92) 
pfpi4k_grid

>  <i_i_glide_lignum>  (92) 
38

>  <i_i_glide_rotatable_bonds>  (92) 
1

>  <r_i_docking_score>  (92) 
-1.80586

>  <r_i_glide_ligand_efficiency>  (92) 
-0.0564332

>  <r_i_glide_ligand_efficiency_sa>  (92) 
-0.179164

>  <r_i_glide_ligand_efficiency_ln>  (92) 
-0.404382

>  <r_i_glide_gscore>  (92) 
-1.80586

>  <r_i_glide_lipo>  (92) 
-0.367438

>  <r_i_glide_hbond>  (92) 
0

>  <r_i_glide_metal>  (92) 
-0

>  <r_i_glide_rewards>  (92) 
-0.524145

>  <r_i_glide_evdw>  (92) 
-18.7037

>  <r_i_glide_ecoul>  (92) 
0.139356

>  <r_i_glide_erotb>  (92) 
0

>  <r_i_glide_esite>  (92) 
0

>  <r_i_glide_emodel>  (92) 
-19.5208

>  <r_i_glide_energy>  (92) 
-18.5643

>  <r_i_glide_einternal>  (92) 
0.993872

>  <r_i_glide_intrahb_reward>  (92) 
-0

>  <i_i_glide_confnum>  (92) 
2

>  <i_i_glide_posenum>  (92) 
31

>  <r_i_glide_eff_state_penalty>  (92) 
0

>  <ligand_id>  (92) 
24

>  <original_smiles>  (92) 
CC1CC2OC(=O)OC3CC24CCC2(C)C5CC(C)(C13)C4(C)C2CC1C2CC2C15C(=O)O

>  <smiles>  (92) 
[H]C([H])([H])C1([H])C([H])([H])C2([H])OC(=O)OC3([H])C([H])([H])C24C([H])([H])C([H])([H])C2(C([H])([H])[H])C5([H])C([H])([H])C(C([H])([H])[H])(C31[H])C4(C([H])([H])[H])C2([H])C([H])([H])C1([H])C2([H])C([H])([H])C2([H])C15C(=O)[O-]

$$$$
24:0:2
     RDKit          3D

 67 74  0  0  1  0  0  0  0  0999 V2000
    1.8953   -6.0044    8.3658 C   0  0  0  0  0  0  0  0  0  0  0  0
    2.0687   -5.7963    6.8439 C   0  0  2  0  0  0  0  0  0  0  0  0
    0.7885   -6.0243    6.0386 C   0  0  0  0  0  0  0  0  0  0  0  0
    0.8964   -7.0809    4.8569 C   0  0  2  0  0  0  0  0  0  0  0  0
    0.2191   -8.2127    5.4523 O   0  0  0  0  0  0  0  0  0  0  0  0
    0.5867   -8.8175    6.6411 C   0  0  0  0  0  0  0  0  0  0  0  0
   -0.2122   -9.4368    7.3602 O   0  0  0  0  0  0  0  0  0  0  0  0
    1.9224   -8.6583    6.9541 O   0  0  0  0  0  0  0  0  0  0  0  0
    2.9503   -8.1746    6.0694 C   0  0  1  0  0  0  0  0  0  0  0  0
    2.6464   -8.7793    4.6604 C   0  0  0  0  0  0  0  0  0  0  0  0
    2.2211   -7.5305    3.9177 C   0  0  1  0  0  0  0  0  0  0  0  0
    1.6058   -7.6963    2.5370 C   0  0  0  0  0  0  0  0  0  0  0  0
    1.3340   -6.2722    1.9675 C   0  0  0  0  0  0  0  0  0  0  0  0
    2.5986   -5.3541    1.8060 C   0  0  1  0  0  0  0  0  0  0  0  0
    2.5738   -5.0491    0.2857 C   0  0  0  0  0  0  0  0  0  0  0  0
    2.6746   -4.0905    2.7576 C   0  0  1  0  0  0  0  0  0  0  0  0
    2.7697   -4.5492    4.2811 C   0  0  0  0  0  0  0  0  0  0  0  0
    3.6832   -5.7550    4.8250 C   0  0  1  0  0  0  0  0  0  0  0  0
    5.0845   -5.1675    5.1976 C   0  0  0  0  0  0  0  0  0  0  0  0
    3.2234   -6.5620    6.1698 C   0  0  1  0  0  0  0  0  0  0  0  0
    3.6666   -6.7492    3.6744 C   0  0  1  0  0  0  0  0  0  0  0  0
    4.9554   -7.6708    3.7481 C   0  0  0  0  0  0  0  0  0  0  0  0
    3.8588   -6.1078    2.2058 C   0  0  2  0  0  0  0  0  0  0  0  0
    5.1719   -5.2729    1.8313 C   0  0  0  0  0  0  0  0  0  0  0  0
    5.1370   -3.7255    1.9739 C   0  0  1  0  0  0  0  0  0  0  0  0
    5.0995   -2.9481    0.6629 C   0  0  1  0  0  0  0  0  0  0  0  0
    4.9254   -1.4444    0.6119 C   0  0  0  0  0  0  0  0  0  0  0  0
    3.7740   -2.3293    1.0845 C   0  0  2  0  0  0  0  0  0  0  0  0
    3.8252   -3.0869    2.4147 C   0  0  1  0  0  0  0  0  0  0  0  0
    3.9277   -1.9504    3.4568 C   0  0  0  0  0  0  0  0  0  0  0  0
    5.0299   -1.7102    3.9771 O   0  0  0  0  0  0  0  0  0  0  0  0
    2.8704   -1.3394    3.6969 O   0  0  0  0  0  0  0  0  0  0  0  0
    1.5409   -6.9942    8.6478 H   0  0  0  0  0  0  0  0  0  0  0  0
    1.1617   -5.2965    8.7542 H   0  0  0  0  0  0  0  0  0  0  0  0
    2.8308   -5.8261    8.8981 H   0  0  0  0  0  0  0  0  0  0  0  0
    2.3226   -4.7374    6.7949 H   0  0  0  0  0  0  0  0  0  0  0  0
   -0.0281   -6.2804    6.7154 H   0  0  0  0  0  0  0  0  0  0  0  0
    0.3771   -5.0742    5.7156 H   0  0  0  0  0  0  0  0  0  0  0  0
    0.1209   -6.7424    4.1781 H   0  0  0  0  0  0  0  0  0  0  0  0
    3.8557   -8.6727    6.4172 H   0  0  0  0  0  0  0  0  0  0  0  0
    3.4417   -9.3756    4.2376 H   0  0  0  0  0  0  0  0  0  0  0  0
    1.8975   -9.5676    4.6209 H   0  0  0  0  0  0  0  0  0  0  0  0
    2.2546   -8.2835    1.8838 H   0  0  0  0  0  0  0  0  0  0  0  0
    0.6726   -8.2600    2.6059 H   0  0  0  0  0  0  0  0  0  0  0  0
    0.8114   -6.4410    1.0243 H   0  0  0  0  0  0  0  0  0  0  0  0
    0.5923   -5.7355    2.5515 H   0  0  0  0  0  0  0  0  0  0  0  0
    3.5144   -4.7330   -0.1278 H   0  0  0  0  0  0  0  0  0  0  0  0
    1.8204   -4.3031    0.0379 H   0  0  0  0  0  0  0  0  0  0  0  0
    2.3443   -5.9332   -0.3062 H   0  0  0  0  0  0  0  0  0  0  0  0
    1.7304   -3.5414    2.6545 H   0  0  0  0  0  0  0  0  0  0  0  0
    2.9162   -3.7141    4.9498 H   0  0  0  0  0  0  0  0  0  0  0  0
    1.7304   -4.7506    4.3437 H   0  0  0  0  0  0  0  0  0  0  0  0
    5.7941   -5.9300    5.5271 H   0  0  0  0  0  0  0  0  0  0  0  0
    4.9988   -4.4795    6.0370 H   0  0  0  0  0  0  0  0  0  0  0  0
    5.5658   -4.6095    4.4039 H   0  0  0  0  0  0  0  0  0  0  0  0
    4.0394   -6.5037    6.8887 H   0  0  0  0  0  0  0  0  0  0  0  0
    5.9028   -7.1644    3.6043 H   0  0  0  0  0  0  0  0  0  0  0  0
    4.9233   -8.4495    2.9858 H   0  0  0  0  0  0  0  0  0  0  0  0
    5.1181   -8.1543    4.7142 H   0  0  0  0  0  0  0  0  0  0  0  0
    3.9342   -6.9658    1.5460 H   0  0  0  0  0  0  0  0  0  0  0  0
    6.0247   -5.5790    2.4154 H   0  0  0  0  0  0  0  0  0  0  0  0
    5.4768   -5.5610    0.8181 H   0  0  0  0  0  0  0  0  0  0  0  0
    5.9829   -3.3724    2.5583 H   0  0  0  0  0  0  0  0  0  0  0  0
    5.1317   -3.5082   -0.2665 H   0  0  0  0  0  0  0  0  0  0  0  0
    5.4914   -0.8323    1.3080 H   0  0  0  0  0  0  0  0  0  0  0  0
    4.8272   -0.9989   -0.3846 H   0  0  0  0  0  0  0  0  0  0  0  0
    2.9014   -2.4380    0.4526 H   0  0  0  0  0  0  0  0  0  0  0  0
  1  2  1  0
  1 33  1  0
  1 34  1  0
  1 35  1  0
  2 20  1  0
  2  3  1  0
  2 36  1  1
  3  4  1  0
  3 37  1  0
  3 38  1  0
  4 11  1  0
  4  5  1  0
  4 39  1  6
  5  6  1  0
  6  7  2  0
  6  8  1  0
  8  9  1  0
  9 20  1  0
  9 10  1  0
  9 40  1  1
 10 11  1  0
 10 41  1  0
 10 42  1  0
 11 21  1  0
 11 12  1  6
 12 13  1  0
 12 43  1  0
 12 44  1  0
 13 14  1  0
 13 45  1  0
 13 46  1  0
 14 23  1  0
 14 15  1  6
 14 16  1  0
 15 47  1  0
 15 48  1  0
 15 49  1  0
 16 29  1  0
 16 17  1  0
 16 50  1  1
 17 18  1  0
 17 51  1  0
 17 52  1  0
 18 19  1  1
 18 20  1  0
 18 21  1  0
 19 53  1  0
 19 54  1  0
 19 55  1  0
 20 56  1  1
 21 22  1  1
 21 23  1  0
 22 57  1  0
 22 58  1  0
 22 59  1  0
 23 24  1  0
 23 60  1  6
 24 25  1  0
 24 61  1  0
 24 62  1  0
 25 29  1  0
 25 26  1  0
 25 63  1  1
 26 28  1  0
 26 27  1  0
 26 64  1  6
 27 28  1  0
 27 65  1  0
 27 66  1  0
 28 29  1  0
 28 67  1  6
 29 30  1  1
 30 31  2  0
 30 32  1  0
M  CHG  1  32  -1
M  END
>  <i_m_ct_stereo_status>  (93) 
1

>  <s_m_source_file>  (93) 
/var/tmp/pbs.5076255.sched01/tmpfev35gxg/05fxellcm.sdf

>  <i_m_source_file_index>  (93) 
38

>  <i_lp_mmshare_version>  (93) 
48012

>  <i_f3d_flags>  (93) 
0

>  <s_epik_input>  (93) 
TzFDKD1PKU9bQ0BASF0oW0NIMl0yKVtDQEhdKFtDQEhdKFtDSDNdKVtDSDJdW0NASF0xW0NAQF0yMzQpW0NAQF01KFtDSDNdKVtDQF00KFtDSDNdKVtDQEhdNltDQEBdKFtDSDNdKShbQ0gyXVtDSDJdMylbQ0BASF0oW0NIMl01KVtDQEBdNyhDKD1PKVtPSF0pW0NAQEhdKFtDSDJdNilbQ0BIXThbQ0BASF03W0NIMl04

>  <s_epik_cmdline>  (93) 
J2VwaWtfcHl0aG9uJywgJy1waHQnLCAnMi4wJywgJy1waCcsICc3LjAnLCAnLXRuJywgJzgnLCAnLW1hJywgJzIwMCcsICctaW1hZScsICc8aW5maWxlLm1hZT4nLCAnLW9tYWUnLCAnPG91dGZpbGUubWFlPic=

>  <r_epik_Ionization_Penalty>  (93) 
0.00931708

>  <r_epik_Ionization_Penalty_Charging>  (93) 
0.00931708

>  <r_epik_Ionization_Penalty_Neutral>  (93) 
0

>  <r_epik_State_Penalty>  (93) 
0.00706907

>  <r_epik_Charging_Adjusted_Penalty>  (93) 
0.0163862

>  <i_epik_Tot_Q>  (93) 
-1

>  <i_epik_Tot_abs_Q>  (93) 
1

>  <s_epik_Chemistry_Notes>  (93) 
This compound has an ester and may undergo hydrolysis at high or low pH.

>  <s_lp_Force_Field>  (93) 
OPLS3e

>  <r_lp_Energy>  (93) 
221.243

>  <b_lp_Chiralities_Consistent>  (93) 
1

>  <s_lp_Variant>  (93) 
24:0-1

>  <s_i_glide_gridfile>  (93) 
pfpi4k_grid

>  <i_i_glide_lignum>  (93) 
38

>  <i_i_glide_rotatable_bonds>  (93) 
1

>  <r_i_docking_score>  (93) 
-1.60036

>  <r_i_glide_ligand_efficiency>  (93) 
-0.0500114

>  <r_i_glide_ligand_efficiency_sa>  (93) 
-0.158776

>  <r_i_glide_ligand_efficiency_ln>  (93) 
-0.358365

>  <r_i_glide_gscore>  (93) 
-1.60036

>  <r_i_glide_lipo>  (93) 
-0.150904

>  <r_i_glide_hbond>  (93) 
0

>  <r_i_glide_metal>  (93) 
-0

>  <r_i_glide_rewards>  (93) 
-0.412404

>  <r_i_glide_evdw>  (93) 
-23.3713

>  <r_i_glide_ecoul>  (93) 
1.19833

>  <r_i_glide_erotb>  (93) 
0

>  <r_i_glide_esite>  (93) 
-0.0482424

>  <r_i_glide_emodel>  (93) 
-23.4443

>  <r_i_glide_energy>  (93) 
-22.1729

>  <r_i_glide_einternal>  (93) 
0.0921347

>  <r_i_glide_intrahb_reward>  (93) 
-0

>  <i_i_glide_confnum>  (93) 
1

>  <i_i_glide_posenum>  (93) 
30

>  <r_i_glide_eff_state_penalty>  (93) 
0

>  <ligand_id>  (93) 
24

>  <original_smiles>  (93) 
CC1CC2OC(=O)OC3CC24CCC2(C)C5CC(C)(C13)C4(C)C2CC1C2CC2C15C(=O)O

>  <smiles>  (93) 
[H]C([H])([H])C1([H])C([H])([H])C2([H])OC(=O)OC3([H])C([H])([H])C24C([H])([H])C([H])([H])C2(C([H])([H])[H])C5([H])C([H])([H])C(C([H])([H])[H])(C31[H])C4(C([H])([H])[H])C2([H])C([H])([H])C1([H])C2([H])C([H])([H])C2([H])C15C(=O)[O-]

$$$$
24:1:0
     RDKit          3D

 68 75  0  0  1  0  0  0  0  0999 V2000
    6.8292   -5.3020    6.8147 C   0  0  0  0  0  0  0  0  0  0  0  0
    6.0218   -5.0951    5.5156 C   0  0  2  0  0  0  0  0  0  0  0  0
    4.5565   -4.7292    5.7505 C   0  0  0  0  0  0  0  0  0  0  0  0
    3.4890   -5.6656    5.0414 C   0  0  2  0  0  0  0  0  0  0  0  0
    3.0261   -6.4445    6.1492 O   0  0  0  0  0  0  0  0  0  0  0  0
    3.8333   -7.2334    6.9825 C   0  0  0  0  0  0  0  0  0  0  0  0
    3.5379   -7.5223    8.1018 O   0  0  0  0  0  0  0  0  0  0  0  0
    5.0134   -7.6418    6.3348 O   0  0  0  0  0  0  0  0  0  0  0  0
    5.2882   -7.5706    4.9356 C   0  0  1  0  0  0  0  0  0  0  0  0
    3.9519   -7.9097    4.1905 C   0  0  0  0  0  0  0  0  0  0  0  0
    3.6100   -6.5504    3.6175 C   0  0  1  0  0  0  0  0  0  0  0  0
    2.2352   -6.3684    2.9950 C   0  0  0  0  0  0  0  0  0  0  0  0
    2.1757   -4.9261    2.4208 C   0  0  0  0  0  0  0  0  0  0  0  0
    3.2312   -4.5879    1.3068 C   0  0  1  0  0  0  0  0  0  0  0  0
    2.3430   -4.2148    0.0962 C   0  0  0  0  0  0  0  0  0  0  0  0
    4.3422   -3.5230    1.6870 C   0  0  1  0  0  0  0  0  0  0  0  0
    5.2432   -4.0844    2.8634 C   0  0  0  0  0  0  0  0  0  0  0  0
    5.8052   -5.5919    2.9865 C   0  0  1  0  0  0  0  0  0  0  0  0
    7.1852   -5.6753    2.2567 C   0  0  0  0  0  0  0  0  0  0  0  0
    6.0880   -6.2207    4.4680 C   0  0  1  0  0  0  0  0  0  0  0  0
    4.6893   -6.4161    2.3630 C   0  0  1  0  0  0  0  0  0  0  0  0
    5.2767   -7.7871    1.8211 C   0  0  0  0  0  0  0  0  0  0  0  0
    4.0830   -5.8099    1.0062 C   0  0  2  0  0  0  0  0  0  0  0  0
    5.0050   -5.5470   -0.2534 C   0  0  0  0  0  0  0  0  0  0  0  0
    5.5949   -4.1370   -0.4873 C   0  0  1  0  0  0  0  0  0  0  0  0
    4.9945   -3.3448   -1.6299 C   0  0  1  0  0  0  0  0  0  0  0  0
    5.3464   -1.9107   -1.9412 C   0  0  0  0  0  0  0  0  0  0  0  0
    4.5986   -2.2675   -0.6604 C   0  0  2  0  0  0  0  0  0  0  0  0
    5.2260   -3.0327    0.4973 C   0  0  1  0  0  0  0  0  0  0  0  0
    6.3998   -2.1029    0.9027 C   0  0  0  0  0  0  0  0  0  0  0  0
    7.5304   -2.1968    0.4649 O   0  0  0  0  0  0  0  0  0  0  0  0
    5.9793   -1.1231    1.7642 O   0  0  0  0  0  0  0  0  0  0  0  0
    6.4342   -6.0730    7.4717 H   0  0  0  0  0  0  0  0  0  0  0  0
    6.8371   -4.3809    7.3963 H   0  0  0  0  0  0  0  0  0  0  0  0
    7.8664   -5.5512    6.5952 H   0  0  0  0  0  0  0  0  0  0  0  0
    6.5193   -4.2294    5.0859 H   0  0  0  0  0  0  0  0  0  0  0  0
    4.3599   -4.6681    6.8213 H   0  0  0  0  0  0  0  0  0  0  0  0
    4.3926   -3.6742    5.5478 H   0  0  0  0  0  0  0  0  0  0  0  0
    2.6499   -5.0004    4.9274 H   0  0  0  0  0  0  0  0  0  0  0  0
    5.9467   -8.4075    4.7368 H   0  0  0  0  0  0  0  0  0  0  0  0
    4.0038   -8.7524    3.5106 H   0  0  0  0  0  0  0  0  0  0  0  0
    3.1522   -8.3214    4.8028 H   0  0  0  0  0  0  0  0  0  0  0  0
    2.0426   -7.1278    2.2348 H   0  0  0  0  0  0  0  0  0  0  0  0
    1.4640   -6.5073    3.7511 H   0  0  0  0  0  0  0  0  0  0  0  0
    1.1529   -4.8158    2.0728 H   0  0  0  0  0  0  0  0  0  0  0  0
    2.2285   -4.1621    3.1913 H   0  0  0  0  0  0  0  0  0  0  0  0
    2.8116   -4.2519   -0.8699 H   0  0  0  0  0  0  0  0  0  0  0  0
    1.9311   -3.2141    0.2241 H   0  0  0  0  0  0  0  0  0  0  0  0
    1.5147   -4.9122   -0.0212 H   0  0  0  0  0  0  0  0  0  0  0  0
    3.8248   -2.6388    2.0739 H   0  0  0  0  0  0  0  0  0  0  0  0
    6.0805   -3.4297    3.0466 H   0  0  0  0  0  0  0  0  0  0  0  0
    4.5383   -3.8308    3.6146 H   0  0  0  0  0  0  0  0  0  0  0  0
    7.6096   -6.6809    2.2453 H   0  0  0  0  0  0  0  0  0  0  0  0
    7.9329   -5.0724    2.7786 H   0  0  0  0  0  0  0  0  0  0  0  0
    7.1875   -5.3164    1.2353 H   0  0  0  0  0  0  0  0  0  0  0  0
    7.1299   -6.5360    4.4897 H   0  0  0  0  0  0  0  0  0  0  0  0
    5.9891   -7.7044    1.0096 H   0  0  0  0  0  0  0  0  0  0  0  0
    4.4826   -8.4323    1.4373 H   0  0  0  0  0  0  0  0  0  0  0  0
    5.8541   -8.3527    2.5497 H   0  0  0  0  0  0  0  0  0  0  0  0
    3.3998   -6.5772    0.6471 H   0  0  0  0  0  0  0  0  0  0  0  0
    5.8403   -6.2136   -0.2655 H   0  0  0  0  0  0  0  0  0  0  0  0
    4.4392   -5.8871   -1.1154 H   0  0  0  0  0  0  0  0  0  0  0  0
    6.6709   -4.1947   -0.6388 H   0  0  0  0  0  0  0  0  0  0  0  0
    4.2278   -3.8251   -2.2388 H   0  0  0  0  0  0  0  0  0  0  0  0
    6.4127   -1.6610   -1.9090 H   0  0  0  0  0  0  0  0  0  0  0  0
    4.7908   -1.4159   -2.7322 H   0  0  0  0  0  0  0  0  0  0  0  0
    3.5536   -1.9753   -0.5802 H   0  0  0  0  0  0  0  0  0  0  0  0
    6.7033   -0.5675    2.0053 H   0  0  0  0  0  0  0  0  0  0  0  0
  1  2  1  0
  1 33  1  0
  1 34  1  0
  1 35  1  0
  2 20  1  0
  2  3  1  0
  2 36  1  6
  3  4  1  0
  3 37  1  0
  3 38  1  0
  4 11  1  0
  4  5  1  0
  4 39  1  6
  5  6  1  0
  6  7  2  0
  6  8  1  0
  8  9  1  0
  9 20  1  0
  9 10  1  0
  9 40  1  6
 10 11  1  0
 10 41  1  0
 10 42  1  0
 11 21  1  0
 11 12  1  6
 12 13  1  0
 12 43  1  0
 12 44  1  0
 13 14  1  0
 13 45  1  0
 13 46  1  0
 14 23  1  0
 14 15  1  6
 14 16  1  0
 15 47  1  0
 15 48  1  0
 15 49  1  0
 16 29  1  0
 16 17  1  0
 16 50  1  1
 17 18  1  0
 17 51  1  0
 17 52  1  0
 18 19  1  6
 18 20  1  0
 18 21  1  0
 19 53  1  0
 19 54  1  0
 19 55  1  0
 20 56  1  6
 21 22  1  6
 21 23  1  0
 22 57  1  0
 22 58  1  0
 22 59  1  0
 23 24  1  0
 23 60  1  6
 24 25  1  0
 24 61  1  0
 24 62  1  0
 25 29  1  0
 25 26  1  0
 25 63  1  6
 26 28  1  0
 26 27  1  0
 26 64  1  6
 27 28  1  0
 27 65  1  0
 27 66  1  0
 28 29  1  0
 28 67  1  1
 29 30  1  1
 30 31  2  0
 30 32  1  0
 32 68  1  0
M  END
>  <i_m_ct_stereo_status>  (94) 
1

>  <s_m_source_file>  (94) 
/var/tmp/pbs.5076255.sched01/tmpfev35gxg/05fxellcm.sdf

>  <i_m_source_file_index>  (94) 
39

>  <i_lp_mmshare_version>  (94) 
48012

>  <i_f3d_flags>  (94) 
0

>  <s_epik_input>  (94) 
TzFDKD1PKU9bQ0BASF0oW0NIMl0yKVtDQEhdKFtDQEhdKFtDSDNdKVtDSDJdW0NASF0xW0NAQF0yMzQpW0NAQF01KFtDSDNdKVtDQF00KFtDSDNdKVtDQEhdNltDQEBdKFtDSDNdKShbQ0gyXVtDSDJdMylbQ0BASF0oW0NIMl01KVtDQEBdNyhDKD1PKVtPSF0pW0NAQEhdKFtDSDJdNilbQ0BIXThbQ0BASF03W0NIMl04

>  <s_epik_cmdline>  (94) 
J2VwaWtfcHl0aG9uJywgJy1waHQnLCAnMi4wJywgJy1waCcsICc3LjAnLCAnLXRuJywgJzgnLCAnLW1hJywgJzIwMCcsICctaW1hZScsICc8aW5maWxlLm1hZT4nLCAnLW9tYWUnLCAnPG91dGZpbGUubWFlPic=

>  <r_epik_Ionization_Penalty>  (94) 
2.46494

>  <r_epik_Ionization_Penalty_Charging>  (94) 
0

>  <r_epik_Ionization_Penalty_Neutral>  (94) 
2.46494

>  <r_epik_State_Penalty>  (94) 
2.62741

>  <r_epik_Charging_Adjusted_Penalty>  (94) 
2.62741

>  <i_epik_Tot_Q>  (94) 
0

>  <i_epik_Tot_abs_Q>  (94) 
0

>  <s_epik_Chemistry_Notes>  (94) 
This compound has an ester and may undergo hydrolysis at high or low pH.

>  <s_lp_Force_Field>  (94) 
OPLS3e

>  <r_lp_Energy>  (94) 
222.701

>  <b_lp_Chiralities_Consistent>  (94) 
1

>  <s_lp_Variant>  (94) 
24:0-2

>  <s_i_glide_gridfile>  (94) 
pfpi4k_grid

>  <i_i_glide_lignum>  (94) 
39

>  <i_i_glide_rotatable_bonds>  (94) 
2

>  <r_i_docking_score>  (94) 
-2.13766

>  <r_i_glide_ligand_efficiency>  (94) 
-0.0668017

>  <r_i_glide_ligand_efficiency_sa>  (94) 
-0.212082

>  <r_i_glide_ligand_efficiency_ln>  (94) 
-0.478679

>  <r_i_glide_gscore>  (94) 
-2.13766

>  <r_i_glide_lipo>  (94) 
-0.361717

>  <r_i_glide_hbond>  (94) 
0

>  <r_i_glide_metal>  (94) 
-0

>  <r_i_glide_rewards>  (94) 
-0.522125

>  <r_i_glide_evdw>  (94) 
-21.0703

>  <r_i_glide_ecoul>  (94) 
-2.02115

>  <r_i_glide_erotb>  (94) 
0.102872

>  <r_i_glide_esite>  (94) 
0

>  <r_i_glide_emodel>  (94) 
-24.5707

>  <r_i_glide_energy>  (94) 
-23.0914

>  <r_i_glide_einternal>  (94) 
0.297118

>  <r_i_glide_intrahb_reward>  (94) 
-0

>  <i_i_glide_confnum>  (94) 
3

>  <i_i_glide_posenum>  (94) 
32

>  <r_i_glide_eff_state_penalty>  (94) 
0

>  <ligand_id>  (94) 
24

>  <original_smiles>  (94) 
CC1CC2OC(=O)OC3CC24CCC2(C)C5CC(C)(C13)C4(C)C2CC1C2CC2C15C(=O)O

>  <smiles>  (94) 
[H]OC(=O)C12C3([H])C([H])([H])C3([H])C1([H])C([H])([H])C1([H])C3(C([H])([H])[H])C([H])([H])C([H])([H])C45C([H])([H])C6([H])OC(=O)OC4([H])C([H])([H])C([H])(C([H])([H])[H])C6([H])C(C([H])([H])[H])(C([H])([H])C23[H])C15C([H])([H])[H]

$$$$
24:1:1
     RDKit          3D

 68 75  0  0  1  0  0  0  0  0999 V2000
    6.2993   -4.3648    5.9363 C   0  0  0  0  0  0  0  0  0  0  0  0
    5.5537   -4.2558    4.5850 C   0  0  2  0  0  0  0  0  0  0  0  0
    4.0345   -4.3454    4.7063 C   0  0  0  0  0  0  0  0  0  0  0  0
    3.3446   -5.4625    3.8219 C   0  0  2  0  0  0  0  0  0  0  0  0
    3.0649   -6.4644    4.8144 O   0  0  0  0  0  0  0  0  0  0  0  0
    4.0174   -7.0681    5.6249 C   0  0  0  0  0  0  0  0  0  0  0  0
    3.7451   -7.5630    6.7141 O   0  0  0  0  0  0  0  0  0  0  0  0
    5.2975   -7.0631    5.0807 O   0  0  0  0  0  0  0  0  0  0  0  0
    5.6353   -6.7592    3.7235 C   0  0  1  0  0  0  0  0  0  0  0  0
    4.5133   -7.3864    2.8389 C   0  0  0  0  0  0  0  0  0  0  0  0
    3.8287   -6.1225    2.3592 C   0  0  1  0  0  0  0  0  0  0  0  0
    2.5378   -6.2889    1.6138 C   0  0  0  0  0  0  0  0  0  0  0  0
    2.1432   -4.8723    1.1569 C   0  0  0  0  0  0  0  0  0  0  0  0
    3.0661   -4.0906    0.1742 C   0  0  1  0  0  0  0  0  0  0  0  0
    2.1566   -3.8489   -1.0634 C   0  0  0  0  0  0  0  0  0  0  0  0
    3.7900   -2.8037    0.7459 C   0  0  1  0  0  0  0  0  0  0  0  0
    4.7310   -3.2051    1.9675 C   0  0  0  0  0  0  0  0  0  0  0  0
    5.6694   -4.5080    2.0106 C   0  0  1  0  0  0  0  0  0  0  0  0
    7.0357   -4.1600    1.3602 C   0  0  0  0  0  0  0  0  0  0  0  0
    6.0204   -5.1950    3.4544 C   0  0  1  0  0  0  0  0  0  0  0  0
    4.8767   -5.5226    1.2304 C   0  0  1  0  0  0  0  0  0  0  0  0
    5.8663   -6.5823    0.6770 C   0  0  0  0  0  0  0  0  0  0  0  0
    4.2413   -4.9668   -0.1415 C   0  0  2  0  0  0  0  0  0  0  0  0
    5.1244   -4.3214   -1.2971 C   0  0  0  0  0  0  0  0  0  0  0  0
    5.2980   -2.8036   -1.3712 C   0  0  1  0  0  0  0  0  0  0  0  0
    4.5547   -2.1051   -2.4879 C   0  0  1  0  0  0  0  0  0  0  0  0
    4.5116   -0.6040   -2.6099 C   0  0  0  0  0  0  0  0  0  0  0  0
    3.8228   -1.2992   -1.4516 C   0  0  2  0  0  0  0  0  0  0  0  0
    4.5756   -1.9796   -0.3145 C   0  0  1  0  0  0  0  0  0  0  0  0
    5.3658   -0.8315    0.3659 C   0  0  0  0  0  0  0  0  0  0  0  0
    4.8164    0.0921    0.9211 O   0  0  0  0  0  0  0  0  0  0  0  0
    6.7253   -1.0015    0.3051 O   0  0  0  0  0  0  0  0  0  0  0  0
    6.1118   -5.2841    6.4839 H   0  0  0  0  0  0  0  0  0  0  0  0
    6.0039   -3.5468    6.5912 H   0  0  0  0  0  0  0  0  0  0  0  0
    7.3760   -4.2826    5.7929 H   0  0  0  0  0  0  0  0  0  0  0  0
    5.8089   -3.2396    4.2822 H   0  0  0  0  0  0  0  0  0  0  0  0
    3.7616   -4.4573    5.7553 H   0  0  0  0  0  0  0  0  0  0  0  0
    3.5871   -3.3630    4.5685 H   0  0  0  0  0  0  0  0  0  0  0  0
    2.3556   -5.0537    3.6796 H   0  0  0  0  0  0  0  0  0  0  0  0
    6.5292   -7.3425    3.5224 H   0  0  0  0  0  0  0  0  0  0  0  0
    4.8515   -8.1036    2.0980 H   0  0  0  0  0  0  0  0  0  0  0  0
    3.8263   -8.0734    3.3278 H   0  0  0  0  0  0  0  0  0  0  0  0
    2.6291   -6.9806    0.7739 H   0  0  0  0  0  0  0  0  0  0  0  0
    1.7696   -6.7101    2.2631 H   0  0  0  0  0  0  0  0  0  0  0  0
    1.2125   -5.1160    0.6713 H   0  0  0  0  0  0  0  0  0  0  0  0
    1.8585   -4.2120    1.9774 H   0  0  0  0  0  0  0  0  0  0  0  0
    2.6700   -3.6577   -1.9846 H   0  0  0  0  0  0  0  0  0  0  0  0
    1.4391   -3.0542   -0.8895 H   0  0  0  0  0  0  0  0  0  0  0  0
    1.5563   -4.7267   -1.3154 H   0  0  0  0  0  0  0  0  0  0  0  0
    3.0109   -2.1440    1.1516 H   0  0  0  0  0  0  0  0  0  0  0  0
    5.3303   -2.3744    2.3285 H   0  0  0  0  0  0  0  0  0  0  0  0
    3.9318   -3.2522    2.6560 H   0  0  0  0  0  0  0  0  0  0  0  0
    7.7638   -4.9729    1.3356 H   0  0  0  0  0  0  0  0  0  0  0  0
    7.4761   -3.4286    2.0146 H   0  0  0  0  0  0  0  0  0  0  0  0
    7.0258   -3.6842    0.3912 H   0  0  0  0  0  0  0  0  0  0  0  0
    7.1050   -5.2165    3.5374 H   0  0  0  0  0  0  0  0  0  0  0  0
    6.5645   -6.1940   -0.0484 H   0  0  0  0  0  0  0  0  0  0  0  0
    5.3053   -7.3637    0.1632 H   0  0  0  0  0  0  0  0  0  0  0  0
    6.5495   -7.0437    1.3911 H   0  0  0  0  0  0  0  0  0  0  0  0
    3.8511   -5.8550   -0.6241 H   0  0  0  0  0  0  0  0  0  0  0  0
    6.1137   -4.6766   -1.1691 H   0  0  0  0  0  0  0  0  0  0  0  0
    4.7896   -4.6968   -2.2678 H   0  0  0  0  0  0  0  0  0  0  0  0
    6.3490   -2.5498   -1.4839 H   0  0  0  0  0  0  0  0  0  0  0  0
    4.0032   -2.7050   -3.2183 H   0  0  0  0  0  0  0  0  0  0  0  0
    5.4218   -0.0434   -2.3706 H   0  0  0  0  0  0  0  0  0  0  0  0
    3.8974   -0.1780   -3.3953 H   0  0  0  0  0  0  0  0  0  0  0  0
    2.7274   -1.2983   -1.4610 H   0  0  0  0  0  0  0  0  0  0  0  0
    7.1492   -0.2746    0.7392 H   0  0  0  0  0  0  0  0  0  0  0  0
  1  2  1  0
  1 33  1  0
  1 34  1  0
  1 35  1  0
  2 20  1  0
  2  3  1  0
  2 36  1  6
  3  4  1  0
  3 37  1  0
  3 38  1  0
  4 11  1  0
  4  5  1  0
  4 39  1  6
  5  6  1  0
  6  7  2  0
  6  8  1  0
  8  9  1  0
  9 20  1  0
  9 10  1  0
  9 40  1  6
 10 11  1  0
 10 41  1  0
 10 42  1  0
 11 21  1  0
 11 12  1  6
 12 13  1  0
 12 43  1  0
 12 44  1  0
 13 14  1  0
 13 45  1  0
 13 46  1  0
 14 23  1  0
 14 15  1  6
 14 16  1  0
 15 47  1  0
 15 48  1  0
 15 49  1  0
 16 29  1  0
 16 17  1  0
 16 50  1  1
 17 18  1  0
 17 51  1  0
 17 52  1  0
 18 19  1  6
 18 20  1  0
 18 21  1  0
 19 53  1  0
 19 54  1  0
 19 55  1  0
 20 56  1  6
 21 22  1  6
 21 23  1  0
 22 57  1  0
 22 58  1  0
 22 59  1  0
 23 24  1  0
 23 60  1  6
 24 25  1  0
 24 61  1  0
 24 62  1  0
 25 29  1  0
 25 26  1  0
 25 63  1  6
 26 28  1  0
 26 27  1  0
 26 64  1  6
 27 28  1  0
 27 65  1  0
 27 66  1  0
 28 29  1  0
 28 67  1  1
 29 30  1  1
 30 31  2  0
 30 32  1  0
 32 68  1  0
M  END
>  <i_m_ct_stereo_status>  (95) 
1

>  <s_m_source_file>  (95) 
/var/tmp/pbs.5076255.sched01/tmpfev35gxg/05fxellcm.sdf

>  <i_m_source_file_index>  (95) 
39

>  <i_lp_mmshare_version>  (95) 
48012

>  <i_f3d_flags>  (95) 
0

>  <s_epik_input>  (95) 
TzFDKD1PKU9bQ0BASF0oW0NIMl0yKVtDQEhdKFtDQEhdKFtDSDNdKVtDSDJdW0NASF0xW0NAQF0yMzQpW0NAQF01KFtDSDNdKVtDQF00KFtDSDNdKVtDQEhdNltDQEBdKFtDSDNdKShbQ0gyXVtDSDJdMylbQ0BASF0oW0NIMl01KVtDQEBdNyhDKD1PKVtPSF0pW0NAQEhdKFtDSDJdNilbQ0BIXThbQ0BASF03W0NIMl04

>  <s_epik_cmdline>  (95) 
J2VwaWtfcHl0aG9uJywgJy1waHQnLCAnMi4wJywgJy1waCcsICc3LjAnLCAnLXRuJywgJzgnLCAnLW1hJywgJzIwMCcsICctaW1hZScsICc8aW5maWxlLm1hZT4nLCAnLW9tYWUnLCAnPG91dGZpbGUubWFlPic=

>  <r_epik_Ionization_Penalty>  (95) 
2.46494

>  <r_epik_Ionization_Penalty_Charging>  (95) 
0

>  <r_epik_Ionization_Penalty_Neutral>  (95) 
2.46494

>  <r_epik_State_Penalty>  (95) 
2.62741

>  <r_epik_Charging_Adjusted_Penalty>  (95) 
2.62741

>  <i_epik_Tot_Q>  (95) 
0

>  <i_epik_Tot_abs_Q>  (95) 
0

>  <s_epik_Chemistry_Notes>  (95) 
This compound has an ester and may undergo hydrolysis at high or low pH.

>  <s_lp_Force_Field>  (95) 
OPLS3e

>  <r_lp_Energy>  (95) 
222.701

>  <b_lp_Chiralities_Consistent>  (95) 
1

>  <s_lp_Variant>  (95) 
24:0-2

>  <s_i_glide_gridfile>  (95) 
pfpi4k_grid

>  <i_i_glide_lignum>  (95) 
39

>  <i_i_glide_rotatable_bonds>  (95) 
2

>  <r_i_docking_score>  (95) 
-1.92731

>  <r_i_glide_ligand_efficiency>  (95) 
-0.0602283

>  <r_i_glide_ligand_efficiency_sa>  (95) 
-0.191213

>  <r_i_glide_ligand_efficiency_ln>  (95) 
-0.431576

>  <r_i_glide_gscore>  (95) 
-1.92731

>  <r_i_glide_lipo>  (95) 
-0.360538

>  <r_i_glide_hbond>  (95) 
-0.0712334

>  <r_i_glide_metal>  (95) 
-0

>  <r_i_glide_rewards>  (95) 
-0.573009

>  <r_i_glide_evdw>  (95) 
-11.9944

>  <r_i_glide_ecoul>  (95) 
-2.83785

>  <r_i_glide_erotb>  (95) 
0.102872

>  <r_i_glide_esite>  (95) 
0

>  <r_i_glide_emodel>  (95) 
-14.4007

>  <r_i_glide_energy>  (95) 
-14.8323

>  <r_i_glide_einternal>  (95) 
3.32997

>  <r_i_glide_intrahb_reward>  (95) 
-0

>  <i_i_glide_confnum>  (95) 
4

>  <i_i_glide_posenum>  (95) 
21

>  <r_i_glide_eff_state_penalty>  (95) 
0

>  <ligand_id>  (95) 
24

>  <original_smiles>  (95) 
CC1CC2OC(=O)OC3CC24CCC2(C)C5CC(C)(C13)C4(C)C2CC1C2CC2C15C(=O)O

>  <smiles>  (95) 
[H]OC(=O)C12C3([H])C([H])([H])C3([H])C1([H])C([H])([H])C1([H])C3(C([H])([H])[H])C([H])([H])C([H])([H])C45C([H])([H])C6([H])OC(=O)OC4([H])C([H])([H])C([H])(C([H])([H])[H])C6([H])C(C([H])([H])[H])(C([H])([H])C23[H])C15C([H])([H])[H]

$$$$
24:1:2
     RDKit          3D

 68 75  0  0  1  0  0  0  0  0999 V2000
    6.2111   -4.0291    6.0238 C   0  0  0  0  0  0  0  0  0  0  0  0
    5.4445   -4.0579    4.6780 C   0  0  2  0  0  0  0  0  0  0  0  0
    3.9296   -4.1774    4.8262 C   0  0  0  0  0  0  0  0  0  0  0  0
    3.2678   -5.3854    4.0454 C   0  0  2  0  0  0  0  0  0  0  0  0
    3.0305   -6.3063    5.1297 O   0  0  0  0  0  0  0  0  0  0  0  0
    4.0005   -6.8101    5.9803 C   0  0  0  0  0  0  0  0  0  0  0  0
    3.7537   -7.2180    7.1187 O   0  0  0  0  0  0  0  0  0  0  0  0
    5.2669   -6.8228    5.4176 O   0  0  0  0  0  0  0  0  0  0  0  0
    5.5914   -6.6259    4.0310 C   0  0  1  0  0  0  0  0  0  0  0  0
    4.4804   -7.3621    3.2210 C   0  0  0  0  0  0  0  0  0  0  0  0
    3.7583   -6.1653    2.6418 C   0  0  1  0  0  0  0  0  0  0  0  0
    2.4537   -6.4288    1.9380 C   0  0  0  0  0  0  0  0  0  0  0  0
    1.9765   -5.0767    1.3666 C   0  0  0  0  0  0  0  0  0  0  0  0
    2.8948   -4.3395    0.3248 C   0  0  1  0  0  0  0  0  0  0  0  0
    1.9714   -4.1728   -0.9136 C   0  0  0  0  0  0  0  0  0  0  0  0
    3.5968   -2.9907    0.7605 C   0  0  1  0  0  0  0  0  0  0  0  0
    4.5689   -3.2634    1.9896 C   0  0  0  0  0  0  0  0  0  0  0  0
    5.5464   -4.5320    2.1367 C   0  0  1  0  0  0  0  0  0  0  0  0
    6.9099   -4.1666    1.4681 C   0  0  0  0  0  0  0  0  0  0  0  0
    5.9310   -5.0764    3.6275 C   0  0  1  0  0  0  0  0  0  0  0  0
    4.7858   -5.6542    1.4527 C   0  0  1  0  0  0  0  0  0  0  0  0
    5.8128   -6.7379    0.9436 C   0  0  0  0  0  0  0  0  0  0  0  0
    4.0996   -5.2204    0.0694 C   0  0  2  0  0  0  0  0  0  0  0  0
    4.9732   -4.6312   -1.1326 C   0  0  0  0  0  0  0  0  0  0  0  0
    5.1202   -3.1246   -1.3376 C   0  0  1  0  0  0  0  0  0  0  0  0
    4.3795   -2.5559   -2.5323 C   0  0  1  0  0  0  0  0  0  0  0  0
    4.2683   -1.0845   -2.8156 C   0  0  0  0  0  0  0  0  0  0  0  0
    3.5906   -1.6941   -1.6110 C   0  0  2  0  0  0  0  0  0  0  0  0
    4.3427   -2.2232   -0.3877 C   0  0  1  0  0  0  0  0  0  0  0  0
    5.1166   -1.0172    0.1412 C   0  0  0  0  0  0  0  0  0  0  0  0
    6.3429   -0.8994    0.1083 O   0  0  0  0  0  0  0  0  0  0  0  0
    4.2627   -0.0784    0.6419 O   0  0  0  0  0  0  0  0  0  0  0  0
    6.0515   -4.9019    6.6531 H   0  0  0  0  0  0  0  0  0  0  0  0
    5.8966   -3.1652    6.6100 H   0  0  0  0  0  0  0  0  0  0  0  0
    7.2859   -3.9341    5.8666 H   0  0  0  0  0  0  0  0  0  0  0  0
    5.6698   -3.0689    4.2818 H   0  0  0  0  0  0  0  0  0  0  0  0
    3.6731   -4.2060    5.8856 H   0  0  0  0  0  0  0  0  0  0  0  0
    3.4518   -3.2253    4.6093 H   0  0  0  0  0  0  0  0  0  0  0  0
    2.2583   -5.0215    3.8845 H   0  0  0  0  0  0  0  0  0  0  0  0
    6.5032   -7.2015    3.8779 H   0  0  0  0  0  0  0  0  0  0  0  0
    4.8355   -8.1237    2.5384 H   0  0  0  0  0  0  0  0  0  0  0  0
    3.8174   -8.0205    3.7790 H   0  0  0  0  0  0  0  0  0  0  0  0
    2.5540   -7.1850    1.1578 H   0  0  0  0  0  0  0  0  0  0  0  0
    1.7111   -6.8223    2.6346 H   0  0  0  0  0  0  0  0  0  0  0  0
    1.0518   -5.4238    0.9149 H   0  0  0  0  0  0  0  0  0  0  0  0
    1.6760   -4.3570    2.1301 H   0  0  0  0  0  0  0  0  0  0  0  0
    2.4851   -4.0755   -1.8502 H   0  0  0  0  0  0  0  0  0  0  0  0
    1.2737   -3.3572   -0.8369 H   0  0  0  0  0  0  0  0  0  0  0  0
    1.3933   -5.0883   -1.0940 H   0  0  0  0  0  0  0  0  0  0  0  0
    2.7977   -2.3274    1.1181 H   0  0  0  0  0  0  0  0  0  0  0  0
    5.1450   -2.3816    2.2650 H   0  0  0  0  0  0  0  0  0  0  0  0
    3.7789   -3.2837    2.6896 H   0  0  0  0  0  0  0  0  0  0  0  0
    7.6504   -4.9752    1.4914 H   0  0  0  0  0  0  0  0  0  0  0  0
    7.3482   -3.3602    1.9977 H   0  0  0  0  0  0  0  0  0  0  0  0
    6.8604   -3.8149    0.4396 H   0  0  0  0  0  0  0  0  0  0  0  0
    7.0172   -5.0546    3.7104 H   0  0  0  0  0  0  0  0  0  0  0  0
    6.5124   -6.3877    0.1958 H   0  0  0  0  0  0  0  0  0  0  0  0
    5.2982   -7.5916    0.4967 H   0  0  0  0  0  0  0  0  0  0  0  0
    6.5009   -7.1176    1.6981 H   0  0  0  0  0  0  0  0  0  0  0  0
    3.7231   -6.1604   -0.3308 H   0  0  0  0  0  0  0  0  0  0  0  0
    5.9669   -4.9908   -1.1110 H   0  0  0  0  0  0  0  0  0  0  0  0
    4.6212   -5.0502   -2.0689 H   0  0  0  0  0  0  0  0  0  0  0  0
    6.1698   -2.8418   -1.4282 H   0  0  0  0  0  0  0  0  0  0  0  0
    3.8183   -3.2500   -3.1830 H   0  0  0  0  0  0  0  0  0  0  0  0
    5.1659   -0.4586   -2.6677 H   0  0  0  0  0  0  0  0  0  0  0  0
    3.6145   -0.7438   -3.6068 H   0  0  0  0  0  0  0  0  0  0  0  0
    2.5142   -1.8220   -1.6447 H   0  0  0  0  0  0  0  0  0  0  0  0
    4.6981    0.7143    0.8686 H   0  0  0  0  0  0  0  0  0  0  0  0
  1  2  1  0
  1 33  1  0
  1 34  1  0
  1 35  1  0
  2 20  1  0
  2  3  1  0
  2 36  1  6
  3  4  1  0
  3 37  1  0
  3 38  1  0
  4 11  1  0
  4  5  1  0
  4 39  1  6
  5  6  1  0
  6  7  2  0
  6  8  1  0
  8  9  1  0
  9 20  1  0
  9 10  1  0
  9 40  1  1
 10 11  1  0
 10 41  1  0
 10 42  1  0
 11 21  1  0
 11 12  1  6
 12 13  1  0
 12 43  1  0
 12 44  1  0
 13 14  1  0
 13 45  1  0
 13 46  1  0
 14 23  1  0
 14 15  1  6
 14 16  1  0
 15 47  1  0
 15 48  1  0
 15 49  1  0
 16 29  1  0
 16 17  1  0
 16 50  1  1
 17 18  1  0
 17 51  1  0
 17 52  1  0
 18 19  1  6
 18 20  1  0
 18 21  1  0
 19 53  1  0
 19 54  1  0
 19 55  1  0
 20 56  1  6
 21 22  1  6
 21 23  1  0
 22 57  1  0
 22 58  1  0
 22 59  1  0
 23 24  1  0
 23 60  1  6
 24 25  1  0
 24 61  1  0
 24 62  1  0
 25 29  1  0
 25 26  1  0
 25 63  1  6
 26 28  1  0
 26 27  1  0
 26 64  1  6
 27 28  1  0
 27 65  1  0
 27 66  1  0
 28 29  1  0
 28 67  1  1
 29 30  1  1
 30 31  2  0
 30 32  1  0
 32 68  1  0
M  END
>  <i_m_ct_stereo_status>  (96) 
1

>  <s_m_source_file>  (96) 
/var/tmp/pbs.5076255.sched01/tmpfev35gxg/05fxellcm.sdf

>  <i_m_source_file_index>  (96) 
39

>  <i_lp_mmshare_version>  (96) 
48012

>  <i_f3d_flags>  (96) 
0

>  <s_epik_input>  (96) 
TzFDKD1PKU9bQ0BASF0oW0NIMl0yKVtDQEhdKFtDQEhdKFtDSDNdKVtDSDJdW0NASF0xW0NAQF0yMzQpW0NAQF01KFtDSDNdKVtDQF00KFtDSDNdKVtDQEhdNltDQEBdKFtDSDNdKShbQ0gyXVtDSDJdMylbQ0BASF0oW0NIMl01KVtDQEBdNyhDKD1PKVtPSF0pW0NAQEhdKFtDSDJdNilbQ0BIXThbQ0BASF03W0NIMl04

>  <s_epik_cmdline>  (96) 
J2VwaWtfcHl0aG9uJywgJy1waHQnLCAnMi4wJywgJy1waCcsICc3LjAnLCAnLXRuJywgJzgnLCAnLW1hJywgJzIwMCcsICctaW1hZScsICc8aW5maWxlLm1hZT4nLCAnLW9tYWUnLCAnPG91dGZpbGUubWFlPic=

>  <r_epik_Ionization_Penalty>  (96) 
2.46494

>  <r_epik_Ionization_Penalty_Charging>  (96) 
0

>  <r_epik_Ionization_Penalty_Neutral>  (96) 
2.46494

>  <r_epik_State_Penalty>  (96) 
2.62741

>  <r_epik_Charging_Adjusted_Penalty>  (96) 
2.62741

>  <i_epik_Tot_Q>  (96) 
0

>  <i_epik_Tot_abs_Q>  (96) 
0

>  <s_epik_Chemistry_Notes>  (96) 
This compound has an ester and may undergo hydrolysis at high or low pH.

>  <s_lp_Force_Field>  (96) 
OPLS3e

>  <r_lp_Energy>  (96) 
222.701

>  <b_lp_Chiralities_Consistent>  (96) 
1

>  <s_lp_Variant>  (96) 
24:0-2

>  <s_i_glide_gridfile>  (96) 
pfpi4k_grid

>  <i_i_glide_lignum>  (96) 
39

>  <i_i_glide_rotatable_bonds>  (96) 
2

>  <r_i_docking_score>  (96) 
-1.60955

>  <r_i_glide_ligand_efficiency>  (96) 
-0.0502983

>  <r_i_glide_ligand_efficiency_sa>  (96) 
-0.159687

>  <r_i_glide_ligand_efficiency_ln>  (96) 
-0.360421

>  <r_i_glide_gscore>  (96) 
-1.60955

>  <r_i_glide_lipo>  (96) 
-0.413533

>  <r_i_glide_hbond>  (96) 
-0.0209918

>  <r_i_glide_metal>  (96) 
-0

>  <r_i_glide_rewards>  (96) 
-0.476067

>  <r_i_glide_evdw>  (96) 
-13.3772

>  <r_i_glide_ecoul>  (96) 
-0.886446

>  <r_i_glide_erotb>  (96) 
0.102872

>  <r_i_glide_esite>  (96) 
0

>  <r_i_glide_emodel>  (96) 
-14.4552

>  <r_i_glide_energy>  (96) 
-14.2636

>  <r_i_glide_einternal>  (96) 
0.283793

>  <r_i_glide_intrahb_reward>  (96) 
-0

>  <i_i_glide_confnum>  (96) 
1

>  <i_i_glide_posenum>  (96) 
5

>  <r_i_glide_eff_state_penalty>  (96) 
0

>  <ligand_id>  (96) 
24

>  <original_smiles>  (96) 
CC1CC2OC(=O)OC3CC24CCC2(C)C5CC(C)(C13)C4(C)C2CC1C2CC2C15C(=O)O

>  <smiles>  (96) 
[H]OC(=O)C12C3([H])C([H])([H])C3([H])C1([H])C([H])([H])C1([H])C3(C([H])([H])[H])C([H])([H])C([H])([H])C45C([H])([H])C6([H])OC(=O)OC4([H])C([H])([H])C([H])(C([H])([H])[H])C6([H])C(C([H])([H])[H])(C([H])([H])C23[H])C15C([H])([H])[H]

$$$$
26:0:0
     RDKit          3D

 71 76  0  0  1  0  0  0  0  0999 V2000
    5.1350    0.4201    6.8750 C   0  0  0  0  0  0  0  0  0  0  0  0
    3.8279   -0.1315    6.9358 O   0  0  0  0  0  0  0  0  0  0  0  0
    3.2115   -0.4642    5.6935 C   0  0  2  0  0  0  0  0  0  0  0  0
    2.7444    0.8573    4.9203 C   0  0  0  0  0  0  0  0  0  0  0  0
    1.2451    1.2595    4.5472 C   0  0  2  0  0  0  0  0  0  0  0  0
    1.1525    1.6245    3.0306 C   0  0  1  0  0  0  0  0  0  0  0  0
    2.0805    2.8091    2.6532 C   0  0  0  0  0  0  0  0  0  0  0  0
    1.5783    0.3728    2.1727 C   0  0  0  0  0  0  0  0  0  0  0  0
    1.0611   -0.8736    2.6806 O   0  0  0  0  0  0  0  0  0  0  0  0
    1.9979   -1.8180    3.2273 C   0  0  0  0  0  0  0  0  0  0  0  0
    1.6535   -2.3871    4.6484 C   0  0  2  0  0  0  0  0  0  0  0  0
    0.1372   -2.4874    4.9621 C   0  0  0  0  0  0  0  0  0  0  0  0
    0.0214   -1.5691    6.1522 C   0  0  0  0  0  0  0  0  0  0  0  0
   -0.6418   -0.4289    6.1321 C   0  0  0  0  0  0  0  0  0  0  0  0
   -1.9629   -0.4207    5.3865 C   0  0  0  0  0  0  0  0  0  0  0  0
   -0.0139    0.8973    6.7017 C   0  0  2  0  0  0  0  0  0  0  0  0
    1.3394    0.9604    7.1549 O   0  0  0  0  0  0  0  0  0  0  0  0
    1.5112    0.8768    8.4608 C   0  0  0  0  0  0  0  0  0  0  0  0
    2.4839    1.2281    9.1324 O   0  0  0  0  0  0  0  0  0  0  0  0
    0.3683    0.1509    8.8875 C   0  0  0  0  0  0  0  0  0  0  0  0
   -0.5309    0.8129    8.1113 C   0  0  0  0  0  0  0  0  0  0  0  0
   -1.5349    1.8386    8.6197 C   0  0  0  0  0  0  0  0  0  0  0  0
    1.0280   -1.2513    8.5271 C   0  0  0  0  0  0  0  0  0  0  0  0
    1.1839   -1.7908    7.0098 C   0  0  2  0  0  0  0  0  0  0  0  0
    2.3711   -1.7920    5.9511 C   0  0  2  0  0  0  0  0  0  0  0  0
    3.4069   -2.8535    6.4307 C   0  0  0  0  0  0  0  0  0  0  0  0
    0.3013    2.0651    5.6140 C   0  0  1  0  0  0  0  0  0  0  0  0
    1.0608    3.3321    6.1553 C   0  0  0  0  0  0  0  0  0  0  0  0
   -1.0247    2.6400    4.9783 C   0  0  1  0  0  0  0  0  0  0  0  0
   -1.6395    3.6596    5.7479 O   0  0  0  0  0  0  0  0  0  0  0  0
   -0.9827    3.0578    3.4929 C   0  0  1  0  0  0  0  0  0  0  0  0
   -0.4070    4.3367    3.2842 O   0  0  0  0  0  0  0  0  0  0  0  0
   -0.3072    1.9661    2.6459 C   0  0  0  0  0  0  0  0  0  0  0  0
    5.4723    0.6389    7.8879 H   0  0  0  0  0  0  0  0  0  0  0  0
    5.1702    1.3529    6.3142 H   0  0  0  0  0  0  0  0  0  0  0  0
    5.8399   -0.2844    6.4339 H   0  0  0  0  0  0  0  0  0  0  0  0
    4.0431   -0.8185    5.0852 H   0  0  0  0  0  0  0  0  0  0  0  0
    3.2002    1.7119    5.4062 H   0  0  0  0  0  0  0  0  0  0  0  0
    3.3323    0.8232    4.0113 H   0  0  0  0  0  0  0  0  0  0  0  0
    0.7855    0.3054    4.4924 H   0  0  0  0  0  0  0  0  0  0  0  0
    1.8265    3.2288    1.6791 H   0  0  0  0  0  0  0  0  0  0  0  0
    3.1320    2.5344    2.6020 H   0  0  0  0  0  0  0  0  0  0  0  0
    2.0152    3.6244    3.3696 H   0  0  0  0  0  0  0  0  0  0  0  0
    1.1922    0.4966    1.1602 H   0  0  0  0  0  0  0  0  0  0  0  0
    2.6586    0.3177    2.0240 H   0  0  0  0  0  0  0  0  0  0  0  0
    1.9755   -2.6517    2.5245 H   0  0  0  0  0  0  0  0  0  0  0  0
    3.0282   -1.4710    3.1850 H   0  0  0  0  0  0  0  0  0  0  0  0
    1.9741   -3.4265    4.5687 H   0  0  0  0  0  0  0  0  0  0  0  0
   -0.5028   -2.2238    4.1197 H   0  0  0  0  0  0  0  0  0  0  0  0
   -0.1263   -3.4972    5.2763 H   0  0  0  0  0  0  0  0  0  0  0  0
   -2.6779    0.1785    5.9410 H   0  0  0  0  0  0  0  0  0  0  0  0
   -2.3768   -1.4284    5.3605 H   0  0  0  0  0  0  0  0  0  0  0  0
   -1.8728   -0.0945    4.3521 H   0  0  0  0  0  0  0  0  0  0  0  0
   -2.5274    1.6821    8.1962 H   0  0  0  0  0  0  0  0  0  0  0  0
   -1.2243    2.8589    8.3911 H   0  0  0  0  0  0  0  0  0  0  0  0
   -1.6228    1.7789    9.7071 H   0  0  0  0  0  0  0  0  0  0  0  0
    1.9848   -1.4028    9.0345 H   0  0  0  0  0  0  0  0  0  0  0  0
    0.3843   -1.9731    9.0308 H   0  0  0  0  0  0  0  0  0  0  0  0
    1.0703   -2.8515    7.2210 H   0  0  0  0  0  0  0  0  0  0  0  0
    2.9734   -3.8449    6.5614 H   0  0  0  0  0  0  0  0  0  0  0  0
    3.8547   -2.5859    7.3870 H   0  0  0  0  0  0  0  0  0  0  0  0
    4.2207   -2.9715    5.7173 H   0  0  0  0  0  0  0  0  0  0  0  0
    0.5699    3.7799    7.0155 H   0  0  0  0  0  0  0  0  0  0  0  0
    1.1122    4.1086    5.3961 H   0  0  0  0  0  0  0  0  0  0  0  0
    2.0906    3.1651    6.4534 H   0  0  0  0  0  0  0  0  0  0  0  0
   -1.7893    1.8956    4.9956 H   0  0  0  0  0  0  0  0  0  0  0  0
   -1.5223    3.4494    6.6629 H   0  0  0  0  0  0  0  0  0  0  0  0
   -2.0134    3.1433    3.1467 H   0  0  0  0  0  0  0  0  0  0  0  0
   -0.1917    4.4213    2.3315 H   0  0  0  0  0  0  0  0  0  0  0  0
   -0.3653    2.2108    1.5850 H   0  0  0  0  0  0  0  0  0  0  0  0
   -0.8979    1.0583    2.7354 H   0  0  0  0  0  0  0  0  0  0  0  0
  1  2  1  0
  1 34  1  0
  1 35  1  0
  1 36  1  0
  2  3  1  0
  3 25  1  0
  3  4  1  0
  3 37  1  6
  4  5  1  0
  4 38  1  0
  4 39  1  0
  5 27  1  0
  5  6  1  0
  5 40  1  6
  6 33  1  0
  6  7  1  1
  6  8  1  0
  7 41  1  0
  7 42  1  0
  7 43  1  0
  8  9  1  0
  8 44  1  0
  8 45  1  0
  9 10  1  0
 10 11  1  0
 10 46  1  0
 10 47  1  0
 11 25  1  0
 11 12  1  0
 11 48  1  6
 12 13  1  0
 12 49  1  0
 12 50  1  0
 13 24  1  0
 13 14  2  0
 14 15  1  0
 14 16  1  0
 15 51  1  0
 15 52  1  0
 15 53  1  0
 16 21  1  0
 16 17  1  1
 16 27  1  0
 17 18  1  0
 18 19  2  0
 18 20  1  0
 20 21  2  0
 20 23  1  0
 21 22  1  0
 22 54  1  0
 22 55  1  0
 22 56  1  0
 23 24  1  0
 23 57  1  0
 23 58  1  0
 24 25  1  0
 24 59  1  1
 25 26  1  1
 26 60  1  0
 26 61  1  0
 26 62  1  0
 27 28  1  1
 27 29  1  0
 28 63  1  0
 28 64  1  0
 28 65  1  0
 29 30  1  0
 29 31  1  0
 29 66  1  6
 30 67  1  0
 31 32  1  0
 31 33  1  0
 31 68  1  6
 32 69  1  0
 33 70  1  0
 33 71  1  0
M  END
>  <i_m_ct_stereo_status>  (97) 
1

>  <s_m_source_file>  (97) 
/var/tmp/pbs.5076255.sched01/tmpfev35gxg/05fxellcm.sdf

>  <i_m_source_file_index>  (97) 
41

>  <i_lp_mmshare_version>  (97) 
48012

>  <i_f3d_flags>  (97) 
0

>  <s_epik_input>  (97) 
TzFDKD1PKUMoPUMyW0NIM10pW0NIMl1bQ0BASF0oQyhbQ0gyXTMpPUM0W0NIM10pW0NAXShbQ0gzXSkoW0NAQEhdKFtDSDJdNSlPW0NIM10pW0NAQEhdM1tDSDJdT1tDSDJdW0NAXShbQ0gzXSkoW0NAQEhdNVtDQEBdNihbQ0BAXTEyNClbQ0gzXSlbQ0gyXVtDQEhdKFtPSF0pW0NAQEhdNltPSF0=

>  <s_epik_cmdline>  (97) 
J2VwaWtfcHl0aG9uJywgJy1waHQnLCAnMi4wJywgJy1waCcsICc3LjAnLCAnLXRuJywgJzgnLCAnLW1hJywgJzIwMCcsICctaW1hZScsICc8aW5maWxlLm1hZT4nLCAnLW9tYWUnLCAnPG91dGZpbGUubWFlPic=

>  <r_lp_tautomer_probability>  (97) 
1

>  <r_epik_Ionization_Penalty>  (97) 
1.40019e-07

>  <r_epik_Ionization_Penalty_Charging>  (97) 
0

>  <r_epik_Ionization_Penalty_Neutral>  (97) 
1.40019e-07

>  <r_epik_State_Penalty>  (97) 
-0

>  <r_epik_Charging_Adjusted_Penalty>  (97) 
0

>  <i_epik_Tot_Q>  (97) 
0

>  <i_epik_Tot_abs_Q>  (97) 
0

>  <s_epik_Chemistry_Notes>  (97) 
This compound has an ester and may undergo hydrolysis at high or low pH.

>  <s_lp_Force_Field>  (97) 
OPLS3e

>  <r_lp_Energy>  (97) 
253.235

>  <b_lp_Chiralities_Consistent>  (97) 
1

>  <s_lp_Variant>  (97) 
26:0-1

>  <s_i_glide_gridfile>  (97) 
pfpi4k_grid

>  <i_i_glide_lignum>  (97) 
41

>  <i_i_glide_rotatable_bonds>  (97) 
3

>  <r_i_docking_score>  (97) 
-2.25434

>  <r_i_glide_ligand_efficiency>  (97) 
-0.0683133

>  <r_i_glide_ligand_efficiency_sa>  (97) 
-0.219117

>  <r_i_glide_ligand_efficiency_ln>  (97) 
-0.501354

>  <r_i_glide_gscore>  (97) 
-2.25434

>  <r_i_glide_lipo>  (97) 
-0.015493

>  <r_i_glide_hbond>  (97) 
0

>  <r_i_glide_metal>  (97) 
-0

>  <r_i_glide_rewards>  (97) 
-0.282361

>  <r_i_glide_evdw>  (97) 
-18.6812

>  <r_i_glide_ecoul>  (97) 
-6.81616

>  <r_i_glide_erotb>  (97) 
0

>  <r_i_glide_esite>  (97) 
0

>  <r_i_glide_emodel>  (97) 
-28.6555

>  <r_i_glide_energy>  (97) 
-25.4974

>  <r_i_glide_einternal>  (97) 
1.33757

>  <r_i_glide_intrahb_reward>  (97) 
-0

>  <i_i_glide_confnum>  (97) 
1

>  <i_i_glide_posenum>  (97) 
37

>  <r_i_glide_eff_state_penalty>  (97) 
0

>  <ligand_id>  (97) 
26

>  <original_smiles>  (97) 
COC1CC2C3(C)COCC4CC5=C(C)C6(OC(=O)C(=C6C)CC5C41C)C2(C)C(O)C(O)C3

>  <smiles>  (97) 
[H]OC1([H])C([H])([H])C2(C([H])([H])[H])C([H])([H])OC([H])([H])C3([H])C([H])([H])C4=C(C([H])([H])[H])C56OC(=O)C(=C5C([H])([H])[H])C([H])([H])C4([H])C3(C([H])([H])[H])C([H])(OC([H])([H])[H])C([H])([H])C2([H])C6(C([H])([H])[H])C1([H])O[H]

$$$$
26:0:1
     RDKit          3D

 71 76  0  0  1  0  0  0  0  0999 V2000
    4.7668    0.1429    4.0842 C   0  0  0  0  0  0  0  0  0  0  0  0
    4.0817    0.4942    5.2772 O   0  0  0  0  0  0  0  0  0  0  0  0
    2.7354    0.0412    5.4001 C   0  0  2  0  0  0  0  0  0  0  0  0
    1.7610    0.8915    4.4571 C   0  0  0  0  0  0  0  0  0  0  0  0
    0.5593    1.8249    4.9347 C   0  0  2  0  0  0  0  0  0  0  0  0
   -0.7434    1.4603    4.1427 C   0  0  1  0  0  0  0  0  0  0  0  0
   -0.5748    1.6190    2.6089 C   0  0  0  0  0  0  0  0  0  0  0  0
   -1.1208   -0.0388    4.4419 C   0  0  0  0  0  0  0  0  0  0  0  0
   -0.9606   -0.4315    5.8218 O   0  0  0  0  0  0  0  0  0  0  0  0
    0.1023   -1.3532    6.1266 C   0  0  0  0  0  0  0  0  0  0  0  0
    1.0814   -0.9338    7.2777 C   0  0  2  0  0  0  0  0  0  0  0  0
    0.4578   -0.0394    8.3800 C   0  0  0  0  0  0  0  0  0  0  0  0
    1.3001    1.2003    8.2622 C   0  0  0  0  0  0  0  0  0  0  0  0
    0.8247    2.3752    7.8597 C   0  0  0  0  0  0  0  0  0  0  0  0
   -0.5557    2.7676    8.3511 C   0  0  0  0  0  0  0  0  0  0  0  0
    1.5865    3.2201    6.7803 C   0  0  2  0  0  0  0  0  0  0  0  0
    2.7384    2.7280    6.0938 O   0  0  0  0  0  0  0  0  0  0  0  0
    3.9036    3.1570    6.5563 C   0  0  0  0  0  0  0  0  0  0  0  0
    4.9933    3.1723    5.9981 O   0  0  0  0  0  0  0  0  0  0  0  0
    3.6167    3.4485    7.9157 C   0  0  0  0  0  0  0  0  0  0  0  0
    2.4255    4.0626    7.6964 C   0  0  0  0  0  0  0  0  0  0  0  0
    2.1932    5.5623    7.7630 C   0  0  0  0  0  0  0  0  0  0  0  0
    3.7919    1.9321    8.3580 C   0  0  0  0  0  0  0  0  0  0  0  0
    2.6866    0.7914    8.0532 C   0  0  2  0  0  0  0  0  0  0  0  0
    2.5227   -0.3276    6.9339 C   0  0  2  0  0  0  0  0  0  0  0  0
    3.5765   -1.4332    7.2454 C   0  0  0  0  0  0  0  0  0  0  0  0
    0.8308    3.3868    5.3452 C   0  0  1  0  0  0  0  0  0  0  0  0
    1.6409    4.1151    4.2089 C   0  0  0  0  0  0  0  0  0  0  0  0
   -0.4816    4.2380    5.4938 C   0  0  1  0  0  0  0  0  0  0  0  0
   -0.2555    5.6367    5.4515 O   0  0  0  0  0  0  0  0  0  0  0  0
   -1.6684    3.8543    4.5912 C   0  0  1  0  0  0  0  0  0  0  0  0
   -1.6086    4.4206    3.2895 O   0  0  0  0  0  0  0  0  0  0  0  0
   -1.9263    2.3421    4.6044 C   0  0  0  0  0  0  0  0  0  0  0  0
    5.7716    0.5626    4.1183 H   0  0  0  0  0  0  0  0  0  0  0  0
    4.2793    0.5365    3.1931 H   0  0  0  0  0  0  0  0  0  0  0  0
    4.8612   -0.9390    3.9878 H   0  0  0  0  0  0  0  0  0  0  0  0
    2.7476   -0.9352    4.9149 H   0  0  0  0  0  0  0  0  0  0  0  0
    2.3719    1.4687    3.7722 H   0  0  0  0  0  0  0  0  0  0  0  0
    1.3710    0.1436    3.7788 H   0  0  0  0  0  0  0  0  0  0  0  0
    0.2966    1.3695    5.8576 H   0  0  0  0  0  0  0  0  0  0  0  0
   -1.5406    1.6363    2.0960 H   0  0  0  0  0  0  0  0  0  0  0  0
    0.0092    0.8216    2.1458 H   0  0  0  0  0  0  0  0  0  0  0  0
   -0.0608    2.5413    2.3513 H   0  0  0  0  0  0  0  0  0  0  0  0
   -2.1706   -0.1952    4.1923 H   0  0  0  0  0  0  0  0  0  0  0  0
   -0.5954   -0.7288    3.7756 H   0  0  0  0  0  0  0  0  0  0  0  0
   -0.4202   -2.2498    6.4553 H   0  0  0  0  0  0  0  0  0  0  0  0
    0.6507   -1.6844    5.2482 H   0  0  0  0  0  0  0  0  0  0  0  0
    1.2663   -1.8813    7.7841 H   0  0  0  0  0  0  0  0  0  0  0  0
   -0.6078    0.1409    8.2531 H   0  0  0  0  0  0  0  0  0  0  0  0
    0.6127   -0.4738    9.3691 H   0  0  0  0  0  0  0  0  0  0  0  0
   -0.5833    3.8363    8.5679 H   0  0  0  0  0  0  0  0  0  0  0  0
   -0.7553    2.2712    9.2983 H   0  0  0  0  0  0  0  0  0  0  0  0
   -1.3504    2.4772    7.6660 H   0  0  0  0  0  0  0  0  0  0  0  0
    1.2752    5.7995    8.3010 H   0  0  0  0  0  0  0  0  0  0  0  0
    2.1245    5.9975    6.7648 H   0  0  0  0  0  0  0  0  0  0  0  0
    3.0227    6.0511    8.2750 H   0  0  0  0  0  0  0  0  0  0  0  0
    4.7741    1.5296    8.0929 H   0  0  0  0  0  0  0  0  0  0  0  0
    3.8460    1.9989    9.4443 H   0  0  0  0  0  0  0  0  0  0  0  0
    2.8490    0.1941    8.9488 H   0  0  0  0  0  0  0  0  0  0  0  0
    3.4804   -1.8393    8.2511 H   0  0  0  0  0  0  0  0  0  0  0  0
    4.5959   -1.0627    7.1581 H   0  0  0  0  0  0  0  0  0  0  0  0
    3.4810   -2.2787    6.5655 H   0  0  0  0  0  0  0  0  0  0  0  0
    2.0284    5.0816    4.5230 H   0  0  0  0  0  0  0  0  0  0  0  0
    1.0224    4.3012    3.3332 H   0  0  0  0  0  0  0  0  0  0  0  0
    2.4956    3.5679    3.8255 H   0  0  0  0  0  0  0  0  0  0  0  0
   -0.8931    4.1364    6.4749 H   0  0  0  0  0  0  0  0  0  0  0  0
    0.2016    5.8366    4.6483 H   0  0  0  0  0  0  0  0  0  0  0  0
   -2.5594    4.2964    5.0314 H   0  0  0  0  0  0  0  0  0  0  0  0
   -0.9127    4.0355    2.7786 H   0  0  0  0  0  0  0  0  0  0  0  0
   -2.8286    2.1155    4.0300 H   0  0  0  0  0  0  0  0  0  0  0  0
   -2.1671    2.0515    5.6282 H   0  0  0  0  0  0  0  0  0  0  0  0
  1  2  1  0
  1 34  1  0
  1 35  1  0
  1 36  1  0
  2  3  1  0
  3 25  1  0
  3  4  1  0
  3 37  1  6
  4  5  1  0
  4 38  1  0
  4 39  1  0
  5 27  1  0
  5  6  1  0
  5 40  1  1
  6 33  1  0
  6  7  1  6
  6  8  1  0
  7 41  1  0
  7 42  1  0
  7 43  1  0
  8  9  1  0
  8 44  1  0
  8 45  1  0
  9 10  1  0
 10 11  1  0
 10 46  1  0
 10 47  1  0
 11 25  1  0
 11 12  1  0
 11 48  1  1
 12 13  1  0
 12 49  1  0
 12 50  1  0
 13 24  1  0
 13 14  2  0
 14 15  1  0
 14 16  1  0
 15 51  1  0
 15 52  1  0
 15 53  1  0
 16 21  1  0
 16 17  1  6
 16 27  1  0
 17 18  1  0
 18 19  2  0
 18 20  1  0
 20 21  2  0
 20 23  1  0
 21 22  1  0
 22 54  1  0
 22 55  1  0
 22 56  1  0
 23 24  1  0
 23 57  1  0
 23 58  1  0
 24 25  1  0
 24 59  1  1
 25 26  1  1
 26 60  1  0
 26 61  1  0
 26 62  1  0
 27 28  1  6
 27 29  1  0
 28 63  1  0
 28 64  1  0
 28 65  1  0
 29 30  1  0
 29 31  1  0
 29 66  1  1
 30 67  1  0
 31 32  1  0
 31 33  1  0
 31 68  1  1
 32 69  1  0
 33 70  1  0
 33 71  1  0
M  END
>  <i_m_ct_stereo_status>  (98) 
1

>  <s_m_source_file>  (98) 
/var/tmp/pbs.5076255.sched01/tmpfev35gxg/05fxellcm.sdf

>  <i_m_source_file_index>  (98) 
41

>  <i_lp_mmshare_version>  (98) 
48012

>  <i_f3d_flags>  (98) 
0

>  <s_epik_input>  (98) 
TzFDKD1PKUMoPUMyW0NIM10pW0NIMl1bQ0BASF0oQyhbQ0gyXTMpPUM0W0NIM10pW0NAXShbQ0gzXSkoW0NAQEhdKFtDSDJdNSlPW0NIM10pW0NAQEhdM1tDSDJdT1tDSDJdW0NAXShbQ0gzXSkoW0NAQEhdNVtDQEBdNihbQ0BAXTEyNClbQ0gzXSlbQ0gyXVtDQEhdKFtPSF0pW0NAQEhdNltPSF0=

>  <s_epik_cmdline>  (98) 
J2VwaWtfcHl0aG9uJywgJy1waHQnLCAnMi4wJywgJy1waCcsICc3LjAnLCAnLXRuJywgJzgnLCAnLW1hJywgJzIwMCcsICctaW1hZScsICc8aW5maWxlLm1hZT4nLCAnLW9tYWUnLCAnPG91dGZpbGUubWFlPic=

>  <r_lp_tautomer_probability>  (98) 
1

>  <r_epik_Ionization_Penalty>  (98) 
1.40019e-07

>  <r_epik_Ionization_Penalty_Charging>  (98) 
0

>  <r_epik_Ionization_Penalty_Neutral>  (98) 
1.40019e-07

>  <r_epik_State_Penalty>  (98) 
-0

>  <r_epik_Charging_Adjusted_Penalty>  (98) 
0

>  <i_epik_Tot_Q>  (98) 
0

>  <i_epik_Tot_abs_Q>  (98) 
0

>  <s_epik_Chemistry_Notes>  (98) 
This compound has an ester and may undergo hydrolysis at high or low pH.

>  <s_lp_Force_Field>  (98) 
OPLS3e

>  <r_lp_Energy>  (98) 
253.235

>  <b_lp_Chiralities_Consistent>  (98) 
1

>  <s_lp_Variant>  (98) 
26:0-1

>  <s_i_glide_gridfile>  (98) 
pfpi4k_grid

>  <i_i_glide_lignum>  (98) 
41

>  <i_i_glide_rotatable_bonds>  (98) 
3

>  <r_i_docking_score>  (98) 
-2.21653

>  <r_i_glide_ligand_efficiency>  (98) 
-0.0671676

>  <r_i_glide_ligand_efficiency_sa>  (98) 
-0.215442

>  <r_i_glide_ligand_efficiency_ln>  (98) 
-0.492945

>  <r_i_glide_gscore>  (98) 
-2.21653

>  <r_i_glide_lipo>  (98) 
-0.0594623

>  <r_i_glide_hbond>  (98) 
0

>  <r_i_glide_metal>  (98) 
-0

>  <r_i_glide_rewards>  (98) 
-0.282361

>  <r_i_glide_evdw>  (98) 
-17.4624

>  <r_i_glide_ecoul>  (98) 
-6.67723

>  <r_i_glide_erotb>  (98) 
0

>  <r_i_glide_esite>  (98) 
0

>  <r_i_glide_emodel>  (98) 
-27.9075

>  <r_i_glide_energy>  (98) 
-24.1396

>  <r_i_glide_einternal>  (98) 
0.172937

>  <r_i_glide_intrahb_reward>  (98) 
-0

>  <i_i_glide_confnum>  (98) 
1

>  <i_i_glide_posenum>  (98) 
13

>  <r_i_glide_eff_state_penalty>  (98) 
0

>  <ligand_id>  (98) 
26

>  <original_smiles>  (98) 
COC1CC2C3(C)COCC4CC5=C(C)C6(OC(=O)C(=C6C)CC5C41C)C2(C)C(O)C(O)C3

>  <smiles>  (98) 
[H]OC1([H])C([H])([H])C2(C([H])([H])[H])C([H])([H])OC([H])([H])C3([H])C([H])([H])C4=C(C([H])([H])[H])C56OC(=O)C(=C5C([H])([H])[H])C([H])([H])C4([H])C3(C([H])([H])[H])C([H])(OC([H])([H])[H])C([H])([H])C2([H])C6(C([H])([H])[H])C1([H])O[H]

$$$$
26:0:2
     RDKit          3D

 71 76  0  0  1  0  0  0  0  0999 V2000
    4.8774    1.8183    7.8212 C   0  0  0  0  0  0  0  0  0  0  0  0
    3.6855    1.0481    7.7759 O   0  0  0  0  0  0  0  0  0  0  0  0
    3.3010    0.5329    6.5031 C   0  0  2  0  0  0  0  0  0  0  0  0
    2.7206    1.6965    5.5713 C   0  0  0  0  0  0  0  0  0  0  0  0
    1.2377    1.7987    4.9913 C   0  0  2  0  0  0  0  0  0  0  0  0
    1.2827    2.0467    3.4489 C   0  0  1  0  0  0  0  0  0  0  0  0
    2.0440    3.3501    3.0850 C   0  0  0  0  0  0  0  0  0  0  0  0
    2.0225    0.8376    2.7568 C   0  0  0  0  0  0  0  0  0  0  0  0
    1.6614   -0.4455    3.3064 O   0  0  0  0  0  0  0  0  0  0  0  0
    2.6648   -1.1699    4.0405 C   0  0  0  0  0  0  0  0  0  0  0  0
    2.2392   -1.6984    5.4547 C   0  0  2  0  0  0  0  0  0  0  0  0
    0.7319   -2.0446    5.5974 C   0  0  0  0  0  0  0  0  0  0  0  0
    0.3089   -1.0915    6.6822 C   0  0  0  0  0  0  0  0  0  0  0  0
   -0.5353   -0.0889    6.4893 C   0  0  0  0  0  0  0  0  0  0  0  0
   -1.7271   -0.3613    5.5924 C   0  0  0  0  0  0  0  0  0  0  0  0
   -0.2111    1.3584    7.0109 C   0  0  2  0  0  0  0  0  0  0  0  0
    1.0428    1.6873    7.6109 O   0  0  0  0  0  0  0  0  0  0  0  0
    1.0560    1.7271    8.9284 C   0  0  0  0  0  0  0  0  0  0  0  0
    1.8639    2.2882    9.6741 O   0  0  0  0  0  0  0  0  0  0  0  0
    0.0097    0.8352    9.2845 C   0  0  0  0  0  0  0  0  0  0  0  0
   -0.8787    1.2738    8.3558 C   0  0  0  0  0  0  0  0  0  0  0  0
   -2.0973    2.1363    8.6524 C   0  0  0  0  0  0  0  0  0  0  0  0
    0.9353   -0.4504    9.1217 C   0  0  0  0  0  0  0  0  0  0  0  0
    1.3707   -1.0426    7.6827 C   0  0  2  0  0  0  0  0  0  0  0  0
    2.6711   -0.9030    6.7752 C   0  0  2  0  0  0  0  0  0  0  0  0
    3.7997   -1.7301    7.4607 C   0  0  0  0  0  0  0  0  0  0  0  0
    0.0427    2.4881    5.8720 C   0  0  1  0  0  0  0  0  0  0  0  0
    0.4958    3.9051    6.3833 C   0  0  0  0  0  0  0  0  0  0  0  0
   -1.2652    2.7709    5.0369 C   0  0  1  0  0  0  0  0  0  0  0  0
   -2.1626    3.6752    5.6549 O   0  0  0  0  0  0  0  0  0  0  0  0
   -1.1095    3.1015    3.5365 C   0  0  1  0  0  0  0  0  0  0  0  0
   -0.7530    4.4477    3.2797 O   0  0  0  0  0  0  0  0  0  0  0  0
   -0.1497    2.1060    2.8626 C   0  0  0  0  0  0  0  0  0  0  0  0
    5.0385    2.1584    8.8440 H   0  0  0  0  0  0  0  0  0  0  0  0
    4.8277    2.7044    7.1906 H   0  0  0  0  0  0  0  0  0  0  0  0
    5.7420    1.2234    7.5279 H   0  0  0  0  0  0  0  0  0  0  0  0
    4.2525    0.2942    6.0297 H   0  0  0  0  0  0  0  0  0  0  0  0
    2.9582    2.6477    6.0318 H   0  0  0  0  0  0  0  0  0  0  0  0
    3.4184    1.7095    4.7429 H   0  0  0  0  0  0  0  0  0  0  0  0
    0.9547    0.7765    4.9686 H   0  0  0  0  0  0  0  0  0  0  0  0
    1.8388    3.6553    2.0583 H   0  0  0  0  0  0  0  0  0  0  0  0
    3.1282    3.2677    3.1734 H   0  0  0  0  0  0  0  0  0  0  0  0
    1.7447    4.1832    3.7167 H   0  0  0  0  0  0  0  0  0  0  0  0
    1.7559    0.8163    1.6983 H   0  0  0  0  0  0  0  0  0  0  0  0
    3.1057    0.9684    2.7423 H   0  0  0  0  0  0  0  0  0  0  0  0
    2.8757   -2.0387    3.4142 H   0  0  0  0  0  0  0  0  0  0  0  0
    3.6187   -0.6483    4.0873 H   0  0  0  0  0  0  0  0  0  0  0  0
    2.7380   -2.6670    5.5018 H   0  0  0  0  0  0  0  0  0  0  0  0
    0.1722   -1.9567    4.6666 H   0  0  0  0  0  0  0  0  0  0  0  0
    0.6083   -3.0643    5.9638 H   0  0  0  0  0  0  0  0  0  0  0  0
   -2.6031    0.1468    5.9877 H   0  0  0  0  0  0  0  0  0  0  0  0
   -1.9590   -1.4270    5.6101 H   0  0  0  0  0  0  0  0  0  0  0  0
   -1.5500   -0.1000    4.5499 H   0  0  0  0  0  0  0  0  0  0  0  0
   -2.9721    1.7719    8.1160 H   0  0  0  0  0  0  0  0  0  0  0  0
   -1.9356    3.1740    8.3615 H   0  0  0  0  0  0  0  0  0  0  0  0
   -2.3217    2.1313    9.7212 H   0  0  0  0  0  0  0  0  0  0  0  0
    1.8275   -0.3936    9.7503 H   0  0  0  0  0  0  0  0  0  0  0  0
    0.3574   -1.2394    9.6073 H   0  0  0  0  0  0  0  0  0  0  0  0
    1.4136   -2.0899    7.9705 H   0  0  0  0  0  0  0  0  0  0  0  0
    3.5274   -2.7731    7.6250 H   0  0  0  0  0  0  0  0  0  0  0  0
    4.0690   -1.3271    8.4370 H   0  0  0  0  0  0  0  0  0  0  0  0
    4.7069   -1.7473    6.8606 H   0  0  0  0  0  0  0  0  0  0  0  0
   -0.1777    4.3093    7.1356 H   0  0  0  0  0  0  0  0  0  0  0  0
    0.5143    4.6282    5.5730 H   0  0  0  0  0  0  0  0  0  0  0  0
    1.4899    3.9451    6.8155 H   0  0  0  0  0  0  0  0  0  0  0  0
   -1.8817    1.9011    5.0165 H   0  0  0  0  0  0  0  0  0  0  0  0
   -2.9983    3.5924    5.2285 H   0  0  0  0  0  0  0  0  0  0  0  0
   -2.0839    2.9734    3.0607 H   0  0  0  0  0  0  0  0  0  0  0  0
   -0.4644    4.5200    2.3641 H   0  0  0  0  0  0  0  0  0  0  0  0
   -0.1170    2.2758    1.7826 H   0  0  0  0  0  0  0  0  0  0  0  0
   -0.5840    1.1126    2.9607 H   0  0  0  0  0  0  0  0  0  0  0  0
  1  2  1  0
  1 34  1  0
  1 35  1  0
  1 36  1  0
  2  3  1  0
  3 25  1  0
  3  4  1  0
  3 37  1  6
  4  5  1  0
  4 38  1  0
  4 39  1  0
  5 27  1  0
  5  6  1  0
  5 40  1  6
  6 33  1  0
  6  7  1  1
  6  8  1  0
  7 41  1  0
  7 42  1  0
  7 43  1  0
  8  9  1  0
  8 44  1  0
  8 45  1  0
  9 10  1  0
 10 11  1  0
 10 46  1  0
 10 47  1  0
 11 25  1  0
 11 12  1  0
 11 48  1  1
 12 13  1  0
 12 49  1  0
 12 50  1  0
 13 24  1  0
 13 14  2  0
 14 15  1  0
 14 16  1  0
 15 51  1  0
 15 52  1  0
 15 53  1  0
 16 21  1  0
 16 17  1  1
 16 27  1  0
 17 18  1  0
 18 19  2  0
 18 20  1  0
 20 21  2  0
 20 23  1  0
 21 22  1  0
 22 54  1  0
 22 55  1  0
 22 56  1  0
 23 24  1  0
 23 57  1  0
 23 58  1  0
 24 25  1  0
 24 59  1  1
 25 26  1  1
 26 60  1  0
 26 61  1  0
 26 62  1  0
 27 28  1  1
 27 29  1  0
 28 63  1  0
 28 64  1  0
 28 65  1  0
 29 30  1  0
 29 31  1  0
 29 66  1  6
 30 67  1  0
 31 32  1  0
 31 33  1  0
 31 68  1  6
 32 69  1  0
 33 70  1  0
 33 71  1  0
M  END
>  <i_m_ct_stereo_status>  (99) 
1

>  <s_m_source_file>  (99) 
/var/tmp/pbs.5076255.sched01/tmpfev35gxg/05fxellcm.sdf

>  <i_m_source_file_index>  (99) 
41

>  <i_lp_mmshare_version>  (99) 
48012

>  <i_f3d_flags>  (99) 
0

>  <s_epik_input>  (99) 
TzFDKD1PKUMoPUMyW0NIM10pW0NIMl1bQ0BASF0oQyhbQ0gyXTMpPUM0W0NIM10pW0NAXShbQ0gzXSkoW0NAQEhdKFtDSDJdNSlPW0NIM10pW0NAQEhdM1tDSDJdT1tDSDJdW0NAXShbQ0gzXSkoW0NAQEhdNVtDQEBdNihbQ0BAXTEyNClbQ0gzXSlbQ0gyXVtDQEhdKFtPSF0pW0NAQEhdNltPSF0=

>  <s_epik_cmdline>  (99) 
J2VwaWtfcHl0aG9uJywgJy1waHQnLCAnMi4wJywgJy1waCcsICc3LjAnLCAnLXRuJywgJzgnLCAnLW1hJywgJzIwMCcsICctaW1hZScsICc8aW5maWxlLm1hZT4nLCAnLW9tYWUnLCAnPG91dGZpbGUubWFlPic=

>  <r_lp_tautomer_probability>  (99) 
1

>  <r_epik_Ionization_Penalty>  (99) 
1.40019e-07

>  <r_epik_Ionization_Penalty_Charging>  (99) 
0

>  <r_epik_Ionization_Penalty_Neutral>  (99) 
1.40019e-07

>  <r_epik_State_Penalty>  (99) 
-0

>  <r_epik_Charging_Adjusted_Penalty>  (99) 
0

>  <i_epik_Tot_Q>  (99) 
0

>  <i_epik_Tot_abs_Q>  (99) 
0

>  <s_epik_Chemistry_Notes>  (99) 
This compound has an ester and may undergo hydrolysis at high or low pH.

>  <s_lp_Force_Field>  (99) 
OPLS3e

>  <r_lp_Energy>  (99) 
253.235

>  <b_lp_Chiralities_Consistent>  (99) 
1

>  <s_lp_Variant>  (99) 
26:0-1

>  <s_i_glide_gridfile>  (99) 
pfpi4k_grid

>  <i_i_glide_lignum>  (99) 
41

>  <i_i_glide_rotatable_bonds>  (99) 
3

>  <r_i_docking_score>  (99) 
-2.09652

>  <r_i_glide_ligand_efficiency>  (99) 
-0.0635308

>  <r_i_glide_ligand_efficiency_sa>  (99) 
-0.203777

>  <r_i_glide_ligand_efficiency_ln>  (99) 
-0.466254

>  <r_i_glide_gscore>  (99) 
-2.09652

>  <r_i_glide_lipo>  (99) 
0

>  <r_i_glide_hbond>  (99) 
0

>  <r_i_glide_metal>  (99) 
-0

>  <r_i_glide_rewards>  (99) 
-0.282361

>  <r_i_glide_evdw>  (99) 
-17.6437

>  <r_i_glide_ecoul>  (99) 
-6.21123

>  <r_i_glide_erotb>  (99) 
0

>  <r_i_glide_esite>  (99) 
-0.000287873

>  <r_i_glide_emodel>  (99) 
-26.9593

>  <r_i_glide_energy>  (99) 
-23.8549

>  <r_i_glide_einternal>  (99) 
1.00793

>  <r_i_glide_intrahb_reward>  (99) 
-0

>  <i_i_glide_confnum>  (99) 
1

>  <i_i_glide_posenum>  (99) 
1

>  <r_i_glide_eff_state_penalty>  (99) 
0

>  <ligand_id>  (99) 
26

>  <original_smiles>  (99) 
COC1CC2C3(C)COCC4CC5=C(C)C6(OC(=O)C(=C6C)CC5C41C)C2(C)C(O)C(O)C3

>  <smiles>  (99) 
[H]OC1([H])C([H])([H])C2(C([H])([H])[H])C([H])([H])OC([H])([H])C3([H])C([H])([H])C4=C(C([H])([H])[H])C56OC(=O)C(=C5C([H])([H])[H])C([H])([H])C4([H])C3(C([H])([H])[H])C([H])(OC([H])([H])[H])C([H])([H])C2([H])C6(C([H])([H])[H])C1([H])O[H]

$$$$
27:0:0
     RDKit          3D

 73 78  0  0  1  0  0  0  0  0999 V2000
    4.0864    0.3273    3.0389 C   0  0  0  0  0  0  0  0  0  0  0  0
    5.0040   -0.4988    3.9354 C   0  0  0  0  0  0  0  0  0  0  0  0
    5.6767    0.0443    4.8048 O   0  0  0  0  0  0  0  0  0  0  0  0
    4.9889   -1.8268    3.6976 O   0  0  0  0  0  0  0  0  0  0  0  0
    4.2443   -2.4300    2.6443 C   0  0  2  0  0  0  0  0  0  0  0  0
    3.5695   -3.7493    3.0800 C   0  0  2  0  0  0  0  0  0  0  0  0
    3.1463   -3.9854    4.5481 C   0  0  0  0  0  0  0  0  0  0  0  0
    1.8082   -4.7664    4.8616 C   0  0  2  0  0  0  0  0  0  0  0  0
    0.6356   -3.9799    4.2094 C   0  0  0  0  0  0  0  0  0  0  0  0
    1.6572   -4.7495    6.4317 C   0  0  1  0  0  0  0  0  0  0  0  0
    1.9448   -3.4845    7.0458 O   0  0  0  0  0  0  0  0  0  0  0  0
    0.9014   -2.6271    7.3998 C   0  0  0  0  0  0  0  0  0  0  0  0
    0.8457   -2.5238    8.9385 C   0  0  0  0  0  0  0  0  0  0  0  0
    1.2359   -1.2517    6.8013 C   0  0  0  0  0  0  0  0  0  0  0  0
   -0.3408   -3.0149    6.8908 O   0  0  0  0  0  0  0  0  0  0  0  0
   -0.7503   -4.3436    7.2137 C   0  0  0  0  0  0  0  0  0  0  0  0
    0.3540   -5.4036    6.9703 C   0  0  2  0  0  0  0  0  0  0  0  0
    0.6149   -6.2125    8.2614 C   0  0  0  0  0  0  0  0  0  0  0  0
   -0.1827   -6.2901    5.9897 O   0  0  0  0  0  0  0  0  0  0  0  0
    0.7533   -7.1234    5.3152 C   0  0  1  0  0  0  0  0  0  0  0  0
   -0.0144   -8.1114    4.4156 C   0  0  0  0  0  0  0  0  0  0  0  0
    0.6847   -8.0738    3.0608 C   0  0  0  0  0  0  0  0  0  0  0  0
    1.2147   -6.6421    2.9991 C   0  0  2  0  0  0  0  0  0  0  0  0
    1.9637   -6.3180    1.6887 C   0  0  0  0  0  0  0  0  0  0  0  0
    1.3153   -5.8207    0.7501 O   0  0  0  0  0  0  0  0  0  0  0  0
    3.4513   -6.6188    1.4655 C   0  0  0  0  0  0  0  0  0  0  0  0
    4.2140   -5.3128    1.2337 C   0  0  0  0  0  0  0  0  0  0  0  0
    4.3172   -4.6801    0.0465 C   0  0  0  0  0  0  0  0  0  0  0  0
    4.8910   -3.3335    0.2730 C   0  0  0  0  0  0  0  0  0  0  0  0
    5.0621   -2.5014   -0.6106 O   0  0  0  0  0  0  0  0  0  0  0  0
    5.1910   -3.2220    1.7306 C   0  0  2  0  0  0  0  0  0  0  0  0
    4.7424   -4.5211    2.4028 C   0  0  1  0  0  0  0  0  0  0  0  0
    5.8776   -5.2012    3.1683 C   0  0  0  0  0  0  0  0  0  0  0  0
    1.7725   -6.3137    4.4360 C   0  0  1  0  0  0  0  0  0  0  0  0
    3.1258   -7.0100    4.7187 C   0  0  0  0  0  0  0  0  0  0  0  0
    4.4209    0.2577    1.9988 H   0  0  0  0  0  0  0  0  0  0  0  0
    4.0977    1.3701    3.3263 H   0  0  0  0  0  0  0  0  0  0  0  0
    3.0545   -0.0389    3.1071 H   0  0  0  0  0  0  0  0  0  0  0  0
    3.5606   -1.7834    2.0975 H   0  0  0  0  0  0  0  0  0  0  0  0
    2.6940   -3.7652    2.4346 H   0  0  0  0  0  0  0  0  0  0  0  0
    3.9607   -4.4220    5.1271 H   0  0  0  0  0  0  0  0  0  0  0  0
    3.0287   -2.9927    4.9807 H   0  0  0  0  0  0  0  0  0  0  0  0
   -0.3327   -4.4048    4.4646 H   0  0  0  0  0  0  0  0  0  0  0  0
    0.6837   -3.9657    3.1247 H   0  0  0  0  0  0  0  0  0  0  0  0
    0.6214   -2.9410    4.5200 H   0  0  0  0  0  0  0  0  0  0  0  0
    2.4855   -5.3538    6.8067 H   0  0  0  0  0  0  0  0  0  0  0  0
    0.6416   -3.4868    9.4025 H   0  0  0  0  0  0  0  0  0  0  0  0
    0.0708   -1.8228    9.2395 H   0  0  0  0  0  0  0  0  0  0  0  0
    1.8025   -2.1686    9.3186 H   0  0  0  0  0  0  0  0  0  0  0  0
    1.3575   -1.3138    5.7195 H   0  0  0  0  0  0  0  0  0  0  0  0
    2.1701   -0.8806    7.2211 H   0  0  0  0  0  0  0  0  0  0  0  0
    0.4412   -0.5390    7.0215 H   0  0  0  0  0  0  0  0  0  0  0  0
   -1.1225   -4.3761    8.2391 H   0  0  0  0  0  0  0  0  0  0  0  0
   -1.6201   -4.5551    6.5924 H   0  0  0  0  0  0  0  0  0  0  0  0
    1.0012   -5.5853    9.0649 H   0  0  0  0  0  0  0  0  0  0  0  0
    1.3554   -7.0019    8.1148 H   0  0  0  0  0  0  0  0  0  0  0  0
   -0.3018   -6.6866    8.6179 H   0  0  0  0  0  0  0  0  0  0  0  0
    1.2650   -7.7221    6.0681 H   0  0  0  0  0  0  0  0  0  0  0  0
   -0.0400   -9.1169    4.8362 H   0  0  0  0  0  0  0  0  0  0  0  0
   -1.0515   -7.7895    4.3071 H   0  0  0  0  0  0  0  0  0  0  0  0
    1.4950   -8.8077    3.0190 H   0  0  0  0  0  0  0  0  0  0  0  0
   -0.0079   -8.2974    2.2470 H   0  0  0  0  0  0  0  0  0  0  0  0
    0.3035   -6.0608    2.9069 H   0  0  0  0  0  0  0  0  0  0  0  0
    3.8941   -7.1758    2.2869 H   0  0  0  0  0  0  0  0  0  0  0  0
    3.5515   -7.2344    0.5753 H   0  0  0  0  0  0  0  0  0  0  0  0
    3.9640   -4.9971   -0.8934 H   0  0  0  0  0  0  0  0  0  0  0  0
    6.2426   -2.9900    1.9351 H   0  0  0  0  0  0  0  0  0  0  0  0
    6.0330   -4.7342    4.1406 H   0  0  0  0  0  0  0  0  0  0  0  0
    6.8151   -5.1037    2.6201 H   0  0  0  0  0  0  0  0  0  0  0  0
    5.7346   -6.2703    3.3066 H   0  0  0  0  0  0  0  0  0  0  0  0
    3.1511   -8.0313    4.3427 H   0  0  0  0  0  0  0  0  0  0  0  0
    3.3594   -7.0663    5.7827 H   0  0  0  0  0  0  0  0  0  0  0  0
    3.9336   -6.4731    4.2654 H   0  0  0  0  0  0  0  0  0  0  0  0
  1  2  1  0
  1 36  1  0
  1 37  1  0
  1 38  1  0
  2  3  2  0
  2  4  1  0
  4  5  1  0
  5 31  1  0
  5  6  1  0
  5 39  1  6
  6 32  1  0
  6  7  1  0
  6 40  1  6
  7  8  1  0
  7 41  1  0
  7 42  1  0
  8 34  1  0
  8  9  1  6
  8 10  1  0
  9 43  1  0
  9 44  1  0
  9 45  1  0
 10 17  1  0
 10 11  1  0
 10 46  1  1
 11 12  1  0
 12 13  1  0
 12 14  1  0
 12 15  1  0
 13 47  1  0
 13 48  1  0
 13 49  1  0
 14 50  1  0
 14 51  1  0
 14 52  1  0
 15 16  1  0
 16 17  1  0
 16 53  1  0
 16 54  1  0
 17 18  1  1
 17 19  1  0
 18 55  1  0
 18 56  1  0
 18 57  1  0
 19 20  1  0
 20 34  1  0
 20 21  1  0
 20 58  1  1
 21 22  1  0
 21 59  1  0
 21 60  1  0
 22 23  1  0
 22 61  1  0
 22 62  1  0
 23 24  1  0
 23 34  1  0
 23 63  1  6
 24 25  2  0
 24 26  1  0
 26 27  1  0
 26 64  1  0
 26 65  1  0
 27 32  1  0
 27 28  2  0
 28 29  1  0
 28 66  1  0
 29 30  2  0
 29 31  1  0
 31 32  1  0
 31 67  1  6
 32 33  1  1
 33 68  1  0
 33 69  1  0
 33 70  1  0
 34 35  1  6
 35 71  1  0
 35 72  1  0
 35 73  1  0
M  END
>  <i_m_ct_stereo_status>  (100) 
1

>  <s_m_source_file>  (100) 
/var/tmp/pbs.5076255.sched01/tmpfev35gxg/05fxellcm.sdf

>  <i_m_source_file_index>  (100) 
42

>  <i_lp_mmshare_version>  (100) 
48012

>  <i_f3d_flags>  (100) 
0

>  <s_epik_input>  (100) 
W0NIM11DKD1PKU9bQ0BASF0oW0NAQEhdMUMoPU8pW0NIXTIpW0NASF0oW0NIMl0zKVtDQEBdMShbQ0gzXSlDPTJbQ0gyXUMoPU8pW0NAQEhdKFtDSDJdW0NIMl00KVtDQF01KFtDSDNdKVtDQEhdNE9bQ0BAXShbQ0gzXSkoW0NASF02W0NAQF0zNVtDSDNdKVtDSDJdT0MoTzYpKFtDSDNdKVtDSDNd

>  <s_epik_cmdline>  (100) 
J2VwaWtfcHl0aG9uJywgJy1waHQnLCAnMi4wJywgJy1waCcsICc3LjAnLCAnLXRuJywgJzgnLCAnLW1hJywgJzIwMCcsICctaW1hZScsICc8aW5maWxlLm1hZT4nLCAnLW9tYWUnLCAnPG91dGZpbGUubWFlPic=

>  <r_lp_tautomer_probability>  (100) 
1

>  <r_epik_Ionization_Penalty>  (100) 
7.85982e-12

>  <r_epik_Ionization_Penalty_Charging>  (100) 
0

>  <r_epik_Ionization_Penalty_Neutral>  (100) 
7.85982e-12

>  <r_epik_State_Penalty>  (100) 
-0

>  <r_epik_Charging_Adjusted_Penalty>  (100) 
0

>  <i_epik_Tot_Q>  (100) 
0

>  <i_epik_Tot_abs_Q>  (100) 
0

>  <s_epik_Chemistry_Notes>  (100) 
This compound has an ester and may undergo hydrolysis at high or low pH.

>  <s_lp_Force_Field>  (100) 
OPLS3e

>  <r_lp_Energy>  (100) 
83.6711

>  <b_lp_Chiralities_Consistent>  (100) 
1

>  <s_lp_Variant>  (100) 
27:0-1

>  <s_i_glide_gridfile>  (100) 
pfpi4k_grid

>  <i_i_glide_lignum>  (100) 
42

>  <i_i_glide_rotatable_bonds>  (100) 
2

>  <r_i_docking_score>  (100) 
-2.34774

>  <r_i_glide_ligand_efficiency>  (100) 
-0.0670783

>  <r_i_glide_ligand_efficiency_sa>  (100) 
-0.219418

>  <r_i_glide_ligand_efficiency_ln>  (100) 
-0.515381

>  <r_i_glide_gscore>  (100) 
-2.34774

>  <r_i_glide_lipo>  (100) 
-0.168377

>  <r_i_glide_hbond>  (100) 
-0.159715

>  <r_i_glide_metal>  (100) 
-0

>  <r_i_glide_rewards>  (100) 
-0.270181

>  <r_i_glide_evdw>  (100) 
-21.6243

>  <r_i_glide_ecoul>  (100) 
-4.75347

>  <r_i_glide_erotb>  (100) 
0.0858335

>  <r_i_glide_esite>  (100) 
-0.041068

>  <r_i_glide_emodel>  (100) 
-27.4726

>  <r_i_glide_energy>  (100) 
-26.3777

>  <r_i_glide_einternal>  (100) 
6.01619

>  <r_i_glide_intrahb_reward>  (100) 
-0

>  <i_i_glide_confnum>  (100) 
3

>  <i_i_glide_posenum>  (100) 
1

>  <r_i_glide_eff_state_penalty>  (100) 
0

>  <ligand_id>  (100) 
27

>  <original_smiles>  (100) 
CC(=O)OC1C2CC3(C)C4OC(C)(C)OCC4(C)OC4CCC(C(=O)CC5=CC(=O)C1C52C)C43C

>  <smiles>  (100) 
[H]C1=C2C([H])([H])C(=O)C3([H])C([H])([H])C([H])([H])C4([H])OC5(C([H])([H])[H])C([H])([H])OC(C([H])([H])[H])(C([H])([H])[H])OC5([H])C(C([H])([H])[H])(C([H])([H])C5([H])C([H])(OC(=O)C([H])([H])[H])C([H])(C1=O)C25C([H])([H])[H])C43C([H])([H])[H]

$$$$
28:0:0
     RDKit          3D

 23 25  0  0  1  0  0  0  0  0999 V2000
    2.9294    0.1824   -5.1076 C   0  0  0  0  0  0  0  0  0  0  0  0
    3.2255   -0.8102   -4.0333 C   0  0  0  0  0  0  0  0  0  0  0  0
    2.6117   -2.0348   -3.8856 C   0  0  0  0  0  0  0  0  0  0  0  0
    3.2539   -2.8948   -2.5324 S   0  0  0  0  0  0  0  0  0  0  0  0
    4.3369   -1.5435   -2.1967 C   0  0  0  0  0  0  0  0  0  0  0  0
    5.2801   -1.5294   -1.1630 N   0  0  0  0  0  0  0  0  0  0  0  0
    5.8516   -2.6131   -0.4947 C   0  0  0  0  0  0  0  0  0  0  0  0
    7.1482   -2.6808   -0.1516 N   0  0  0  0  0  0  0  0  0  0  0  0
    7.4245   -3.9141    0.4491 C   0  0  0  0  0  0  0  0  0  0  0  0
    8.6378   -4.3072    0.8694 N   0  0  0  0  0  0  0  0  0  0  0  0
    8.6588   -5.5139    1.4538 C   0  0  0  0  0  0  0  0  0  0  0  0
    7.6575   -6.3881    1.6043 N   0  0  0  0  0  0  0  0  0  0  0  0
    6.4511   -6.0198    1.1523 C   0  0  0  0  0  0  0  0  0  0  0  0
    6.2864   -4.7597    0.5938 C   0  0  0  0  0  0  0  0  0  0  0  0
    4.8429   -3.9613    0.0347 S   0  0  0  0  0  0  0  0  0  0  0  0
    4.1704   -0.5319   -3.0547 N   0  0  0  0  0  0  0  0  0  0  0  0
    2.1101   -0.1699   -5.7268 H   0  0  0  0  0  0  0  0  0  0  0  0
    3.8052    0.3380   -5.7410 H   0  0  0  0  0  0  0  0  0  0  0  0
    2.6357    1.1389   -4.6758 H   0  0  0  0  0  0  0  0  0  0  0  0
    1.7951   -2.4588   -4.4417 H   0  0  0  0  0  0  0  0  0  0  0  0
    9.5995   -5.8322    1.8574 H   0  0  0  0  0  0  0  0  0  0  0  0
    5.6145   -6.6988    1.2457 H   0  0  0  0  0  0  0  0  0  0  0  0
    5.6794   -0.6313   -0.9704 H   0  0  0  0  0  0  0  0  0  0  0  0
  1  2  1  0
  1 17  1  0
  1 18  1  0
  1 19  1  0
  2 16  1  0
  2  3  2  0
  3  4  1  0
  3 20  1  0
  4  5  1  0
  5  6  1  0
  5 16  2  0
  6  7  1  0
  6 23  1  0
  7 15  1  0
  7  8  2  0
  8  9  1  0
  9 14  2  0
  9 10  1  0
 10 11  2  0
 11 12  1  0
 11 21  1  0
 12 13  2  0
 13 14  1  0
 13 22  1  0
 14 15  1  0
M  END
>  <i_m_ct_stereo_status>  (101) 
1

>  <s_m_source_file>  (101) 
/var/tmp/pbs.5076255.sched01/tmpfev35gxg/05fxellcm.sdf

>  <i_m_source_file_index>  (101) 
43

>  <i_lp_mmshare_version>  (101) 
48012

>  <i_f3d_flags>  (101) 
0

>  <s_epik_input>  (101) 
W0NIM11jMVtjSF1zL2MoW25IXTEpPU5cYyhuMilzYyhjMjMpW2NIXW5bY0hdbjM=

>  <s_epik_cmdline>  (101) 
J2VwaWtfcHl0aG9uJywgJy1waHQnLCAnMi4wJywgJy1waCcsICc3LjAnLCAnLXRuJywgJzgnLCAnLW1hJywgJzIwMCcsICctaW1hZScsICc8aW5maWxlLm1hZT4nLCAnLW9tYWUnLCAnPG91dGZpbGUubWFlPic=

>  <r_epik_Ionization_Penalty>  (101) 
0.00924667

>  <r_epik_Ionization_Penalty_Charging>  (101) 
0

>  <r_epik_Ionization_Penalty_Neutral>  (101) 
0.00924667

>  <r_epik_State_Penalty>  (101) 
8.93054e-06

>  <r_epik_Charging_Adjusted_Penalty>  (101) 
8.93054e-06

>  <i_epik_Tot_Q>  (101) 
0

>  <i_epik_Tot_abs_Q>  (101) 
0

>  <s_lp_Force_Field>  (101) 
OPLS3e

>  <r_lp_Energy>  (101) 
7.5976

>  <b_lp_Chiralities_Consistent>  (101) 
1

>  <s_lp_Variant>  (101) 
28:0-1

>  <s_i_glide_gridfile>  (101) 
pfpi4k_grid

>  <i_i_glide_lignum>  (101) 
43

>  <i_i_glide_rotatable_bonds>  (101) 
2

>  <r_i_docking_score>  (101) 
-3.86645

>  <r_i_glide_ligand_efficiency>  (101) 
-0.241653

>  <r_i_glide_ligand_efficiency_sa>  (101) 
-0.608928

>  <r_i_glide_ligand_efficiency_ln>  (101) 
-1.02488

>  <r_i_glide_gscore>  (101) 
-3.86645

>  <r_i_glide_lipo>  (101) 
-0.64716

>  <r_i_glide_hbond>  (101) 
0

>  <r_i_glide_metal>  (101) 
-0

>  <r_i_glide_rewards>  (101) 
-1.92537

>  <r_i_glide_evdw>  (101) 
-28.5639

>  <r_i_glide_ecoul>  (101) 
-2.38286

>  <r_i_glide_erotb>  (101) 
0.562631

>  <r_i_glide_esite>  (101) 
-0.07093

>  <r_i_glide_emodel>  (101) 
-33.6258

>  <r_i_glide_energy>  (101) 
-30.9467

>  <r_i_glide_einternal>  (101) 
7.63094

>  <r_i_glide_intrahb_reward>  (101) 
-0

>  <i_i_glide_confnum>  (101) 
6

>  <i_i_glide_posenum>  (101) 
23

>  <r_i_glide_eff_state_penalty>  (101) 
0

>  <ligand_id>  (101) 
28

>  <original_smiles>  (101) 
Cc1csc(=Nc2nc3ncncc3s2)[nH]1

>  <smiles>  (101) 
[H]c1nc([H])c2sc(N([H])c3nc(C([H])([H])[H])c([H])s3)nc2n1

$$$$
28:0:1
     RDKit          3D

 23 25  0  0  1  0  0  0  0  0999 V2000
    2.9741   -0.0641   -5.4169 C   0  0  0  0  0  0  0  0  0  0  0  0
    3.5291   -0.5934   -4.1370 C   0  0  0  0  0  0  0  0  0  0  0  0
    4.1704    0.1432   -3.1781 C   0  0  0  0  0  0  0  0  0  0  0  0
    4.6151   -0.8292   -1.8056 S   0  0  0  0  0  0  0  0  0  0  0  0
    3.9684   -2.2221   -2.6282 C   0  0  0  0  0  0  0  0  0  0  0  0
    3.9570   -3.4608   -2.0266 N   0  0  0  0  0  0  0  0  0  0  0  0
    4.8604   -3.9456   -1.0872 C   0  0  0  0  0  0  0  0  0  0  0  0
    6.1041   -3.4699   -0.9205 N   0  0  0  0  0  0  0  0  0  0  0  0
    6.7485   -4.1743    0.0880 C   0  0  0  0  0  0  0  0  0  0  0  0
    8.0189   -3.9424    0.4463 N   0  0  0  0  0  0  0  0  0  0  0  0
    8.4652   -4.7429    1.4167 C   0  0  0  0  0  0  0  0  0  0  0  0
    7.8250   -5.7160    2.0647 N   0  0  0  0  0  0  0  0  0  0  0  0
    6.5529   -5.9597    1.7130 C   0  0  0  0  0  0  0  0  0  0  0  0
    5.9680   -5.1894    0.7058 C   0  0  0  0  0  0  0  0  0  0  0  0
    4.3626   -5.2439    0.0155 S   0  0  0  0  0  0  0  0  0  0  0  0
    3.4169   -1.9448   -3.8114 N   0  0  0  0  0  0  0  0  0  0  0  0
    3.1863    0.9937   -5.5542 H   0  0  0  0  0  0  0  0  0  0  0  0
    1.8935   -0.2053   -5.4451 H   0  0  0  0  0  0  0  0  0  0  0  0
    3.4123   -0.6071   -6.2474 H   0  0  0  0  0  0  0  0  0  0  0  0
    4.3523    1.2086   -3.1832 H   0  0  0  0  0  0  0  0  0  0  0  0
    9.4731   -4.5598    1.7449 H   0  0  0  0  0  0  0  0  0  0  0  0
    6.0026   -6.7446    2.2080 H   0  0  0  0  0  0  0  0  0  0  0  0
    3.2524   -4.1123   -2.3526 H   0  0  0  0  0  0  0  0  0  0  0  0
  1  2  1  0
  1 17  1  0
  1 18  1  0
  1 19  1  0
  2 16  1  0
  2  3  2  0
  3  4  1  0
  3 20  1  0
  4  5  1  0
  5  6  1  0
  5 16  2  0
  6  7  1  0
  6 23  1  0
  7 15  1  0
  7  8  2  0
  8  9  1  0
  9 14  2  0
  9 10  1  0
 10 11  2  0
 11 12  1  0
 11 21  1  0
 12 13  2  0
 13 14  1  0
 13 22  1  0
 14 15  1  0
M  END
>  <i_m_ct_stereo_status>  (102) 
1

>  <s_m_source_file>  (102) 
/var/tmp/pbs.5076255.sched01/tmpfev35gxg/05fxellcm.sdf

>  <i_m_source_file_index>  (102) 
43

>  <i_lp_mmshare_version>  (102) 
48012

>  <i_f3d_flags>  (102) 
0

>  <s_epik_input>  (102) 
W0NIM11jMVtjSF1zL2MoW25IXTEpPU5cYyhuMilzYyhjMjMpW2NIXW5bY0hdbjM=

>  <s_epik_cmdline>  (102) 
J2VwaWtfcHl0aG9uJywgJy1waHQnLCAnMi4wJywgJy1waCcsICc3LjAnLCAnLXRuJywgJzgnLCAnLW1hJywgJzIwMCcsICctaW1hZScsICc8aW5maWxlLm1hZT4nLCAnLW9tYWUnLCAnPG91dGZpbGUubWFlPic=

>  <r_epik_Ionization_Penalty>  (102) 
0.00924667

>  <r_epik_Ionization_Penalty_Charging>  (102) 
0

>  <r_epik_Ionization_Penalty_Neutral>  (102) 
0.00924667

>  <r_epik_State_Penalty>  (102) 
8.93054e-06

>  <r_epik_Charging_Adjusted_Penalty>  (102) 
8.93054e-06

>  <i_epik_Tot_Q>  (102) 
0

>  <i_epik_Tot_abs_Q>  (102) 
0

>  <s_lp_Force_Field>  (102) 
OPLS3e

>  <r_lp_Energy>  (102) 
7.5976

>  <b_lp_Chiralities_Consistent>  (102) 
1

>  <s_lp_Variant>  (102) 
28:0-1

>  <s_i_glide_gridfile>  (102) 
pfpi4k_grid

>  <i_i_glide_lignum>  (102) 
43

>  <i_i_glide_rotatable_bonds>  (102) 
2

>  <r_i_docking_score>  (102) 
-3.84287

>  <r_i_glide_ligand_efficiency>  (102) 
-0.240179

>  <r_i_glide_ligand_efficiency_sa>  (102) 
-0.605214

>  <r_i_glide_ligand_efficiency_ln>  (102) 
-1.01863

>  <r_i_glide_gscore>  (102) 
-3.84287

>  <r_i_glide_lipo>  (102) 
-0.564849

>  <r_i_glide_hbond>  (102) 
-0.262024

>  <r_i_glide_metal>  (102) 
-0

>  <r_i_glide_rewards>  (102) 
-1.86701

>  <r_i_glide_evdw>  (102) 
-23.8548

>  <r_i_glide_ecoul>  (102) 
-3.27766

>  <r_i_glide_erotb>  (102) 
0.562631

>  <r_i_glide_esite>  (102) 
-0.0272293

>  <r_i_glide_emodel>  (102) 
-32.3557

>  <r_i_glide_energy>  (102) 
-27.1325

>  <r_i_glide_einternal>  (102) 
4.70235

>  <r_i_glide_intrahb_reward>  (102) 
-0

>  <i_i_glide_confnum>  (102) 
3

>  <i_i_glide_posenum>  (102) 
28

>  <r_i_glide_eff_state_penalty>  (102) 
0

>  <ligand_id>  (102) 
28

>  <original_smiles>  (102) 
Cc1csc(=Nc2nc3ncncc3s2)[nH]1

>  <smiles>  (102) 
[H]c1nc([H])c2sc(N([H])c3nc(C([H])([H])[H])c([H])s3)nc2n1

$$$$
28:0:2
     RDKit          3D

 23 25  0  0  1  0  0  0  0  0999 V2000
    2.4798   -2.3917   -3.6465 C   0  0  0  0  0  0  0  0  0  0  0  0
    3.4941   -2.4557   -2.5526 C   0  0  0  0  0  0  0  0  0  0  0  0
    4.5818   -1.6390   -2.3568 C   0  0  0  0  0  0  0  0  0  0  0  0
    5.5085   -2.1305   -0.9622 S   0  0  0  0  0  0  0  0  0  0  0  0
    4.3446   -3.4153   -0.6776 C   0  0  0  0  0  0  0  0  0  0  0  0
    4.5056   -4.3022    0.3816 N   0  0  0  0  0  0  0  0  0  0  0  0
    3.6032   -5.2655    0.8225 C   0  0  0  0  0  0  0  0  0  0  0  0
    2.2899   -5.2867    0.5409 N   0  0  0  0  0  0  0  0  0  0  0  0
    1.6844   -6.3649    1.1742 C   0  0  0  0  0  0  0  0  0  0  0  0
    0.3668   -6.6126    1.0889 N   0  0  0  0  0  0  0  0  0  0  0  0
   -0.0214   -7.7125    1.7506 C   0  0  0  0  0  0  0  0  0  0  0  0
    0.7068   -8.5435    2.4980 N   0  0  0  0  0  0  0  0  0  0  0  0
    2.0252   -8.2949    2.5946 C   0  0  0  0  0  0  0  0  0  0  0  0
    2.5618   -7.1852    1.9339 C   0  0  0  0  0  0  0  0  0  0  0  0
    4.2017   -6.5635    1.8576 S   0  0  0  0  0  0  0  0  0  0  0  0
    3.3631   -3.4424   -1.5790 N   0  0  0  0  0  0  0  0  0  0  0  0
    2.6614   -1.5686   -4.3357 H   0  0  0  0  0  0  0  0  0  0  0  0
    1.4883   -2.2640   -3.2249 H   0  0  0  0  0  0  0  0  0  0  0  0
    2.4584   -3.3180   -4.2171 H   0  0  0  0  0  0  0  0  0  0  0  0
    4.8948   -0.7876   -2.9431 H   0  0  0  0  0  0  0  0  0  0  0  0
   -1.0716   -7.9491    1.6898 H   0  0  0  0  0  0  0  0  0  0  0  0
    2.6400   -8.9522    3.1948 H   0  0  0  0  0  0  0  0  0  0  0  0
    5.3995   -4.2813    0.8513 H   0  0  0  0  0  0  0  0  0  0  0  0
  1  2  1  0
  1 17  1  0
  1 18  1  0
  1 19  1  0
  2 16  1  0
  2  3  2  0
  3  4  1  0
  3 20  1  0
  4  5  1  0
  5  6  1  0
  5 16  2  0
  6  7  1  0
  6 23  1  0
  7 15  1  0
  7  8  2  0
  8  9  1  0
  9 14  2  0
  9 10  1  0
 10 11  2  0
 11 12  1  0
 11 21  1  0
 12 13  2  0
 13 14  1  0
 13 22  1  0
 14 15  1  0
M  END
>  <i_m_ct_stereo_status>  (103) 
1

>  <s_m_source_file>  (103) 
/var/tmp/pbs.5076255.sched01/tmpfev35gxg/05fxellcm.sdf

>  <i_m_source_file_index>  (103) 
43

>  <i_lp_mmshare_version>  (103) 
48012

>  <i_f3d_flags>  (103) 
0

>  <s_epik_input>  (103) 
W0NIM11jMVtjSF1zL2MoW25IXTEpPU5cYyhuMilzYyhjMjMpW2NIXW5bY0hdbjM=

>  <s_epik_cmdline>  (103) 
J2VwaWtfcHl0aG9uJywgJy1waHQnLCAnMi4wJywgJy1waCcsICc3LjAnLCAnLXRuJywgJzgnLCAnLW1hJywgJzIwMCcsICctaW1hZScsICc8aW5maWxlLm1hZT4nLCAnLW9tYWUnLCAnPG91dGZpbGUubWFlPic=

>  <r_epik_Ionization_Penalty>  (103) 
0.00924667

>  <r_epik_Ionization_Penalty_Charging>  (103) 
0

>  <r_epik_Ionization_Penalty_Neutral>  (103) 
0.00924667

>  <r_epik_State_Penalty>  (103) 
8.93054e-06

>  <r_epik_Charging_Adjusted_Penalty>  (103) 
8.93054e-06

>  <i_epik_Tot_Q>  (103) 
0

>  <i_epik_Tot_abs_Q>  (103) 
0

>  <s_lp_Force_Field>  (103) 
OPLS3e

>  <r_lp_Energy>  (103) 
7.5976

>  <b_lp_Chiralities_Consistent>  (103) 
1

>  <s_lp_Variant>  (103) 
28:0-1

>  <s_i_glide_gridfile>  (103) 
pfpi4k_grid

>  <i_i_glide_lignum>  (103) 
43

>  <i_i_glide_rotatable_bonds>  (103) 
2

>  <r_i_docking_score>  (103) 
-3.21706

>  <r_i_glide_ligand_efficiency>  (103) 
-0.201066

>  <r_i_glide_ligand_efficiency_sa>  (103) 
-0.506655

>  <r_i_glide_ligand_efficiency_ln>  (103) 
-0.852745

>  <r_i_glide_gscore>  (103) 
-3.21706

>  <r_i_glide_lipo>  (103) 
-0.361792

>  <r_i_glide_hbond>  (103) 
-0.15655

>  <r_i_glide_metal>  (103) 
-0

>  <r_i_glide_rewards>  (103) 
-1.7092

>  <r_i_glide_evdw>  (103) 
-24.8011

>  <r_i_glide_ecoul>  (103) 
-1.21533

>  <r_i_glide_erotb>  (103) 
0.562631

>  <r_i_glide_esite>  (103) 
-0.129789

>  <r_i_glide_emodel>  (103) 
-31.9516

>  <r_i_glide_energy>  (103) 
-26.0165

>  <r_i_glide_einternal>  (103) 
0.945399

>  <r_i_glide_intrahb_reward>  (103) 
-0

>  <i_i_glide_confnum>  (103) 
1

>  <i_i_glide_posenum>  (103) 
2

>  <r_i_glide_eff_state_penalty>  (103) 
0

>  <ligand_id>  (103) 
28

>  <original_smiles>  (103) 
Cc1csc(=Nc2nc3ncncc3s2)[nH]1

>  <smiles>  (103) 
[H]c1nc([H])c2sc(N([H])c3nc(C([H])([H])[H])c([H])s3)nc2n1

$$$$
29:0:0
     RDKit          3D

 80 89  0  0  1  0  0  0  0  0999 V2000
   -1.4249    2.1456    5.2154 C   0  0  0  0  0  0  0  0  0  0  0  0
   -0.3180    2.2509    4.4536 C   0  0  0  0  0  0  0  0  0  0  0  0
    0.1973    3.5477    4.0038 C   0  0  0  0  0  0  0  0  0  0  0  0
   -0.3467    4.6437    4.1573 O   0  0  0  0  0  0  0  0  0  0  0  0
    1.3472    3.3317    3.3669 O   0  0  0  0  0  0  0  0  0  0  0  0
    1.8597    2.0126    3.4810 C   0  0  1  0  0  0  0  0  0  0  0  0
    3.1311    2.1475    4.3103 C   0  0  1  0  0  0  0  0  0  0  0  0
    3.0895    2.2801    5.7410 O   0  0  0  0  0  0  0  0  0  0  0  0
    3.7251    1.0946    5.2223 C   0  0  1  0  0  0  0  0  0  0  0  0
    3.1535   -0.2955    5.5159 C   0  0  2  0  0  0  0  0  0  0  0  0
    3.8907   -1.3913    4.6045 C   0  0  1  0  0  0  0  0  0  0  0  0
    3.4566   -2.8785    4.8728 C   0  0  1  0  0  0  0  0  0  0  0  0
    3.2488   -3.2542    6.3590 C   0  0  0  0  0  0  0  0  0  0  0  0
    1.8850   -2.8350    6.8774 C   0  0  0  0  0  0  0  0  0  0  0  0
    1.0912   -3.7423    7.5717 N   0  0  0  0  0  0  0  0  0  0  0  0
   -0.2451   -3.2857    7.7323 N   0  0  0  0  0  0  0  0  0  0  0  0
   -1.0920   -4.0699    6.8072 C   0  0  0  0  0  0  0  0  0  0  0  0
   -0.1058   -1.8929    7.3317 C   0  0  0  0  0  0  0  0  0  0  0  0
    1.2220   -1.7067    6.6429 C   0  0  0  0  0  0  0  0  0  0  0  0
    1.6001   -0.3910    5.8904 C   0  0  1  0  0  0  0  0  0  0  0  0
    1.2079    0.7029    6.9428 C   0  0  0  0  0  0  0  0  0  0  0  0
    0.6792   -0.2265    4.6410 C   0  0  2  0  0  0  0  0  0  0  0  0
    0.5194   -1.4813    3.7109 C   0  0  0  0  0  0  0  0  0  0  0  0
    1.7059   -2.2514    3.0352 C   0  0  2  0  0  0  0  0  0  0  0  0
    2.3080   -3.4190    3.9254 C   0  0  1  0  0  0  0  0  0  0  0  0
    2.6901   -4.6750    3.1887 N   0  0  0  0  0  0  0  0  0  0  0  0
    3.8373   -4.9449    2.5276 C   0  0  0  0  0  0  0  0  0  0  0  0
    4.0390   -6.0204    1.8917 N   0  0  0  0  0  0  0  0  0  0  0  0
    2.9554   -6.7387    2.3054 C   0  0  0  0  0  0  0  0  0  0  0  0
    2.6051   -8.0702    2.0750 C   0  0  0  0  0  0  0  0  0  0  0  0
    3.3451   -8.8681    1.3030 N   0  0  0  0  0  0  0  0  0  0  0  0
    1.4887   -8.5035    2.6697 N   0  0  0  0  0  0  0  0  0  0  0  0
    0.7746   -7.6809    3.4547 C   0  0  0  0  0  0  0  0  0  0  0  0
    0.9671   -6.3967    3.7531 N   0  0  0  0  0  0  0  0  0  0  0  0
    2.0934   -5.9389    3.1397 C   0  0  0  0  0  0  0  0  0  0  0  0
    2.7455   -1.3157    2.3087 C   0  0  2  0  0  0  0  0  0  0  0  0
    2.8750   -1.6751    0.8723 N   0  0  0  0  0  0  0  0  0  0  0  0
    3.8887   -2.3044    0.3022 C   0  0  0  0  0  0  0  0  0  0  0  0
    3.8441   -2.6618   -0.8858 O   0  0  0  0  0  0  0  0  0  0  0  0
    5.0055   -2.6190    1.1644 C   0  0  0  0  0  0  0  0  0  0  0  0
    5.1033   -2.1176    2.4198 C   0  0  0  0  0  0  0  0  0  0  0  0
    4.1139   -1.1608    3.0370 C   0  0  2  0  0  0  0  0  0  0  0  0
    4.8660    0.1274    2.6416 C   0  0  0  0  0  0  0  0  0  0  0  0
    0.6152    1.1779    3.9161 C   0  0  1  0  0  0  0  0  0  0  0  0
    3.0688   -9.8335    1.1567 H   0  0  0  0  0  0  0  0  0  0  0  0
   -1.8109    1.1984    5.5486 H   0  0  0  0  0  0  0  0  0  0  0  0
   -1.9722    3.0275    5.5233 H   0  0  0  0  0  0  0  0  0  0  0  0
    2.1530    1.7065    2.4812 H   0  0  0  0  0  0  0  0  0  0  0  0
    3.8405    2.8372    3.8630 H   0  0  0  0  0  0  0  0  0  0  0  0
    4.8020    1.1436    5.3633 H   0  0  0  0  0  0  0  0  0  0  0  0
    3.5783   -0.4838    6.5020 H   0  0  0  0  0  0  0  0  0  0  0  0
    4.9005   -1.3409    5.0139 H   0  0  0  0  0  0  0  0  0  0  0  0
    4.3665   -3.4343    4.6405 H   0  0  0  0  0  0  0  0  0  0  0  0
    3.3291   -4.3409    6.4404 H   0  0  0  0  0  0  0  0  0  0  0  0
    4.0454   -2.8509    6.9842 H   0  0  0  0  0  0  0  0  0  0  0  0
   -2.1102   -3.6845    6.9012 H   0  0  0  0  0  0  0  0  0  0  0  0
   -1.1155   -5.1204    7.0834 H   0  0  0  0  0  0  0  0  0  0  0  0
   -0.7967   -3.9681    5.7631 H   0  0  0  0  0  0  0  0  0  0  0  0
   -0.9572   -1.5832    6.7326 H   0  0  0  0  0  0  0  0  0  0  0  0
   -0.1194   -1.3339    8.2671 H   0  0  0  0  0  0  0  0  0  0  0  0
    1.1242    1.7121    6.5563 H   0  0  0  0  0  0  0  0  0  0  0  0
    1.9141    0.7337    7.7725 H   0  0  0  0  0  0  0  0  0  0  0  0
    0.2178    0.5751    7.3750 H   0  0  0  0  0  0  0  0  0  0  0  0
   -0.3161   -0.2583    5.0812 H   0  0  0  0  0  0  0  0  0  0  0  0
   -0.0777   -2.2213    4.2475 H   0  0  0  0  0  0  0  0  0  0  0  0
   -0.1609   -1.1795    2.9191 H   0  0  0  0  0  0  0  0  0  0  0  0
    1.1650   -2.7617    2.2449 H   0  0  0  0  0  0  0  0  0  0  0  0
    1.4848   -3.7655    4.5437 H   0  0  0  0  0  0  0  0  0  0  0  0
    4.7047   -4.4014    2.7263 H   0  0  0  0  0  0  0  0  0  0  0  0
    4.1971   -8.5259    0.8669 H   0  0  0  0  0  0  0  0  0  0  0  0
   -0.0966   -8.1169    3.8963 H   0  0  0  0  0  0  0  0  0  0  0  0
    2.2760   -0.3328    2.2722 H   0  0  0  0  0  0  0  0  0  0  0  0
    2.1155   -1.3834    0.2707 H   0  0  0  0  0  0  0  0  0  0  0  0
    5.6126   -3.4767    0.8956 H   0  0  0  0  0  0  0  0  0  0  0  0
    5.8559   -2.5552    3.0748 H   0  0  0  0  0  0  0  0  0  0  0  0
    4.1957    0.9427    2.4853 H   0  0  0  0  0  0  0  0  0  0  0  0
    5.3709    0.0321    1.6781 H   0  0  0  0  0  0  0  0  0  0  0  0
    5.6477    0.3737    3.3576 H   0  0  0  0  0  0  0  0  0  0  0  0
    0.1274    0.9648    2.9624 H   0  0  0  0  0  0  0  0  0  0  0  0
    1.5062   -4.1000    8.4270 H   0  0  0  0  0  0  0  0  0  0  0  0
  1  2  2  0
  1 46  1  0
  1 47  1  0
  2 44  1  0
  2  3  1  0
  3  4  2  0
  3  5  1  0
  5  6  1  0
  6 44  1  0
  6  7  1  0
  6 48  1  6
  7  9  1  0
  7  8  1  0
  7 49  1  6
  8  9  1  0
  9 10  1  0
  9 50  1  6
 10 20  1  0
 10 11  1  0
 10 51  1  1
 11 42  1  0
 11 12  1  0
 11 52  1  1
 12 25  1  0
 12 13  1  0
 12 53  1  6
 13 14  1  0
 13 54  1  0
 13 55  1  0
 14 19  2  0
 14 15  1  0
 15 16  1  0
 15 80  1  0
 16 17  1  0
 16 18  1  0
 17 56  1  0
 17 57  1  0
 17 58  1  0
 18 19  1  0
 18 59  1  0
 18 60  1  0
 19 20  1  0
 20 21  1  1
 20 22  1  0
 21 61  1  0
 21 62  1  0
 21 63  1  0
 22 23  1  0
 22 44  1  0
 22 64  1  1
 23 24  1  0
 23 65  1  0
 23 66  1  0
 24 25  1  0
 24 36  1  0
 24 67  1  6
 25 68  1  1
 25 26  1  0
 26 27  1  0
 26 35  1  0
 27 28  2  0
 27 69  1  0
 28 29  1  0
 29 30  1  0
 29 35  2  0
 30 32  2  0
 30 31  1  0
 31 70  1  0
 31 45  1  0
 32 33  1  0
 33 71  1  0
 33 34  2  0
 34 35  1  0
 36 42  1  0
 36 37  1  0
 36 72  1  6
 37 38  1  0
 37 73  1  0
 38 39  2  0
 38 40  1  0
 40 41  2  0
 40 74  1  0
 41 42  1  0
 41 75  1  0
 42 43  1  1
 43 76  1  0
 43 77  1  0
 43 78  1  0
 44 79  1  6
M  END
>  <i_m_ct_stereo_status>  (104) 
1

>  <s_m_source_file>  (104) 
/var/tmp/pbs.5076255.sched01/tmpfev35gxg/05fxellcm.sdf

>  <i_m_source_file_index>  (104) 
44

>  <i_lp_mmshare_version>  (104) 
48012

>  <i_f3d_flags>  (104) 
0

>  <s_epik_input>  (104) 
W0NIM11bQ0BAXTEyW0NASF0zW0NASF00W0NASF0oTzQpW0NASF01W0NASF0oQyg9W0NIMl0pQyg9TylPNSlbQ0BIXTJbQ0gyXVtDQEhdNltDQEhdN1tDQF0oW0NIM10pKFtDSF09W0NIXUMoPU8pW05IXTcpW0NAQEhdM1tDQEBIXShbQ0gyXUM9OFtDQEBIXTFbQ0gyXU4oTjgpW0NIM10pW0NAQEhdNm4oW2NIXW45KWMoYzE5KW5bY0hdW25IXWNcMT1OL1tIXQ==

>  <s_epik_cmdline>  (104) 
J2VwaWtfcHl0aG9uJywgJy1waHQnLCAnMi4wJywgJy1waCcsICc3LjAnLCAnLXRuJywgJzgnLCAnLW1hJywgJzIwMCcsICctaW1hZScsICc8aW5maWxlLm1hZT4nLCAnLW9tYWUnLCAnPG91dGZpbGUubWFlPic=

>  <r_lp_tautomer_probability>  (104) 
0.999997

>  <r_epik_Ionization_Penalty>  (104) 
0.0267271

>  <r_epik_Ionization_Penalty_Charging>  (104) 
0

>  <r_epik_Ionization_Penalty_Neutral>  (104) 
0.0267271

>  <r_epik_State_Penalty>  (104) 
0.224004

>  <r_epik_Charging_Adjusted_Penalty>  (104) 
0.224004

>  <i_epik_Tot_Q>  (104) 
0

>  <i_epik_Tot_abs_Q>  (104) 
0

>  <s_epik_Chemistry_Notes>  (104) 
This compound has an ester and may undergo hydrolysis at high or low pH.

>  <s_lp_Force_Field>  (104) 
OPLS3e

>  <r_lp_Energy>  (104) 
114.135

>  <b_lp_Chiralities_Consistent>  (104) 
1

>  <s_lp_Variant>  (104) 
29:0-1

>  <s_i_glide_gridfile>  (104) 
pfpi4k_grid

>  <i_i_glide_lignum>  (104) 
44

>  <i_i_glide_rotatable_bonds>  (104) 
1

>  <r_i_docking_score>  (104) 
-1.99433

>  <r_i_glide_ligand_efficiency>  (104) 
-0.0453257

>  <r_i_glide_ligand_efficiency_sa>  (104) 
-0.160015

>  <r_i_glide_ligand_efficiency_ln>  (104) 
-0.416858

>  <r_i_glide_gscore>  (104) 
-1.99433

>  <r_i_glide_lipo>  (104) 
-0.176236

>  <r_i_glide_hbond>  (104) 
-0.16

>  <r_i_glide_metal>  (104) 
-0

>  <r_i_glide_rewards>  (104) 
0

>  <r_i_glide_evdw>  (104) 
-29.5888

>  <r_i_glide_ecoul>  (104) 
-3.71892

>  <r_i_glide_erotb>  (104) 
0.0589375

>  <r_i_glide_esite>  (104) 
-0.214779

>  <r_i_glide_emodel>  (104) 
-32.3086

>  <r_i_glide_energy>  (104) 
-33.3077

>  <r_i_glide_einternal>  (104) 
0.608801

>  <r_i_glide_intrahb_reward>  (104) 
-0

>  <i_i_glide_confnum>  (104) 
1

>  <i_i_glide_posenum>  (104) 
6

>  <r_i_glide_eff_state_penalty>  (104) 
0

>  <ligand_id>  (104) 
29

>  <original_smiles>  (104) 
C=C1C(=O)OC2C3OC3C3C4C5CC6=NN(C)CC6C3(C)C(CC(C5n3cnc5c(=N)[nH]cnc53)C3NC(=O)C=CC34C)C12

>  <smiles>  (104) 
[H]C([H])=C1C(=O)OC2([H])C3([H])OC3([H])C3([H])C4([H])C5([H])C([H])([H])C6=C(C([H])([H])N(C([H])([H])[H])N6[H])C3(C([H])([H])[H])C([H])(C([H])([H])C([H])(C3([H])N([H])C(=O)C([H])=C([H])C34C([H])([H])[H])C5([H])n3c([H])nc4c(N([H])[H])nc([H])nc43)C12[H]

$$$$
29:0:1
     RDKit          3D

 80 89  0  0  1  0  0  0  0  0999 V2000
   -1.8545    4.5493   12.0384 C   0  0  0  0  0  0  0  0  0  0  0  0
   -1.2273    5.4270   11.2506 C   0  0  0  0  0  0  0  0  0  0  0  0
   -1.3010    6.8664   11.4896 C   0  0  0  0  0  0  0  0  0  0  0  0
   -1.9765    7.4406   12.3355 O   0  0  0  0  0  0  0  0  0  0  0  0
   -0.5141    7.4752   10.5881 O   0  0  0  0  0  0  0  0  0  0  0  0
    0.3035    6.5864    9.8276 C   0  0  1  0  0  0  0  0  0  0  0  0
    1.7350    6.8730   10.2786 C   0  0  1  0  0  0  0  0  0  0  0  0
    2.2430    6.3230   11.4819 O   0  0  0  0  0  0  0  0  0  0  0  0
    2.8871    5.8905   10.2862 C   0  0  1  0  0  0  0  0  0  0  0  0
    2.8519    4.4031    9.8849 C   0  0  2  0  0  0  0  0  0  0  0  0
    3.3832    4.2346    8.3797 C   0  0  1  0  0  0  0  0  0  0  0  0
    3.4713    2.7644    7.8594 C   0  0  1  0  0  0  0  0  0  0  0  0
    3.9907    1.7573    8.9098 C   0  0  0  0  0  0  0  0  0  0  0  0
    2.8945    1.3040    9.8338 C   0  0  0  0  0  0  0  0  0  0  0  0
    2.7576   -0.0406   10.0714 N   0  0  0  0  0  0  0  0  0  0  0  0
    1.5485   -0.3578   10.7746 N   0  0  0  0  0  0  0  0  0  0  0  0
    0.6072   -0.9470    9.8098 C   0  0  0  0  0  0  0  0  0  0  0  0
    1.1212    0.9773   11.2060 C   0  0  0  0  0  0  0  0  0  0  0  0
    1.9320    1.9941   10.4344 C   0  0  0  0  0  0  0  0  0  0  0  0
    1.6646    3.5185   10.4868 C   0  0  1  0  0  0  0  0  0  0  0  0
    1.5155    3.7680   12.0191 C   0  0  0  0  0  0  0  0  0  0  0  0
    0.3205    3.8154    9.7744 C   0  0  2  0  0  0  0  0  0  0  0  0
    0.0944    3.1469    8.3634 C   0  0  0  0  0  0  0  0  0  0  0  0
    1.0332    3.3265    7.1311 C   0  0  2  0  0  0  0  0  0  0  0  0
    2.2132    2.2883    7.0574 C   0  0  1  0  0  0  0  0  0  0  0  0
    2.5639    1.8091    5.6730 N   0  0  0  0  0  0  0  0  0  0  0  0
    2.0041    2.2980    4.4843 C   0  0  0  0  0  0  0  0  0  0  0  0
    2.5098    1.7379    3.4112 N   0  0  0  0  0  0  0  0  0  0  0  0
    3.3808    0.7885    3.8765 C   0  0  0  0  0  0  0  0  0  0  0  0
    4.1611   -0.1907    3.1878 C   0  0  0  0  0  0  0  0  0  0  0  0
    4.1751   -0.2770    1.8433 N   0  0  0  0  0  0  0  0  0  0  0  0
    4.8850   -1.0833    3.9187 N   0  0  0  0  0  0  0  0  0  0  0  0
    4.8262   -0.9980    5.2515 C   0  0  0  0  0  0  0  0  0  0  0  0
    4.1474   -0.1103    6.0159 N   0  0  0  0  0  0  0  0  0  0  0  0
    3.4232    0.7819    5.2816 C   0  0  0  0  0  0  0  0  0  0  0  0
    1.4082    4.8187    6.8607 C   0  0  2  0  0  0  0  0  0  0  0  0
    1.0297    5.2452    5.5178 N   0  0  0  0  0  0  0  0  0  0  0  0
    1.8288    5.3706    4.4219 C   0  0  0  0  0  0  0  0  0  0  0  0
    1.3809    5.7740    3.3816 O   0  0  0  0  0  0  0  0  0  0  0  0
    3.2187    5.0416    4.6829 C   0  0  0  0  0  0  0  0  0  0  0  0
    3.7161    4.9764    5.9437 C   0  0  0  0  0  0  0  0  0  0  0  0
    2.8860    5.1825    7.2067 C   0  0  2  0  0  0  0  0  0  0  0  0
    3.0527    6.7155    7.4171 C   0  0  0  0  0  0  0  0  0  0  0  0
   -0.3909    5.2072    9.9998 C   0  0  1  0  0  0  0  0  0  0  0  0
    4.7159   -1.0046    1.3762 H   0  0  0  0  0  0  0  0  0  0  0  0
   -1.8300    3.4786   11.8746 H   0  0  0  0  0  0  0  0  0  0  0  0
   -2.4317    4.8745   12.9010 H   0  0  0  0  0  0  0  0  0  0  0  0
    0.2136    6.9173    8.7899 H   0  0  0  0  0  0  0  0  0  0  0  0
    2.0162    7.9085   10.1369 H   0  0  0  0  0  0  0  0  0  0  0  0
    3.8619    6.3377   10.1645 H   0  0  0  0  0  0  0  0  0  0  0  0
    3.7108    4.0263   10.4663 H   0  0  0  0  0  0  0  0  0  0  0  0
    4.4217    4.5484    8.4844 H   0  0  0  0  0  0  0  0  0  0  0  0
    4.2914    2.7765    7.1465 H   0  0  0  0  0  0  0  0  0  0  0  0
    4.3893    0.8817    8.3918 H   0  0  0  0  0  0  0  0  0  0  0  0
    4.8440    2.1682    9.4643 H   0  0  0  0  0  0  0  0  0  0  0  0
   -0.3602   -1.1291   10.2772 H   0  0  0  0  0  0  0  0  0  0  0  0
    0.9826   -1.9005    9.4281 H   0  0  0  0  0  0  0  0  0  0  0  0
    0.4539   -0.2694    8.9676 H   0  0  0  0  0  0  0  0  0  0  0  0
    0.0471    1.1397   11.0774 H   0  0  0  0  0  0  0  0  0  0  0  0
    1.3716    1.0839   12.2661 H   0  0  0  0  0  0  0  0  0  0  0  0
    1.0252    4.6925   12.2881 H   0  0  0  0  0  0  0  0  0  0  0  0
    2.4739    3.7309   12.5377 H   0  0  0  0  0  0  0  0  0  0  0  0
    0.8513    3.0625   12.5062 H   0  0  0  0  0  0  0  0  0  0  0  0
   -0.3519    3.1728   10.3441 H   0  0  0  0  0  0  0  0  0  0  0  0
   -0.0250    2.0762    8.5344 H   0  0  0  0  0  0  0  0  0  0  0  0
   -0.9138    3.4236    8.0495 H   0  0  0  0  0  0  0  0  0  0  0  0
    0.3638    3.0246    6.3424 H   0  0  0  0  0  0  0  0  0  0  0  0
    1.8531    1.3744    7.5220 H   0  0  0  0  0  0  0  0  0  0  0  0
    1.2090    3.0482    4.3780 H   0  0  0  0  0  0  0  0  0  0  0  0
    3.6109    0.3737    1.3199 H   0  0  0  0  0  0  0  0  0  0  0  0
    5.4381   -1.7232    5.7744 H   0  0  0  0  0  0  0  0  0  0  0  0
    0.7522    5.4191    7.4905 H   0  0  0  0  0  0  0  0  0  0  0  0
    0.0643    5.4329    5.3339 H   0  0  0  0  0  0  0  0  0  0  0  0
    3.8662    4.9078    3.8324 H   0  0  0  0  0  0  0  0  0  0  0  0
    4.7503    4.6972    6.0820 H   0  0  0  0  0  0  0  0  0  0  0  0
    2.2055    7.1777    7.9024 H   0  0  0  0  0  0  0  0  0  0  0  0
    3.1096    7.2504    6.4693 H   0  0  0  0  0  0  0  0  0  0  0  0
    3.9728    6.9425    7.9495 H   0  0  0  0  0  0  0  0  0  0  0  0
   -1.1720    5.2309    9.2512 H   0  0  0  0  0  0  0  0  0  0  0  0
    3.5941   -0.5570   10.3197 H   0  0  0  0  0  0  0  0  0  0  0  0
  1  2  2  0
  1 46  1  0
  1 47  1  0
  2 44  1  0
  2  3  1  0
  3  4  2  0
  3  5  1  0
  5  6  1  0
  6 44  1  0
  6  7  1  0
  6 48  1  6
  7  9  1  0
  7  8  1  0
  7 49  1  1
  8  9  1  0
  9 10  1  0
  9 50  1  1
 10 20  1  0
 10 11  1  0
 10 51  1  1
 11 42  1  0
 11 12  1  0
 11 52  1  1
 12 25  1  0
 12 13  1  0
 12 53  1  6
 13 14  1  0
 13 54  1  0
 13 55  1  0
 14 19  2  0
 14 15  1  0
 15 16  1  0
 15 80  1  0
 16 17  1  0
 16 18  1  0
 17 56  1  0
 17 57  1  0
 17 58  1  0
 18 19  1  0
 18 59  1  0
 18 60  1  0
 19 20  1  0
 20 21  1  1
 20 22  1  0
 21 61  1  0
 21 62  1  0
 21 63  1  0
 22 23  1  0
 22 44  1  0
 22 64  1  1
 23 24  1  0
 23 65  1  0
 23 66  1  0
 24 25  1  0
 24 36  1  0
 24 67  1  6
 25 68  1  1
 25 26  1  0
 26 27  1  0
 26 35  1  0
 27 28  2  0
 27 69  1  0
 28 29  1  0
 29 30  1  0
 29 35  2  0
 30 32  2  0
 30 31  1  0
 31 70  1  0
 31 45  1  0
 32 33  1  0
 33 71  1  0
 33 34  2  0
 34 35  1  0
 36 42  1  0
 36 37  1  0
 36 72  1  1
 37 38  1  0
 37 73  1  0
 38 39  2  0
 38 40  1  0
 40 41  2  0
 40 74  1  0
 41 42  1  0
 41 75  1  0
 42 43  1  1
 43 76  1  0
 43 77  1  0
 43 78  1  0
 44 79  1  6
M  END
>  <i_m_ct_stereo_status>  (105) 
1

>  <s_m_source_file>  (105) 
/var/tmp/pbs.5076255.sched01/tmpfev35gxg/05fxellcm.sdf

>  <i_m_source_file_index>  (105) 
44

>  <i_lp_mmshare_version>  (105) 
48012

>  <i_f3d_flags>  (105) 
0

>  <s_epik_input>  (105) 
W0NIM11bQ0BAXTEyW0NASF0zW0NASF00W0NASF0oTzQpW0NASF01W0NASF0oQyg9W0NIMl0pQyg9TylPNSlbQ0BIXTJbQ0gyXVtDQEhdNltDQEhdN1tDQF0oW0NIM10pKFtDSF09W0NIXUMoPU8pW05IXTcpW0NAQEhdM1tDQEBIXShbQ0gyXUM9OFtDQEBIXTFbQ0gyXU4oTjgpW0NIM10pW0NAQEhdNm4oW2NIXW45KWMoYzE5KW5bY0hdW25IXWNcMT1OL1tIXQ==

>  <s_epik_cmdline>  (105) 
J2VwaWtfcHl0aG9uJywgJy1waHQnLCAnMi4wJywgJy1waCcsICc3LjAnLCAnLXRuJywgJzgnLCAnLW1hJywgJzIwMCcsICctaW1hZScsICc8aW5maWxlLm1hZT4nLCAnLW9tYWUnLCAnPG91dGZpbGUubWFlPic=

>  <r_lp_tautomer_probability>  (105) 
0.999997

>  <r_epik_Ionization_Penalty>  (105) 
0.0267271

>  <r_epik_Ionization_Penalty_Charging>  (105) 
0

>  <r_epik_Ionization_Penalty_Neutral>  (105) 
0.0267271

>  <r_epik_State_Penalty>  (105) 
0.224004

>  <r_epik_Charging_Adjusted_Penalty>  (105) 
0.224004

>  <i_epik_Tot_Q>  (105) 
0

>  <i_epik_Tot_abs_Q>  (105) 
0

>  <s_epik_Chemistry_Notes>  (105) 
This compound has an ester and may undergo hydrolysis at high or low pH.

>  <s_lp_Force_Field>  (105) 
OPLS3e

>  <r_lp_Energy>  (105) 
114.135

>  <b_lp_Chiralities_Consistent>  (105) 
1

>  <s_lp_Variant>  (105) 
29:0-1

>  <s_i_glide_gridfile>  (105) 
pfpi4k_grid

>  <i_i_glide_lignum>  (105) 
44

>  <i_i_glide_rotatable_bonds>  (105) 
1

>  <r_i_docking_score>  (105) 
-0.826813

>  <r_i_glide_ligand_efficiency>  (105) 
-0.0187912

>  <r_i_glide_ligand_efficiency_sa>  (105) 
-0.0663395

>  <r_i_glide_ligand_efficiency_ln>  (105) 
-0.172822

>  <r_i_glide_gscore>  (105) 
-0.826813

>  <r_i_glide_lipo>  (105) 
-0.0271752

>  <r_i_glide_hbond>  (105) 
0

>  <r_i_glide_metal>  (105) 
-0

>  <r_i_glide_rewards>  (105) 
-0.0576081

>  <r_i_glide_evdw>  (105) 
-21.2214

>  <r_i_glide_ecoul>  (105) 
1.93396

>  <r_i_glide_erotb>  (105) 
0.0589375

>  <r_i_glide_esite>  (105) 
-0.0299923

>  <r_i_glide_emodel>  (105) 
-18.3435

>  <r_i_glide_energy>  (105) 
-19.2874

>  <r_i_glide_einternal>  (105) 
0.751734

>  <r_i_glide_intrahb_reward>  (105) 
-0

>  <i_i_glide_confnum>  (105) 
1

>  <i_i_glide_posenum>  (105) 
32

>  <r_i_glide_eff_state_penalty>  (105) 
0

>  <ligand_id>  (105) 
29

>  <original_smiles>  (105) 
C=C1C(=O)OC2C3OC3C3C4C5CC6=NN(C)CC6C3(C)C(CC(C5n3cnc5c(=N)[nH]cnc53)C3NC(=O)C=CC34C)C12

>  <smiles>  (105) 
[H]C([H])=C1C(=O)OC2([H])C3([H])OC3([H])C3([H])C4([H])C5([H])C([H])([H])C6=C(C([H])([H])N(C([H])([H])[H])N6[H])C3(C([H])([H])[H])C([H])(C([H])([H])C([H])(C3([H])N([H])C(=O)C([H])=C([H])C34C([H])([H])[H])C5([H])n3c([H])nc4c(N([H])[H])nc([H])nc43)C12[H]

$$$$
29:0:2
     RDKit          3D

 80 89  0  0  1  0  0  0  0  0999 V2000
   -2.3988    3.0728   10.0997 C   0  0  0  0  0  0  0  0  0  0  0  0
   -1.7640    3.6424    9.0588 C   0  0  0  0  0  0  0  0  0  0  0  0
   -1.7370    5.0920    8.8662 C   0  0  0  0  0  0  0  0  0  0  0  0
   -2.3493    5.9371    9.5124 O   0  0  0  0  0  0  0  0  0  0  0  0
   -0.9632    5.3529    7.8135 O   0  0  0  0  0  0  0  0  0  0  0  0
   -0.2069    4.2461    7.3471 C   0  0  1  0  0  0  0  0  0  0  0  0
    1.2562    4.5906    7.6507 C   0  0  1  0  0  0  0  0  0  0  0  0
    1.8005    4.4223    8.9647 O   0  0  0  0  0  0  0  0  0  0  0  0
    2.3626    3.6033    7.9241 C   0  0  1  0  0  0  0  0  0  0  0  0
    2.2249    2.0696    7.9679 C   0  0  2  0  0  0  0  0  0  0  0  0
    2.7056    1.4374    6.5753 C   0  0  1  0  0  0  0  0  0  0  0  0
    2.7156   -0.1270    6.5089 C   0  0  1  0  0  0  0  0  0  0  0  0
    3.2368   -0.8392    7.7755 C   0  0  0  0  0  0  0  0  0  0  0  0
    2.1835   -0.9447    8.8607 C   0  0  0  0  0  0  0  0  0  0  0  0
    1.9542   -2.1755    9.4810 N   0  0  0  0  0  0  0  0  0  0  0  0
    0.7414   -2.1672   10.2223 N   0  0  0  0  0  0  0  0  0  0  0  0
   -0.2746   -2.9600    9.5087 C   0  0  0  0  0  0  0  0  0  0  0  0
    0.4337   -0.7459   10.2692 C   0  0  0  0  0  0  0  0  0  0  0  0
    1.2748   -0.0377    9.2324 C   0  0  0  0  0  0  0  0  0  0  0  0
    1.0326    1.4498    8.8332 C   0  0  1  0  0  0  0  0  0  0  0  0
    0.9360    2.1501   10.2361 C   0  0  0  0  0  0  0  0  0  0  0  0
   -0.3479    1.5790    8.1153 C   0  0  2  0  0  0  0  0  0  0  0  0
   -0.6564    0.5436    6.9730 C   0  0  0  0  0  0  0  0  0  0  0  0
    0.2557    0.3100    5.7175 C   0  0  2  0  0  0  0  0  0  0  0  0
    1.3930   -0.7715    5.9308 C   0  0  1  0  0  0  0  0  0  0  0  0
    1.6346   -1.6995    4.7921 N   0  0  0  0  0  0  0  0  0  0  0  0
    2.3091   -1.4586    3.6486 C   0  0  0  0  0  0  0  0  0  0  0  0
    2.4995   -2.2793    2.6935 N   0  0  0  0  0  0  0  0  0  0  0  0
    1.9389   -3.3594    3.2792 C   0  0  0  0  0  0  0  0  0  0  0  0
    1.8209   -4.6762    2.8208 C   0  0  0  0  0  0  0  0  0  0  0  0
    2.2512   -5.0571    1.6094 N   0  0  0  0  0  0  0  0  0  0  0  0
    1.2306   -5.5626    3.6467 N   0  0  0  0  0  0  0  0  0  0  0  0
    0.8167   -5.1648    4.8602 C   0  0  0  0  0  0  0  0  0  0  0  0
    0.8601   -3.9519    5.4229 N   0  0  0  0  0  0  0  0  0  0  0  0
    1.4207   -3.0553    4.5852 C   0  0  0  0  0  0  0  0  0  0  0  0
    0.6851    1.6282    4.9882 C   0  0  2  0  0  0  0  0  0  0  0  0
    0.2665    1.6111    3.5788 N   0  0  0  0  0  0  0  0  0  0  0  0
    1.0286    1.4096    2.4897 C   0  0  0  0  0  0  0  0  0  0  0  0
    0.5777    1.3308    1.3712 O   0  0  0  0  0  0  0  0  0  0  0  0
    2.4652    1.3063    2.7644 C   0  0  0  0  0  0  0  0  0  0  0  0
    2.9932    1.5418    3.9659 C   0  0  0  0  0  0  0  0  0  0  0  0
    2.1938    2.0233    5.1790 C   0  0  2  0  0  0  0  0  0  0  0  0
    2.4500    3.5234    4.9319 C   0  0  0  0  0  0  0  0  0  0  0  0
   -0.9726    3.0179    7.9190 C   0  0  1  0  0  0  0  0  0  0  0  0
    2.1603   -6.0180    1.3164 H   0  0  0  0  0  0  0  0  0  0  0  0
   -2.4191    2.0076   10.2531 H   0  0  0  0  0  0  0  0  0  0  0  0
   -2.9157    3.6704   10.8410 H   0  0  0  0  0  0  0  0  0  0  0  0
   -0.3175    4.2437    6.2684 H   0  0  0  0  0  0  0  0  0  0  0  0
    1.5597    5.5352    7.1969 H   0  0  0  0  0  0  0  0  0  0  0  0
    3.3744    3.9250    7.6702 H   0  0  0  0  0  0  0  0  0  0  0  0
    3.0561    1.8232    8.6228 H   0  0  0  0  0  0  0  0  0  0  0  0
    3.7671    1.7042    6.5810 H   0  0  0  0  0  0  0  0  0  0  0  0
    3.5244   -0.3295    5.8098 H   0  0  0  0  0  0  0  0  0  0  0  0
    3.5395   -1.8508    7.4960 H   0  0  0  0  0  0  0  0  0  0  0  0
    4.1343   -0.3607    8.1713 H   0  0  0  0  0  0  0  0  0  0  0  0
   -1.1970   -2.9128   10.0936 H   0  0  0  0  0  0  0  0  0  0  0  0
    0.0190   -4.0064    9.4455 H   0  0  0  0  0  0  0  0  0  0  0  0
   -0.4878   -2.5846    8.5061 H   0  0  0  0  0  0  0  0  0  0  0  0
   -0.6356   -0.5918   10.1607 H   0  0  0  0  0  0  0  0  0  0  0  0
    0.7054   -0.4371   11.2790 H   0  0  0  0  0  0  0  0  0  0  0  0
    0.5119    3.1464   10.2272 H   0  0  0  0  0  0  0  0  0  0  0  0
    1.9117    2.2197   10.7180 H   0  0  0  0  0  0  0  0  0  0  0  0
    0.2701    1.6521   10.9396 H   0  0  0  0  0  0  0  0  0  0  0  0
   -1.0317    1.1708    8.8564 H   0  0  0  0  0  0  0  0  0  0  0  0
   -0.8008   -0.4306    7.4399 H   0  0  0  0  0  0  0  0  0  0  0  0
   -1.6602    0.7676    6.6062 H   0  0  0  0  0  0  0  0  0  0  0  0
   -0.4857   -0.1634    5.0731 H   0  0  0  0  0  0  0  0  0  0  0  0
    0.9970   -1.4796    6.6416 H   0  0  0  0  0  0  0  0  0  0  0  0
    2.9457   -0.6858    3.6354 H   0  0  0  0  0  0  0  0  0  0  0  0
    2.6983   -4.3903    0.9891 H   0  0  0  0  0  0  0  0  0  0  0  0
    0.3680   -5.9318    5.4698 H   0  0  0  0  0  0  0  0  0  0  0  0
    0.0879    2.4216    5.4160 H   0  0  0  0  0  0  0  0  0  0  0  0
   -0.7156    1.8007    3.3794 H   0  0  0  0  0  0  0  0  0  0  0  0
    3.0099    0.6757    2.0644 H   0  0  0  0  0  0  0  0  0  0  0  0
    4.0145    1.1907    4.1421 H   0  0  0  0  0  0  0  0  0  0  0  0
    1.6514    4.1474    5.2820 H   0  0  0  0  0  0  0  0  0  0  0  0
    2.5070    3.7712    3.8658 H   0  0  0  0  0  0  0  0  0  0  0  0
    3.3977    3.8512    5.3574 H   0  0  0  0  0  0  0  0  0  0  0  0
   -1.7689    2.8631    7.1865 H   0  0  0  0  0  0  0  0  0  0  0  0
    2.7099   -2.5596   10.0440 H   0  0  0  0  0  0  0  0  0  0  0  0
  1  2  2  0
  1 46  1  0
  1 47  1  0
  2 44  1  0
  2  3  1  0
  3  4  2  0
  3  5  1  0
  5  6  1  0
  6 44  1  0
  6  7  1  0
  6 48  1  6
  7  9  1  0
  7  8  1  0
  7 49  1  6
  8  9  1  0
  9 10  1  0
  9 50  1  6
 10 20  1  0
 10 11  1  0
 10 51  1  1
 11 42  1  0
 11 12  1  0
 11 52  1  6
 12 25  1  0
 12 13  1  0
 12 53  1  6
 13 14  1  0
 13 54  1  0
 13 55  1  0
 14 19  2  0
 14 15  1  0
 15 16  1  0
 15 80  1  0
 16 17  1  0
 16 18  1  0
 17 56  1  0
 17 57  1  0
 17 58  1  0
 18 19  1  0
 18 59  1  0
 18 60  1  0
 19 20  1  0
 20 21  1  1
 20 22  1  0
 21 61  1  0
 21 62  1  0
 21 63  1  0
 22 23  1  0
 22 44  1  0
 22 64  1  1
 23 24  1  0
 23 65  1  0
 23 66  1  0
 24 25  1  0
 24 36  1  0
 24 67  1  6
 25 68  1  1
 25 26  1  0
 26 27  1  0
 26 35  1  0
 27 28  2  0
 27 69  1  0
 28 29  1  0
 29 30  1  0
 29 35  2  0
 30 32  2  0
 30 31  1  0
 31 70  1  0
 31 45  1  0
 32 33  1  0
 33 71  1  0
 33 34  2  0
 34 35  1  0
 36 42  1  0
 36 37  1  0
 36 72  1  1
 37 38  1  0
 37 73  1  0
 38 39  2  0
 38 40  1  0
 40 41  2  0
 40 74  1  0
 41 42  1  0
 41 75  1  0
 42 43  1  1
 43 76  1  0
 43 77  1  0
 43 78  1  0
 44 79  1  6
M  END
>  <i_m_ct_stereo_status>  (106) 
1

>  <s_m_source_file>  (106) 
/var/tmp/pbs.5076255.sched01/tmpfev35gxg/05fxellcm.sdf

>  <i_m_source_file_index>  (106) 
44

>  <i_lp_mmshare_version>  (106) 
48012

>  <i_f3d_flags>  (106) 
0

>  <s_epik_input>  (106) 
W0NIM11bQ0BAXTEyW0NASF0zW0NASF00W0NASF0oTzQpW0NASF01W0NASF0oQyg9W0NIMl0pQyg9TylPNSlbQ0BIXTJbQ0gyXVtDQEhdNltDQEhdN1tDQF0oW0NIM10pKFtDSF09W0NIXUMoPU8pW05IXTcpW0NAQEhdM1tDQEBIXShbQ0gyXUM9OFtDQEBIXTFbQ0gyXU4oTjgpW0NIM10pW0NAQEhdNm4oW2NIXW45KWMoYzE5KW5bY0hdW25IXWNcMT1OL1tIXQ==

>  <s_epik_cmdline>  (106) 
J2VwaWtfcHl0aG9uJywgJy1waHQnLCAnMi4wJywgJy1waCcsICc3LjAnLCAnLXRuJywgJzgnLCAnLW1hJywgJzIwMCcsICctaW1hZScsICc8aW5maWxlLm1hZT4nLCAnLW9tYWUnLCAnPG91dGZpbGUubWFlPic=

>  <r_lp_tautomer_probability>  (106) 
0.999997

>  <r_epik_Ionization_Penalty>  (106) 
0.0267271

>  <r_epik_Ionization_Penalty_Charging>  (106) 
0

>  <r_epik_Ionization_Penalty_Neutral>  (106) 
0.0267271

>  <r_epik_State_Penalty>  (106) 
0.224004

>  <r_epik_Charging_Adjusted_Penalty>  (106) 
0.224004

>  <i_epik_Tot_Q>  (106) 
0

>  <i_epik_Tot_abs_Q>  (106) 
0

>  <s_epik_Chemistry_Notes>  (106) 
This compound has an ester and may undergo hydrolysis at high or low pH.

>  <s_lp_Force_Field>  (106) 
OPLS3e

>  <r_lp_Energy>  (106) 
114.135

>  <b_lp_Chiralities_Consistent>  (106) 
1

>  <s_lp_Variant>  (106) 
29:0-1

>  <s_i_glide_gridfile>  (106) 
pfpi4k_grid

>  <i_i_glide_lignum>  (106) 
44

>  <i_i_glide_rotatable_bonds>  (106) 
1

>  <r_i_docking_score>  (106) 
-0.153269

>  <r_i_glide_ligand_efficiency>  (106) 
-0.00348338

>  <r_i_glide_ligand_efficiency_sa>  (106) 
-0.0122975

>  <r_i_glide_ligand_efficiency_ln>  (106) 
-0.0320365

>  <r_i_glide_gscore>  (106) 
-0.153269

>  <r_i_glide_lipo>  (106) 
-0.0141803

>  <r_i_glide_hbond>  (106) 
0

>  <r_i_glide_metal>  (106) 
-0

>  <r_i_glide_rewards>  (106) 
-0.0133569

>  <r_i_glide_evdw>  (106) 
-26.7249

>  <r_i_glide_ecoul>  (106) 
1.57452

>  <r_i_glide_erotb>  (106) 
0.0589375

>  <r_i_glide_esite>  (106) 
-0.115732

>  <r_i_glide_emodel>  (106) 
-19.3511

>  <r_i_glide_energy>  (106) 
-25.1504

>  <r_i_glide_einternal>  (106) 
0.44934

>  <r_i_glide_intrahb_reward>  (106) 
-0

>  <i_i_glide_confnum>  (106) 
1

>  <i_i_glide_posenum>  (106) 
5

>  <r_i_glide_eff_state_penalty>  (106) 
0

>  <ligand_id>  (106) 
29

>  <original_smiles>  (106) 
C=C1C(=O)OC2C3OC3C3C4C5CC6=NN(C)CC6C3(C)C(CC(C5n3cnc5c(=N)[nH]cnc53)C3NC(=O)C=CC34C)C12

>  <smiles>  (106) 
[H]C([H])=C1C(=O)OC2([H])C3([H])OC3([H])C3([H])C4([H])C5([H])C([H])([H])C6=C(C([H])([H])N(C([H])([H])[H])N6[H])C3(C([H])([H])[H])C([H])(C([H])([H])C([H])(C3([H])N([H])C(=O)C([H])=C([H])C34C([H])([H])[H])C5([H])n3c([H])nc4c(N([H])[H])nc([H])nc43)C12[H]

$$$$
29:1:0
     RDKit          3D

 80 89  0  0  1  0  0  0  0  0999 V2000
   -1.5766    2.2286    3.6666 C   0  0  0  0  0  0  0  0  0  0  0  0
   -0.3193    2.4873    4.0577 C   0  0  0  0  0  0  0  0  0  0  0  0
    0.0718    3.7690    4.6591 C   0  0  0  0  0  0  0  0  0  0  0  0
   -0.6881    4.6623    5.0323 O   0  0  0  0  0  0  0  0  0  0  0  0
    1.4041    3.7906    4.7586 O   0  0  0  0  0  0  0  0  0  0  0  0
    2.0281    2.6995    4.1016 C   0  0  1  0  0  0  0  0  0  0  0  0
    3.4902    2.4826    4.5634 C   0  0  1  0  0  0  0  0  0  0  0  0
    3.7096    2.3707    5.9690 O   0  0  0  0  0  0  0  0  0  0  0  0
    4.0716    1.2180    5.2105 C   0  0  1  0  0  0  0  0  0  0  0  0
    3.2087   -0.0438    5.1287 C   0  0  1  0  0  0  0  0  0  0  0  0
    3.9267   -1.2941    4.4747 C   0  0  1  0  0  0  0  0  0  0  0  0
    3.3481   -2.6955    4.8679 C   0  0  1  0  0  0  0  0  0  0  0  0
    3.2802   -2.9606    6.3886 C   0  0  0  0  0  0  0  0  0  0  0  0
    2.0211   -2.4092    7.0141 C   0  0  0  0  0  0  0  0  0  0  0  0
    1.2416   -3.2271    7.8075 N   0  0  0  0  0  0  0  0  0  0  0  0
    0.0565   -2.5797    8.2697 N   0  0  0  0  0  0  0  0  0  0  0  0
    0.3111   -2.1379    9.6586 C   0  0  0  0  0  0  0  0  0  0  0  0
    0.0062   -1.4561    7.3362 C   0  0  0  0  0  0  0  0  0  0  0  0
    1.3760   -1.2895    6.7144 C   0  0  0  0  0  0  0  0  0  0  0  0
    1.7854   -0.0473    5.8805 C   0  0  1  0  0  0  0  0  0  0  0  0
    1.6467    1.0642    6.9744 C   0  0  0  0  0  0  0  0  0  0  0  0
    0.7468    0.2414    4.7511 C   0  0  2  0  0  0  0  0  0  0  0  0
    0.4488   -1.0036    3.8233 C   0  0  0  0  0  0  0  0  0  0  0  0
    1.5353   -1.9659    3.1486 C   0  0  2  0  0  0  0  0  0  0  0  0
    2.0553   -3.1498    4.0702 C   0  0  1  0  0  0  0  0  0  0  0  0
    2.2259   -4.4706    3.4016 N   0  0  0  0  0  0  0  0  0  0  0  0
    3.3399   -4.9526    2.7451 C   0  0  0  0  0  0  0  0  0  0  0  0
    3.2280   -6.0732    2.1473 N   0  0  0  0  0  0  0  0  0  0  0  0
    2.0616   -6.5779    2.6422 C   0  0  0  0  0  0  0  0  0  0  0  0
    1.4864   -7.8535    2.5168 C   0  0  0  0  0  0  0  0  0  0  0  0
    2.0533   -8.8177    1.7770 N   0  0  0  0  0  0  0  0  0  0  0  0
    0.3410   -8.0810    3.1956 N   0  0  0  0  0  0  0  0  0  0  0  0
   -0.1787   -7.1081    3.9525 C   0  0  0  0  0  0  0  0  0  0  0  0
    0.2401   -5.8482    4.1408 N   0  0  0  0  0  0  0  0  0  0  0  0
    1.3963   -5.6160    3.4514 C   0  0  0  0  0  0  0  0  0  0  0  0
    2.6401   -1.2694    2.2440 C   0  0  2  0  0  0  0  0  0  0  0  0
    2.6734   -1.8013    0.8854 N   0  0  0  0  0  0  0  0  0  0  0  0
    3.5498   -2.5828    0.2841 C   0  0  0  0  0  0  0  0  0  0  0  0
    3.3402   -3.0822   -0.8038 O   0  0  0  0  0  0  0  0  0  0  0  0
    4.7316   -2.8784    1.1101 C   0  0  0  0  0  0  0  0  0  0  0  0
    4.9431   -2.2851    2.2907 C   0  0  0  0  0  0  0  0  0  0  0  0
    4.0752   -1.1931    2.8891 C   0  0  2  0  0  0  0  0  0  0  0  0
    4.8339    0.0610    2.4237 C   0  0  0  0  0  0  0  0  0  0  0  0
    0.9040    1.6021    3.9198 C   0  0  1  0  0  0  0  0  0  0  0  0
    1.6002   -9.7212    1.6892 H   0  0  0  0  0  0  0  0  0  0  0  0
   -1.8396    1.2995    3.1852 H   0  0  0  0  0  0  0  0  0  0  0  0
   -2.3650    2.9566    3.7890 H   0  0  0  0  0  0  0  0  0  0  0  0
    2.1573    3.0938    3.0928 H   0  0  0  0  0  0  0  0  0  0  0  0
    4.1942    3.1707    4.1043 H   0  0  0  0  0  0  0  0  0  0  0  0
    5.1456    1.0767    5.1389 H   0  0  0  0  0  0  0  0  0  0  0  0
    2.8509    0.2437    4.1681 H   0  0  0  0  0  0  0  0  0  0  0  0
    4.9338   -1.2663    4.8953 H   0  0  0  0  0  0  0  0  0  0  0  0
    4.1625   -3.3576    4.5832 H   0  0  0  0  0  0  0  0  0  0  0  0
    3.3319   -4.0429    6.5431 H   0  0  0  0  0  0  0  0  0  0  0  0
    4.1545   -2.5490    6.8888 H   0  0  0  0  0  0  0  0  0  0  0  0
   -0.5516   -1.5766   10.0168 H   0  0  0  0  0  0  0  0  0  0  0  0
    1.1752   -1.4752    9.7347 H   0  0  0  0  0  0  0  0  0  0  0  0
    0.4472   -2.9848   10.3306 H   0  0  0  0  0  0  0  0  0  0  0  0
   -0.6774   -1.7376    6.5378 H   0  0  0  0  0  0  0  0  0  0  0  0
   -0.3849   -0.5705    7.8239 H   0  0  0  0  0  0  0  0  0  0  0  0
    1.5543    2.0734    6.5966 H   0  0  0  0  0  0  0  0  0  0  0  0
    2.4783    1.0367    7.6785 H   0  0  0  0  0  0  0  0  0  0  0  0
    0.7528    1.0048    7.5801 H   0  0  0  0  0  0  0  0  0  0  0  0
   -0.1892    0.3782    5.2883 H   0  0  0  0  0  0  0  0  0  0  0  0
   -0.2316   -1.6510    4.3720 H   0  0  0  0  0  0  0  0  0  0  0  0
   -0.1852   -0.6327    3.0226 H   0  0  0  0  0  0  0  0  0  0  0  0
    0.8846   -2.4892    2.4548 H   0  0  0  0  0  0  0  0  0  0  0  0
    1.2397   -3.3001    4.7963 H   0  0  0  0  0  0  0  0  0  0  0  0
    4.3093   -4.5070    2.8363 H   0  0  0  0  0  0  0  0  0  0  0  0
    2.9300   -8.6318    1.2869 H   0  0  0  0  0  0  0  0  0  0  0  0
   -1.0740   -7.3707    4.4709 H   0  0  0  0  0  0  0  0  0  0  0  0
    2.2991   -0.2497    2.0816 H   0  0  0  0  0  0  0  0  0  0  0  0
    1.8653   -1.5499    0.3035 H   0  0  0  0  0  0  0  0  0  0  0  0
    5.3424   -3.7236    0.8288 H   0  0  0  0  0  0  0  0  0  0  0  0
    5.7691   -2.6326    2.9063 H   0  0  0  0  0  0  0  0  0  0  0  0
    4.2267    0.9421    2.5499 H   0  0  0  0  0  0  0  0  0  0  0  0
    5.0740   -0.0065    1.3614 H   0  0  0  0  0  0  0  0  0  0  0  0
    5.7868    0.1523    2.9495 H   0  0  0  0  0  0  0  0  0  0  0  0
    0.9432    1.3257    2.8674 H   0  0  0  0  0  0  0  0  0  0  0  0
    1.1716   -4.1871    7.4994 H   0  0  0  0  0  0  0  0  0  0  0  0
  1  2  2  0
  1 46  1  0
  1 47  1  0
  2 44  1  0
  2  3  1  0
  3  4  2  0
  3  5  1  0
  5  6  1  0
  6 44  1  0
  6  7  1  0
  6 48  1  6
  7  9  1  0
  7  8  1  0
  7 49  1  6
  8  9  1  0
  9 10  1  0
  9 50  1  6
 10 20  1  0
 10 11  1  0
 10 51  1  6
 11 42  1  0
 11 12  1  0
 11 52  1  1
 12 25  1  0
 12 13  1  0
 12 53  1  6
 13 14  1  0
 13 54  1  0
 13 55  1  0
 14 19  2  0
 14 15  1  0
 15 16  1  0
 15 80  1  0
 16 17  1  0
 16 18  1  0
 17 56  1  0
 17 57  1  0
 17 58  1  0
 18 19  1  0
 18 59  1  0
 18 60  1  0
 19 20  1  0
 20 21  1  1
 20 22  1  0
 21 61  1  0
 21 62  1  0
 21 63  1  0
 22 23  1  0
 22 44  1  0
 22 64  1  1
 23 24  1  0
 23 65  1  0
 23 66  1  0
 24 25  1  0
 24 36  1  0
 24 67  1  6
 25 68  1  1
 25 26  1  0
 26 27  1  0
 26 35  1  0
 27 28  2  0
 27 69  1  0
 28 29  1  0
 29 30  1  0
 29 35  2  0
 30 32  2  0
 30 31  1  0
 31 70  1  0
 31 45  1  0
 32 33  1  0
 33 71  1  0
 33 34  2  0
 34 35  1  0
 36 42  1  0
 36 37  1  0
 36 72  1  6
 37 38  1  0
 37 73  1  0
 38 39  2  0
 38 40  1  0
 40 41  2  0
 40 74  1  0
 41 42  1  0
 41 75  1  0
 42 43  1  1
 43 76  1  0
 43 77  1  0
 43 78  1  0
 44 79  1  6
M  END
>  <i_m_ct_stereo_status>  (107) 
1

>  <s_m_source_file>  (107) 
/var/tmp/pbs.5076255.sched01/tmp2obefojl/44ql_32cm2.sdf

>  <i_m_source_file_index>  (107) 
1

>  <i_lp_mmshare_version>  (107) 
48012

>  <i_f3d_flags>  (107) 
0

>  <s_epik_input>  (107) 
W0NIM11bQ0BAXTEyW0NASF0zW0NASF00W0NASF0oTzQpW0NASF01W0NASF0oQyg9W0NIMl0pQyg9TylPNSlbQ0BIXTJbQ0gyXVtDQEhdNltDQEhdN1tDQF0oW0NIM10pKFtDSF09W0NIXUMoPU8pW05IXTcpW0NAQEhdM1tDQEBIXShbQ0gyXUM9OFtDQEBIXTFbQ0gyXU4oTjgpW0NIM10pW0NAQEhdNm4oW2NIXW45KWMoYzE5KW5bY0hdW25IXWNcMT1OL1tIXQ==

>  <s_epik_cmdline>  (107) 
J2VwaWtfcHl0aG9uJywgJy1waHQnLCAnMi4wJywgJy1waCcsICc3LjAnLCAnLXRuJywgJzgnLCAnLW1hJywgJzIwMCcsICctaW1hZScsICc8aW5maWxlLm1hZT4nLCAnLW9tYWUnLCAnPG91dGZpbGUubWFlPic=

>  <r_lp_tautomer_probability>  (107) 
0.999997

>  <r_epik_Ionization_Penalty>  (107) 
0.0267271

>  <r_epik_Ionization_Penalty_Charging>  (107) 
0

>  <r_epik_Ionization_Penalty_Neutral>  (107) 
0.0267271

>  <r_epik_State_Penalty>  (107) 
0.224004

>  <r_epik_Charging_Adjusted_Penalty>  (107) 
0.224004

>  <i_epik_Tot_Q>  (107) 
0

>  <i_epik_Tot_abs_Q>  (107) 
0

>  <s_epik_Chemistry_Notes>  (107) 
This compound has an ester and may undergo hydrolysis at high or low pH.

>  <s_lp_Force_Field>  (107) 
OPLS3e

>  <r_lp_Energy>  (107) 
136.897

>  <b_lp_Chiralities_Consistent>  (107) 
1

>  <s_lp_Variant>  (107) 
29:0-2

>  <s_i_glide_gridfile>  (107) 
pfpi4k_grid

>  <i_i_glide_lignum>  (107) 
1

>  <i_i_glide_rotatable_bonds>  (107) 
1

>  <r_i_docking_score>  (107) 
-2.73237

>  <r_i_glide_ligand_efficiency>  (107) 
-0.0620993

>  <r_i_glide_ligand_efficiency_sa>  (107) 
-0.219232

>  <r_i_glide_ligand_efficiency_ln>  (107) 
-0.571125

>  <r_i_glide_gscore>  (107) 
-2.73237

>  <r_i_glide_lipo>  (107) 
-0.153578

>  <r_i_glide_hbond>  (107) 
-0.257845

>  <r_i_glide_metal>  (107) 
-0

>  <r_i_glide_rewards>  (107) 
0

>  <r_i_glide_evdw>  (107) 
-29.0692

>  <r_i_glide_ecoul>  (107) 
-5.74398

>  <r_i_glide_erotb>  (107) 
0.0589375

>  <r_i_glide_esite>  (107) 
-0.17645

>  <r_i_glide_emodel>  (107) 
-36.8017

>  <r_i_glide_energy>  (107) 
-34.8132

>  <r_i_glide_einternal>  (107) 
0.65206

>  <r_i_glide_intrahb_reward>  (107) 
-0

>  <i_i_glide_confnum>  (107) 
2

>  <i_i_glide_posenum>  (107) 
17

>  <r_i_glide_eff_state_penalty>  (107) 
0

>  <ligand_id>  (107) 
29

>  <original_smiles>  (107) 
C=C1C(=O)OC2C3OC3C3C4C5CC6=NN(C)CC6C3(C)C(CC(C5n3cnc5c(=N)[nH]cnc53)C3NC(=O)C=CC34C)C12

>  <smiles>  (107) 
[H]C([H])=C1C(=O)OC2([H])C3([H])OC3([H])C3([H])C4([H])C5([H])C([H])([H])C6=C(C([H])([H])N(C([H])([H])[H])N6[H])C3(C([H])([H])[H])C([H])(C([H])([H])C([H])(C3([H])N([H])C(=O)C([H])=C([H])C34C([H])([H])[H])C5([H])n3c([H])nc4c(N([H])[H])nc([H])nc43)C12[H]

$$$$
29:1:1
     RDKit          3D

 80 89  0  0  1  0  0  0  0  0999 V2000
   -1.4933    1.6294    3.0208 C   0  0  0  0  0  0  0  0  0  0  0  0
   -0.4186    1.8316    3.7995 C   0  0  0  0  0  0  0  0  0  0  0  0
   -0.3335    2.9467    4.7370 C   0  0  0  0  0  0  0  0  0  0  0  0
   -1.2439    3.7110    5.0615 O   0  0  0  0  0  0  0  0  0  0  0  0
    0.9209    3.0009    5.2013 O   0  0  0  0  0  0  0  0  0  0  0  0
    1.7915    2.0979    4.5283 C   0  0  1  0  0  0  0  0  0  0  0  0
    3.0979    1.8370    5.3239 C   0  0  1  0  0  0  0  0  0  0  0  0
    2.9458    1.4199    6.6800 O   0  0  0  0  0  0  0  0  0  0  0  0
    3.6015    0.4807    5.8306 C   0  0  1  0  0  0  0  0  0  0  0  0
    2.8955   -0.7626    5.2659 C   0  0  1  0  0  0  0  0  0  0  0  0
    3.8754   -1.8215    4.6014 C   0  0  1  0  0  0  0  0  0  0  0  0
    3.3599   -3.2926    4.5146 C   0  0  1  0  0  0  0  0  0  0  0  0
    2.9247   -3.8757    5.8794 C   0  0  0  0  0  0  0  0  0  0  0  0
    1.5047   -3.5125    6.2235 C   0  0  0  0  0  0  0  0  0  0  0  0
    0.6404   -4.5284    6.5753 N   0  0  0  0  0  0  0  0  0  0  0  0
   -0.6827   -4.0418    6.8239 N   0  0  0  0  0  0  0  0  0  0  0  0
   -0.8643   -3.9119    8.2796 C   0  0  0  0  0  0  0  0  0  0  0  0
   -0.6162   -2.7360    6.1601 C   0  0  0  0  0  0  0  0  0  0  0  0
    0.8493   -2.3781    5.9999 C   0  0  0  0  0  0  0  0  0  0  0  0
    1.3370   -0.9747    5.5758 C   0  0  1  0  0  0  0  0  0  0  0  0
    0.8237   -0.1439    6.7924 C   0  0  0  0  0  0  0  0  0  0  0  0
    0.6221   -0.4861    4.2832 C   0  0  2  0  0  0  0  0  0  0  0  0
    0.7128   -1.5073    3.0715 C   0  0  0  0  0  0  0  0  0  0  0  0
    2.0185   -2.2499    2.5349 C   0  0  2  0  0  0  0  0  0  0  0  0
    2.3887   -3.5815    3.3188 C   0  0  1  0  0  0  0  0  0  0  0  0
    2.8733   -4.6922    2.4599 N   0  0  0  0  0  0  0  0  0  0  0  0
    3.2170   -4.6126    1.1088 C   0  0  0  0  0  0  0  0  0  0  0  0
    3.6728   -5.7250    0.6143 N   0  0  0  0  0  0  0  0  0  0  0  0
    3.5297   -6.6679    1.6272 C   0  0  0  0  0  0  0  0  0  0  0  0
    3.7509   -8.0704    1.6155 C   0  0  0  0  0  0  0  0  0  0  0  0
    4.1909   -8.7268    0.5399 N   0  0  0  0  0  0  0  0  0  0  0  0
    3.4556   -8.7587    2.7586 N   0  0  0  0  0  0  0  0  0  0  0  0
    2.9666   -8.0764    3.8006 C   0  0  0  0  0  0  0  0  0  0  0  0
    2.7141   -6.7573    3.9267 N   0  0  0  0  0  0  0  0  0  0  0  0
    3.0231   -6.0718    2.7845 C   0  0  0  0  0  0  0  0  0  0  0  0
    3.2263   -1.3122    2.1623 C   0  0  2  0  0  0  0  0  0  0  0  0
    3.6643   -1.5019    0.7608 N   0  0  0  0  0  0  0  0  0  0  0  0
    4.7796   -2.1213    0.3094 C   0  0  0  0  0  0  0  0  0  0  0  0
    5.0030   -2.2299   -0.8893 O   0  0  0  0  0  0  0  0  0  0  0  0
    5.5928   -2.7203    1.3656 C   0  0  0  0  0  0  0  0  0  0  0  0
    5.4686   -2.3397    2.6368 C   0  0  0  0  0  0  0  0  0  0  0  0
    4.4284   -1.3778    3.1741 C   0  0  2  0  0  0  0  0  0  0  0  0
    5.1876   -0.0318    3.1879 C   0  0  0  0  0  0  0  0  0  0  0  0
    0.8634    1.0338    3.8262 C   0  0  1  0  0  0  0  0  0  0  0  0
    4.3293   -9.7408    0.5666 H   0  0  0  0  0  0  0  0  0  0  0  0
   -1.5376    0.8178    2.3117 H   0  0  0  0  0  0  0  0  0  0  0  0
   -2.3548    2.2777    3.0756 H   0  0  0  0  0  0  0  0  0  0  0  0
    2.1435    2.7100    3.6955 H   0  0  0  0  0  0  0  0  0  0  0  0
    3.8327    2.6283    5.2205 H   0  0  0  0  0  0  0  0  0  0  0  0
    4.6648    0.3892    6.0300 H   0  0  0  0  0  0  0  0  0  0  0  0
    2.7974   -0.2823    4.3204 H   0  0  0  0  0  0  0  0  0  0  0  0
    4.7418   -1.8436    5.2668 H   0  0  0  0  0  0  0  0  0  0  0  0
    4.2626   -3.8633    4.3161 H   0  0  0  0  0  0  0  0  0  0  0  0
    3.0303   -4.9617    5.8321 H   0  0  0  0  0  0  0  0  0  0  0  0
    3.5940   -3.5491    6.6756 H   0  0  0  0  0  0  0  0  0  0  0  0
   -1.8399   -3.4856    8.5029 H   0  0  0  0  0  0  0  0  0  0  0  0
   -0.1061   -3.2565    8.7197 H   0  0  0  0  0  0  0  0  0  0  0  0
   -0.8183   -4.8835    8.7762 H   0  0  0  0  0  0  0  0  0  0  0  0
   -1.0298   -2.8438    5.1595 H   0  0  0  0  0  0  0  0  0  0  0  0
   -1.2117   -1.9934    6.6868 H   0  0  0  0  0  0  0  0  0  0  0  0
    0.7400    0.9170    6.6114 H   0  0  0  0  0  0  0  0  0  0  0  0
    1.4438   -0.3015    7.6743 H   0  0  0  0  0  0  0  0  0  0  0  0
   -0.1869   -0.3687    7.0984 H   0  0  0  0  0  0  0  0  0  0  0  0
   -0.4325   -0.5048    4.5574 H   0  0  0  0  0  0  0  0  0  0  0  0
   -0.0218   -2.2788    3.2671 H   0  0  0  0  0  0  0  0  0  0  0  0
    0.2637   -0.9813    2.2279 H   0  0  0  0  0  0  0  0  0  0  0  0
    1.6208   -2.5972    1.5914 H   0  0  0  0  0  0  0  0  0  0  0  0
    1.4523   -3.9564    3.7112 H   0  0  0  0  0  0  0  0  0  0  0  0
    3.0463   -3.7793    0.4900 H   0  0  0  0  0  0  0  0  0  0  0  0
    4.4132   -8.2001   -0.3000 H   0  0  0  0  0  0  0  0  0  0  0  0
    2.7809   -8.6786    4.6789 H   0  0  0  0  0  0  0  0  0  0  0  0
    2.8500   -0.2845    2.1433 H   0  0  0  0  0  0  0  0  0  0  0  0
    3.0294   -1.1863    0.0566 H   0  0  0  0  0  0  0  0  0  0  0  0
    6.3497   -3.4247    1.0828 H   0  0  0  0  0  0  0  0  0  0  0  0
    6.0869   -2.8334    3.3800 H   0  0  0  0  0  0  0  0  0  0  0  0
    4.5298    0.8215    3.3264 H   0  0  0  0  0  0  0  0  0  0  0  0
    5.6961    0.1344    2.2387 H   0  0  0  0  0  0  0  0  0  0  0  0
    5.9557   -0.0180    3.9636 H   0  0  0  0  0  0  0  0  0  0  0  0
    1.1968    0.9989    2.7919 H   0  0  0  0  0  0  0  0  0  0  0  0
    0.7266   -5.4157    6.1016 H   0  0  0  0  0  0  0  0  0  0  0  0
  1  2  2  0
  1 46  1  0
  1 47  1  0
  2 44  1  0
  2  3  1  0
  3  4  2  0
  3  5  1  0
  5  6  1  0
  6 44  1  0
  6  7  1  0
  6 48  1  6
  7  9  1  0
  7  8  1  0
  7 49  1  1
  8  9  1  0
  9 10  1  0
  9 50  1  1
 10 20  1  0
 10 11  1  0
 10 51  1  6
 11 42  1  0
 11 12  1  0
 11 52  1  1
 12 25  1  0
 12 13  1  0
 12 53  1  6
 13 14  1  0
 13 54  1  0
 13 55  1  0
 14 19  2  0
 14 15  1  0
 15 16  1  0
 15 80  1  0
 16 17  1  0
 16 18  1  0
 17 56  1  0
 17 57  1  0
 17 58  1  0
 18 19  1  0
 18 59  1  0
 18 60  1  0
 19 20  1  0
 20 21  1  1
 20 22  1  0
 21 61  1  0
 21 62  1  0
 21 63  1  0
 22 23  1  0
 22 44  1  0
 22 64  1  1
 23 24  1  0
 23 65  1  0
 23 66  1  0
 24 25  1  0
 24 36  1  0
 24 67  1  6
 25 68  1  1
 25 26  1  0
 26 27  1  0
 26 35  1  0
 27 28  2  0
 27 69  1  0
 28 29  1  0
 29 30  1  0
 29 35  2  0
 30 32  2  0
 30 31  1  0
 31 70  1  0
 31 45  1  0
 32 33  1  0
 33 71  1  0
 33 34  2  0
 34 35  1  0
 36 42  1  0
 36 37  1  0
 36 72  1  6
 37 38  1  0
 37 73  1  0
 38 39  2  0
 38 40  1  0
 40 41  2  0
 40 74  1  0
 41 42  1  0
 41 75  1  0
 42 43  1  1
 43 76  1  0
 43 77  1  0
 43 78  1  0
 44 79  1  6
M  END
>  <i_m_ct_stereo_status>  (108) 
1

>  <s_m_source_file>  (108) 
/var/tmp/pbs.5076255.sched01/tmp2obefojl/44ql_32cm2.sdf

>  <i_m_source_file_index>  (108) 
1

>  <i_lp_mmshare_version>  (108) 
48012

>  <i_f3d_flags>  (108) 
0

>  <s_epik_input>  (108) 
W0NIM11bQ0BAXTEyW0NASF0zW0NASF00W0NASF0oTzQpW0NASF01W0NASF0oQyg9W0NIMl0pQyg9TylPNSlbQ0BIXTJbQ0gyXVtDQEhdNltDQEhdN1tDQF0oW0NIM10pKFtDSF09W0NIXUMoPU8pW05IXTcpW0NAQEhdM1tDQEBIXShbQ0gyXUM9OFtDQEBIXTFbQ0gyXU4oTjgpW0NIM10pW0NAQEhdNm4oW2NIXW45KWMoYzE5KW5bY0hdW25IXWNcMT1OL1tIXQ==

>  <s_epik_cmdline>  (108) 
J2VwaWtfcHl0aG9uJywgJy1waHQnLCAnMi4wJywgJy1waCcsICc3LjAnLCAnLXRuJywgJzgnLCAnLW1hJywgJzIwMCcsICctaW1hZScsICc8aW5maWxlLm1hZT4nLCAnLW9tYWUnLCAnPG91dGZpbGUubWFlPic=

>  <r_lp_tautomer_probability>  (108) 
0.999997

>  <r_epik_Ionization_Penalty>  (108) 
0.0267271

>  <r_epik_Ionization_Penalty_Charging>  (108) 
0

>  <r_epik_Ionization_Penalty_Neutral>  (108) 
0.0267271

>  <r_epik_State_Penalty>  (108) 
0.224004

>  <r_epik_Charging_Adjusted_Penalty>  (108) 
0.224004

>  <i_epik_Tot_Q>  (108) 
0

>  <i_epik_Tot_abs_Q>  (108) 
0

>  <s_epik_Chemistry_Notes>  (108) 
This compound has an ester and may undergo hydrolysis at high or low pH.

>  <s_lp_Force_Field>  (108) 
OPLS3e

>  <r_lp_Energy>  (108) 
136.897

>  <b_lp_Chiralities_Consistent>  (108) 
1

>  <s_lp_Variant>  (108) 
29:0-2

>  <s_i_glide_gridfile>  (108) 
pfpi4k_grid

>  <i_i_glide_lignum>  (108) 
1

>  <i_i_glide_rotatable_bonds>  (108) 
1

>  <r_i_docking_score>  (108) 
-2.36886

>  <r_i_glide_ligand_efficiency>  (108) 
-0.0538378

>  <r_i_glide_ligand_efficiency_sa>  (108) 
-0.190066

>  <r_i_glide_ligand_efficiency_ln>  (108) 
-0.495144

>  <r_i_glide_gscore>  (108) 
-2.36886

>  <r_i_glide_lipo>  (108) 
-0.297853

>  <r_i_glide_hbond>  (108) 
-0.0228149

>  <r_i_glide_metal>  (108) 
-0

>  <r_i_glide_rewards>  (108) 
-0.00328919

>  <r_i_glide_evdw>  (108) 
-29.2665

>  <r_i_glide_ecoul>  (108) 
-3.47764

>  <r_i_glide_erotb>  (108) 
0.0589375

>  <r_i_glide_esite>  (108) 
-0.11887

>  <r_i_glide_emodel>  (108) 
-34.7971

>  <r_i_glide_energy>  (108) 
-32.7442

>  <r_i_glide_einternal>  (108) 
0.605788

>  <r_i_glide_intrahb_reward>  (108) 
-0

>  <i_i_glide_confnum>  (108) 
1

>  <i_i_glide_posenum>  (108) 
12

>  <r_i_glide_eff_state_penalty>  (108) 
0

>  <ligand_id>  (108) 
29

>  <original_smiles>  (108) 
C=C1C(=O)OC2C3OC3C3C4C5CC6=NN(C)CC6C3(C)C(CC(C5n3cnc5c(=N)[nH]cnc53)C3NC(=O)C=CC34C)C12

>  <smiles>  (108) 
[H]C([H])=C1C(=O)OC2([H])C3([H])OC3([H])C3([H])C4([H])C5([H])C([H])([H])C6=C(C([H])([H])N(C([H])([H])[H])N6[H])C3(C([H])([H])[H])C([H])(C([H])([H])C([H])(C3([H])N([H])C(=O)C([H])=C([H])C34C([H])([H])[H])C5([H])n3c([H])nc4c(N([H])[H])nc([H])nc43)C12[H]

$$$$
29:1:2
     RDKit          3D

 80 89  0  0  1  0  0  0  0  0999 V2000
   -0.4867   -8.2444    4.6758 C   0  0  0  0  0  0  0  0  0  0  0  0
    0.5072   -7.8698    5.5052 C   0  0  0  0  0  0  0  0  0  0  0  0
    0.6069   -8.3535    6.8854 C   0  0  0  0  0  0  0  0  0  0  0  0
   -0.0586   -9.2499    7.4008 O   0  0  0  0  0  0  0  0  0  0  0  0
    1.5269   -7.6196    7.5149 O   0  0  0  0  0  0  0  0  0  0  0  0
    1.9985   -6.5224    6.7454 C   0  0  1  0  0  0  0  0  0  0  0  0
    3.3536   -5.9589    7.2309 C   0  0  1  0  0  0  0  0  0  0  0  0
    4.4192   -6.8986    7.3693 O   0  0  0  0  0  0  0  0  0  0  0  0
    4.6468   -5.8556    6.4239 C   0  0  1  0  0  0  0  0  0  0  0  0
    4.5311   -6.0613    4.9192 C   0  0  1  0  0  0  0  0  0  0  0  0
    5.0996   -4.8807    4.0527 C   0  0  1  0  0  0  0  0  0  0  0  0
    5.5068   -5.2380    2.6172 C   0  0  1  0  0  0  0  0  0  0  0  0
    6.5166   -6.3807    2.4987 C   0  0  0  0  0  0  0  0  0  0  0  0
    5.8517   -7.7287    2.5034 C   0  0  0  0  0  0  0  0  0  0  0  0
    6.1997   -8.6342    1.5227 N   0  0  0  0  0  0  0  0  0  0  0  0
    5.3869   -9.8168    1.5737 N   0  0  0  0  0  0  0  0  0  0  0  0
    6.2560  -10.8342    2.2153 C   0  0  0  0  0  0  0  0  0  0  0  0
    4.3156   -9.3765    2.4887 C   0  0  0  0  0  0  0  0  0  0  0  0
    4.7885   -8.1148    3.1842 C   0  0  0  0  0  0  0  0  0  0  0  0
    4.0367   -7.4816    4.3819 C   0  0  1  0  0  0  0  0  0  0  0  0
    4.1927   -8.6359    5.4090 C   0  0  0  0  0  0  0  0  0  0  0  0
    2.5300   -7.2825    4.0580 C   0  0  2  0  0  0  0  0  0  0  0  0
    2.2528   -6.4801    2.7246 C   0  0  0  0  0  0  0  0  0  0  0  0
    2.9345   -5.1213    2.2967 C   0  0  2  0  0  0  0  0  0  0  0  0
    4.3245   -5.2619    1.5789 C   0  0  1  0  0  0  0  0  0  0  0  0
    4.5635   -4.3310    0.4288 N   0  0  0  0  0  0  0  0  0  0  0  0
    5.8073   -3.9132   -0.0557 C   0  0  0  0  0  0  0  0  0  0  0  0
    5.8190   -3.1464   -1.1008 N   0  0  0  0  0  0  0  0  0  0  0  0
    4.4873   -3.1069   -1.4709 C   0  0  0  0  0  0  0  0  0  0  0  0
    3.8030   -2.5160   -2.5715 C   0  0  0  0  0  0  0  0  0  0  0  0
    4.4075   -1.7783   -3.4719 N   0  0  0  0  0  0  0  0  0  0  0  0
    2.4737   -2.7300   -2.7201 N   0  0  0  0  0  0  0  0  0  0  0  0
    1.8410   -3.4458   -1.7947 C   0  0  0  0  0  0  0  0  0  0  0  0
    2.3216   -4.0222   -0.6760 N   0  0  0  0  0  0  0  0  0  0  0  0
    3.6721   -3.8428   -0.5559 C   0  0  0  0  0  0  0  0  0  0  0  0
    2.8383   -3.9231    3.2908 C   0  0  2  0  0  0  0  0  0  0  0  0
    2.2422   -2.7639    2.6366 N   0  0  0  0  0  0  0  0  0  0  0  0
    2.8367   -1.6362    2.2011 C   0  0  0  0  0  0  0  0  0  0  0  0
    2.1759   -0.7504    1.6909 O   0  0  0  0  0  0  0  0  0  0  0  0
    4.2708   -1.5657    2.4397 C   0  0  0  0  0  0  0  0  0  0  0  0
    4.8761   -2.4302    3.2768 C   0  0  0  0  0  0  0  0  0  0  0  0
    4.1854   -3.5805    4.0074 C   0  0  2  0  0  0  0  0  0  0  0  0
    3.9031   -2.9913    5.4148 C   0  0  0  0  0  0  0  0  0  0  0  0
    1.5752   -6.8330    5.2525 C   0  0  1  0  0  0  0  0  0  0  0  0
    3.8557   -1.2871   -4.1595 H   0  0  0  0  0  0  0  0  0  0  0  0
   -0.5905   -7.8371    3.6810 H   0  0  0  0  0  0  0  0  0  0  0  0
   -1.2256   -8.9676    4.9944 H   0  0  0  0  0  0  0  0  0  0  0  0
    1.2965   -5.7409    7.0391 H   0  0  0  0  0  0  0  0  0  0  0  0
    3.2680   -5.3205    8.1022 H   0  0  0  0  0  0  0  0  0  0  0  0
    5.3770   -5.1272    6.7665 H   0  0  0  0  0  0  0  0  0  0  0  0
    3.5870   -5.5772    4.9102 H   0  0  0  0  0  0  0  0  0  0  0  0
    6.0163   -4.5832    4.5597 H   0  0  0  0  0  0  0  0  0  0  0  0
    6.1330   -4.3881    2.4010 H   0  0  0  0  0  0  0  0  0  0  0  0
    7.0958   -6.2752    1.5779 H   0  0  0  0  0  0  0  0  0  0  0  0
    7.2399   -6.3362    3.3072 H   0  0  0  0  0  0  0  0  0  0  0  0
    5.6973  -11.7582    2.3910 H   0  0  0  0  0  0  0  0  0  0  0  0
    6.6107  -10.4800    3.1900 H   0  0  0  0  0  0  0  0  0  0  0  0
    7.1169  -11.0843    1.5902 H   0  0  0  0  0  0  0  0  0  0  0  0
    3.4496   -9.1095    1.8801 H   0  0  0  0  0  0  0  0  0  0  0  0
    4.0082  -10.1959    3.1407 H   0  0  0  0  0  0  0  0  0  0  0  0
    3.4810   -8.6034    6.2189 H   0  0  0  0  0  0  0  0  0  0  0  0
    5.2053   -8.6764    5.8132 H   0  0  0  0  0  0  0  0  0  0  0  0
    3.9902   -9.6217    5.0172 H   0  0  0  0  0  0  0  0  0  0  0  0
    2.1938   -8.2912    3.8167 H   0  0  0  0  0  0  0  0  0  0  0  0
    2.4117   -7.1798    1.9017 H   0  0  0  0  0  0  0  0  0  0  0  0
    1.1730   -6.3256    2.6850 H   0  0  0  0  0  0  0  0  0  0  0  0
    2.2276   -4.8641    1.5226 H   0  0  0  0  0  0  0  0  0  0  0  0
    4.2961   -6.2320    1.0848 H   0  0  0  0  0  0  0  0  0  0  0  0
    6.7689   -4.1892    0.3684 H   0  0  0  0  0  0  0  0  0  0  0  0
    5.3949   -1.6194   -3.3567 H   0  0  0  0  0  0  0  0  0  0  0  0
    0.7772   -3.5390   -1.9510 H   0  0  0  0  0  0  0  0  0  0  0  0
    2.0936   -4.1847    4.0450 H   0  0  0  0  0  0  0  0  0  0  0  0
    1.2505   -2.8028    2.4828 H   0  0  0  0  0  0  0  0  0  0  0  0
    4.8460   -0.7841    1.9551 H   0  0  0  0  0  0  0  0  0  0  0  0
    5.9302   -2.3373    3.4488 H   0  0  0  0  0  0  0  0  0  0  0  0
    3.2274   -3.5994    6.0123 H   0  0  0  0  0  0  0  0  0  0  0  0
    3.4297   -2.0110    5.3414 H   0  0  0  0  0  0  0  0  0  0  0  0
    4.8259   -2.8498    5.9766 H   0  0  0  0  0  0  0  0  0  0  0  0
    1.0405   -5.9458    4.9173 H   0  0  0  0  0  0  0  0  0  0  0  0
    6.4296   -8.2069    0.6356 H   0  0  0  0  0  0  0  0  0  0  0  0
  1  2  2  0
  1 46  1  0
  1 47  1  0
  2 44  1  0
  2  3  1  0
  3  4  2  0
  3  5  1  0
  5  6  1  0
  6 44  1  0
  6  7  1  0
  6 48  1  1
  7  9  1  0
  7  8  1  0
  7 49  1  1
  8  9  1  0
  9 10  1  0
  9 50  1  6
 10 20  1  0
 10 11  1  0
 10 51  1  1
 11 42  1  0
 11 12  1  0
 11 52  1  1
 12 25  1  0
 12 13  1  0
 12 53  1  6
 13 14  1  0
 13 54  1  0
 13 55  1  0
 14 19  2  0
 14 15  1  0
 15 16  1  0
 15 80  1  0
 16 17  1  0
 16 18  1  0
 17 56  1  0
 17 57  1  0
 17 58  1  0
 18 19  1  0
 18 59  1  0
 18 60  1  0
 19 20  1  0
 20 21  1  1
 20 22  1  0
 21 61  1  0
 21 62  1  0
 21 63  1  0
 22 23  1  0
 22 44  1  0
 22 64  1  6
 23 24  1  0
 23 65  1  0
 23 66  1  0
 24 25  1  0
 24 36  1  0
 24 67  1  6
 25 68  1  6
 25 26  1  0
 26 27  1  0
 26 35  1  0
 27 28  2  0
 27 69  1  0
 28 29  1  0
 29 30  1  0
 29 35  2  0
 30 32  2  0
 30 31  1  0
 31 70  1  0
 31 45  1  0
 32 33  1  0
 33 71  1  0
 33 34  2  0
 34 35  1  0
 36 42  1  0
 36 37  1  0
 36 72  1  1
 37 38  1  0
 37 73  1  0
 38 39  2  0
 38 40  1  0
 40 41  2  0
 40 74  1  0
 41 42  1  0
 41 75  1  0
 42 43  1  1
 43 76  1  0
 43 77  1  0
 43 78  1  0
 44 79  1  6
M  END
>  <i_m_ct_stereo_status>  (109) 
1

>  <s_m_source_file>  (109) 
/var/tmp/pbs.5076255.sched01/tmp2obefojl/44ql_32cm2.sdf

>  <i_m_source_file_index>  (109) 
1

>  <i_lp_mmshare_version>  (109) 
48012

>  <i_f3d_flags>  (109) 
0

>  <s_epik_input>  (109) 
W0NIM11bQ0BAXTEyW0NASF0zW0NASF00W0NASF0oTzQpW0NASF01W0NASF0oQyg9W0NIMl0pQyg9TylPNSlbQ0BIXTJbQ0gyXVtDQEhdNltDQEhdN1tDQF0oW0NIM10pKFtDSF09W0NIXUMoPU8pW05IXTcpW0NAQEhdM1tDQEBIXShbQ0gyXUM9OFtDQEBIXTFbQ0gyXU4oTjgpW0NIM10pW0NAQEhdNm4oW2NIXW45KWMoYzE5KW5bY0hdW25IXWNcMT1OL1tIXQ==

>  <s_epik_cmdline>  (109) 
J2VwaWtfcHl0aG9uJywgJy1waHQnLCAnMi4wJywgJy1waCcsICc3LjAnLCAnLXRuJywgJzgnLCAnLW1hJywgJzIwMCcsICctaW1hZScsICc8aW5maWxlLm1hZT4nLCAnLW9tYWUnLCAnPG91dGZpbGUubWFlPic=

>  <r_lp_tautomer_probability>  (109) 
0.999997

>  <r_epik_Ionization_Penalty>  (109) 
0.0267271

>  <r_epik_Ionization_Penalty_Charging>  (109) 
0

>  <r_epik_Ionization_Penalty_Neutral>  (109) 
0.0267271

>  <r_epik_State_Penalty>  (109) 
0.224004

>  <r_epik_Charging_Adjusted_Penalty>  (109) 
0.224004

>  <i_epik_Tot_Q>  (109) 
0

>  <i_epik_Tot_abs_Q>  (109) 
0

>  <s_epik_Chemistry_Notes>  (109) 
This compound has an ester and may undergo hydrolysis at high or low pH.

>  <s_lp_Force_Field>  (109) 
OPLS3e

>  <r_lp_Energy>  (109) 
136.897

>  <b_lp_Chiralities_Consistent>  (109) 
1

>  <s_lp_Variant>  (109) 
29:0-2

>  <s_i_glide_gridfile>  (109) 
pfpi4k_grid

>  <i_i_glide_lignum>  (109) 
1

>  <i_i_glide_rotatable_bonds>  (109) 
1

>  <r_i_docking_score>  (109) 
-1.82251

>  <r_i_glide_ligand_efficiency>  (109) 
-0.0414207

>  <r_i_glide_ligand_efficiency_sa>  (109) 
-0.14623

>  <r_i_glide_ligand_efficiency_ln>  (109) 
-0.380945

>  <r_i_glide_gscore>  (109) 
-1.82251

>  <r_i_glide_lipo>  (109) 
-0.143628

>  <r_i_glide_hbond>  (109) 
0

>  <r_i_glide_metal>  (109) 
-0

>  <r_i_glide_rewards>  (109) 
-0.199793

>  <r_i_glide_evdw>  (109) 
-36.2367

>  <r_i_glide_ecoul>  (109) 
2.23246

>  <r_i_glide_erotb>  (109) 
0.0589375

>  <r_i_glide_esite>  (109) 
-0.0610621

>  <r_i_glide_emodel>  (109) 
-36.1236

>  <r_i_glide_energy>  (109) 
-34.0042

>  <r_i_glide_einternal>  (109) 
2.29635

>  <r_i_glide_intrahb_reward>  (109) 
-0

>  <i_i_glide_confnum>  (109) 
2

>  <i_i_glide_posenum>  (109) 
2

>  <r_i_glide_eff_state_penalty>  (109) 
0

>  <ligand_id>  (109) 
29

>  <original_smiles>  (109) 
C=C1C(=O)OC2C3OC3C3C4C5CC6=NN(C)CC6C3(C)C(CC(C5n3cnc5c(=N)[nH]cnc53)C3NC(=O)C=CC34C)C12

>  <smiles>  (109) 
[H]C([H])=C1C(=O)OC2([H])C3([H])OC3([H])C3([H])C4([H])C5([H])C([H])([H])C6=C(C([H])([H])N(C([H])([H])[H])N6[H])C3(C([H])([H])[H])C([H])(C([H])([H])C([H])(C3([H])N([H])C(=O)C([H])=C([H])C34C([H])([H])[H])C5([H])n3c([H])nc4c(N([H])[H])nc([H])nc43)C12[H]

$$$$
29:2:0
     RDKit          3D

 80 89  0  0  1  0  0  0  0  0999 V2000
    0.0429   -6.9997    5.1863 C   0  0  0  0  0  0  0  0  0  0  0  0
    0.5445   -5.8525    5.6816 C   0  0  0  0  0  0  0  0  0  0  0  0
    0.2682   -5.3974    7.0439 C   0  0  0  0  0  0  0  0  0  0  0  0
   -0.4262   -5.9618    7.8858 O   0  0  0  0  0  0  0  0  0  0  0  0
    0.8707   -4.2206    7.2266 O   0  0  0  0  0  0  0  0  0  0  0  0
    1.6854   -3.7850    6.1468 C   0  0  1  0  0  0  0  0  0  0  0  0
    3.0583   -3.4638    6.7559 C   0  0  1  0  0  0  0  0  0  0  0  0
    3.9485   -4.4936    7.1933 O   0  0  0  0  0  0  0  0  0  0  0  0
    4.4055   -3.6641    6.1182 C   0  0  1  0  0  0  0  0  0  0  0  0
    4.6855   -4.2702    4.7380 C   0  0  2  0  0  0  0  0  0  0  0  0
    4.9143   -3.0961    3.6679 C   0  0  1  0  0  0  0  0  0  0  0  0
    5.2626   -3.5189    2.1927 C   0  0  1  0  0  0  0  0  0  0  0  0
    6.0983   -4.8051    2.0477 C   0  0  0  0  0  0  0  0  0  0  0  0
    5.2689   -6.0397    2.1586 C   0  0  0  0  0  0  0  0  0  0  0  0
    4.9350   -6.7566    1.1406 N   0  0  0  0  0  0  0  0  0  0  0  0
    4.1209   -7.7750    1.5273 N   0  0  0  0  0  0  0  0  0  0  0  0
    4.1932   -8.9838    0.7184 C   0  0  0  0  0  0  0  0  0  0  0  0
    4.1605   -7.8735    2.9668 C   0  0  0  0  0  0  0  0  0  0  0  0
    4.7676   -6.5555    3.4526 C   0  0  2  0  0  0  0  0  0  0  0  0
    3.8977   -5.6061    4.3795 C   0  0  1  0  0  0  0  0  0  0  0  0
    3.7877   -6.5798    5.6078 C   0  0  0  0  0  0  0  0  0  0  0  0
    2.4361   -5.3001    3.9122 C   0  0  2  0  0  0  0  0  0  0  0  0
    2.1842   -4.7242    2.4701 C   0  0  0  0  0  0  0  0  0  0  0  0
    2.7007   -3.3310    1.9606 C   0  0  2  0  0  0  0  0  0  0  0  0
    4.0541   -3.4430    1.1936 C   0  0  1  0  0  0  0  0  0  0  0  0
    4.2220   -2.4903    0.0692 N   0  0  0  0  0  0  0  0  0  0  0  0
    5.0915   -1.4021   -0.0328 C   0  0  0  0  0  0  0  0  0  0  0  0
    5.0821   -0.7986   -1.1752 N   0  0  0  0  0  0  0  0  0  0  0  0
    4.0976   -1.4296   -1.9027 C   0  0  0  0  0  0  0  0  0  0  0  0
    3.6179   -1.2234   -3.2282 C   0  0  0  0  0  0  0  0  0  0  0  0
    3.9951   -0.1739   -3.9829 N   0  0  0  0  0  0  0  0  0  0  0  0
    2.8129   -2.1666   -3.7744 N   0  0  0  0  0  0  0  0  0  0  0  0
    2.4317   -3.1769   -2.9922 C   0  0  0  0  0  0  0  0  0  0  0  0
    2.7001   -3.4473   -1.7023 N   0  0  0  0  0  0  0  0  0  0  0  0
    3.5815   -2.5335   -1.1835 C   0  0  0  0  0  0  0  0  0  0  0  0
    2.6131   -2.1907    3.0222 C   0  0  2  0  0  0  0  0  0  0  0  0
    1.8811   -1.0316    2.5165 N   0  0  0  0  0  0  0  0  0  0  0  0
    2.3970    0.1182    2.0594 C   0  0  0  0  0  0  0  0  0  0  0  0
    1.6724    1.0459    1.7142 O   0  0  0  0  0  0  0  0  0  0  0  0
    3.8495    0.1445    2.0398 C   0  0  0  0  0  0  0  0  0  0  0  0
    4.5898   -0.7090    2.7887 C   0  0  0  0  0  0  0  0  0  0  0  0
    3.9870   -1.8059    3.6431 C   0  0  2  0  0  0  0  0  0  0  0  0
    3.8269   -1.0206    4.9855 C   0  0  0  0  0  0  0  0  0  0  0  0
    1.3922   -4.7991    4.9941 C   0  0  1  0  0  0  0  0  0  0  0  0
    3.6148   -0.0538   -4.9122 H   0  0  0  0  0  0  0  0  0  0  0  0
    0.2136   -7.3223    4.1693 H   0  0  0  0  0  0  0  0  0  0  0  0
   -0.5664   -7.6491    5.7971 H   0  0  0  0  0  0  0  0  0  0  0  0
    1.2660   -2.8233    5.8499 H   0  0  0  0  0  0  0  0  0  0  0  0
    3.0040   -2.6458    7.4710 H   0  0  0  0  0  0  0  0  0  0  0  0
    5.2014   -3.0011    6.4479 H   0  0  0  0  0  0  0  0  0  0  0  0
    5.6979   -4.6576    4.8874 H   0  0  0  0  0  0  0  0  0  0  0  0
    5.8448   -2.6731    4.0401 H   0  0  0  0  0  0  0  0  0  0  0  0
    6.0012   -2.7899    1.8839 H   0  0  0  0  0  0  0  0  0  0  0  0
    6.6134   -4.7970    1.0873 H   0  0  0  0  0  0  0  0  0  0  0  0
    6.8986   -4.8552    2.7857 H   0  0  0  0  0  0  0  0  0  0  0  0
    3.3920   -9.6612    1.0244 H   0  0  0  0  0  0  0  0  0  0  0  0
    5.1467   -9.4933    0.8645 H   0  0  0  0  0  0  0  0  0  0  0  0
    4.0785   -8.7563   -0.3341 H   0  0  0  0  0  0  0  0  0  0  0  0
    3.1656   -8.1155    3.3447 H   0  0  0  0  0  0  0  0  0  0  0  0
    4.8433   -8.6936    3.2215 H   0  0  0  0  0  0  0  0  0  0  0  0
    5.6592   -6.8239    4.0228 H   0  0  0  0  0  0  0  0  0  0  0  0
    3.5092   -7.5969    5.3518 H   0  0  0  0  0  0  0  0  0  0  0  0
    3.0237   -6.3255    6.3318 H   0  0  0  0  0  0  0  0  0  0  0  0
    4.7347   -6.6492    6.1422 H   0  0  0  0  0  0  0  0  0  0  0  0
    2.0791   -6.3062    3.7181 H   0  0  0  0  0  0  0  0  0  0  0  0
    2.4849   -5.4862    1.7502 H   0  0  0  0  0  0  0  0  0  0  0  0
    1.1015   -4.7213    2.3376 H   0  0  0  0  0  0  0  0  0  0  0  0
    1.9830   -3.0783    1.1798 H   0  0  0  0  0  0  0  0  0  0  0  0
    3.9944   -4.3702    0.6331 H   0  0  0  0  0  0  0  0  0  0  0  0
    5.7625   -1.0479    0.7486 H   0  0  0  0  0  0  0  0  0  0  0  0
    4.5562    0.5431   -3.5416 H   0  0  0  0  0  0  0  0  0  0  0  0
    1.8162   -3.8947   -3.4790 H   0  0  0  0  0  0  0  0  0  0  0  0
    1.9747   -2.5308    3.8210 H   0  0  0  0  0  0  0  0  0  0  0  0
    0.8810   -1.0840    2.4899 H   0  0  0  0  0  0  0  0  0  0  0  0
    4.3252    0.9434    1.4771 H   0  0  0  0  0  0  0  0  0  0  0  0
    5.6826   -0.5881    2.8248 H   0  0  0  0  0  0  0  0  0  0  0  0
    2.9887   -1.3545    5.5854 H   0  0  0  0  0  0  0  0  0  0  0  0
    3.5884    0.0371    4.8411 H   0  0  0  0  0  0  0  0  0  0  0  0
    4.7500   -1.0163    5.5716 H   0  0  0  0  0  0  0  0  0  0  0  0
    0.6236   -4.2887    4.4173 H   0  0  0  0  0  0  0  0  0  0  0  0
  1  2  2  0
  1 46  1  0
  1 47  1  0
  2 44  1  0
  2  3  1  0
  3  4  2  0
  3  5  1  0
  5  6  1  0
  6 44  1  0
  6  7  1  0
  6 48  1  6
  7  9  1  0
  7  8  1  0
  7 49  1  1
  8  9  1  0
  9 10  1  0
  9 50  1  1
 10 20  1  0
 10 11  1  0
 10 51  1  1
 11 42  1  0
 11 12  1  0
 11 52  1  1
 12 25  1  0
 12 13  1  0
 12 53  1  6
 13 14  1  0
 13 54  1  0
 13 55  1  0
 14 19  1  0
 14 15  2  0
 15 16  1  0
 16 17  1  0
 16 18  1  0
 17 56  1  0
 17 57  1  0
 17 58  1  0
 18 19  1  0
 18 59  1  0
 18 60  1  0
 19 20  1  0
 19 61  1  1
 20 21  1  1
 20 22  1  0
 21 62  1  0
 21 63  1  0
 21 64  1  0
 22 23  1  0
 22 44  1  0
 22 65  1  6
 23 24  1  0
 23 66  1  0
 23 67  1  0
 24 25  1  0
 24 36  1  0
 24 68  1  6
 25 69  1  6
 25 26  1  0
 26 27  1  0
 26 35  1  0
 27 28  2  0
 27 70  1  0
 28 29  1  0
 29 30  1  0
 29 35  2  0
 30 32  2  0
 30 31  1  0
 31 71  1  0
 31 45  1  0
 32 33  1  0
 33 72  1  0
 33 34  2  0
 34 35  1  0
 36 42  1  0
 36 37  1  0
 36 73  1  1
 37 38  1  0
 37 74  1  0
 38 39  2  0
 38 40  1  0
 40 41  2  0
 40 75  1  0
 41 42  1  0
 41 76  1  0
 42 43  1  1
 43 77  1  0
 43 78  1  0
 43 79  1  0
 44 80  1  6
M  END
>  <i_m_ct_stereo_status>  (110) 
1

>  <s_m_source_file>  (110) 
/var/tmp/pbs.5076255.sched01/tmp2obefojl/44ql_32cm2.sdf

>  <i_m_source_file_index>  (110) 
2

>  <i_lp_mmshare_version>  (110) 
48012

>  <i_f3d_flags>  (110) 
0

>  <s_epik_input>  (110) 
W0NIM11bQ0BAXTEyW0NASF0zW0NASF00W0NASF0oTzQpW0NASF01W0NASF0oQyg9W0NIMl0pQyg9TylPNSlbQ0BIXTJbQ0gyXVtDQEhdNltDQEhdN1tDQF0oW0NIM10pKFtDSF09W0NIXUMoPU8pW05IXTcpW0NAQEhdM1tDQEBIXShbQ0gyXUM9OFtDQEBIXTFbQ0gyXU4oTjgpW0NIM10pW0NAQEhdNm4oW2NIXW45KWMoYzE5KW5bY0hdW25IXWNcMT1OL1tIXQ==

>  <s_epik_cmdline>  (110) 
J2VwaWtfcHl0aG9uJywgJy1waHQnLCAnMi4wJywgJy1waCcsICc3LjAnLCAnLXRuJywgJzgnLCAnLW1hJywgJzIwMCcsICctaW1hZScsICc8aW5maWxlLm1hZT4nLCAnLW9tYWUnLCAnPG91dGZpbGUubWFlPic=

>  <r_epik_Ionization_Penalty>  (110) 
0.00677841

>  <r_epik_Ionization_Penalty_Charging>  (110) 
0

>  <r_epik_Ionization_Penalty_Neutral>  (110) 
0.00677841

>  <r_epik_State_Penalty>  (110) 
0.803401

>  <r_epik_Charging_Adjusted_Penalty>  (110) 
0.803401

>  <i_epik_Tot_Q>  (110) 
0

>  <i_epik_Tot_abs_Q>  (110) 
0

>  <s_epik_Chemistry_Notes>  (110) 
This compound has an ester and may undergo hydrolysis at high or low pH. This compound has an imine and may undergo hydrolysis.

>  <s_lp_Force_Field>  (110) 
OPLS3e

>  <r_lp_Energy>  (110) 
123.01

>  <b_lp_Chiralities_Consistent>  (110) 
1

>  <s_lp_Variant>  (110) 
29:0-3

>  <s_i_glide_gridfile>  (110) 
pfpi4k_grid

>  <i_i_glide_lignum>  (110) 
2

>  <i_i_glide_rotatable_bonds>  (110) 
1

>  <r_i_docking_score>  (110) 
-2.8419

>  <r_i_glide_ligand_efficiency>  (110) 
-0.0645886

>  <r_i_glide_ligand_efficiency_sa>  (110) 
-0.22802

>  <r_i_glide_ligand_efficiency_ln>  (110) 
-0.594018

>  <r_i_glide_gscore>  (110) 
-2.8419

>  <r_i_glide_lipo>  (110) 
-0.319538

>  <r_i_glide_hbond>  (110) 
0

>  <r_i_glide_metal>  (110) 
-0

>  <r_i_glide_rewards>  (110) 
-0.261737

>  <r_i_glide_evdw>  (110) 
-37.2839

>  <r_i_glide_ecoul>  (110) 
-2.35999

>  <r_i_glide_erotb>  (110) 
0.0589375

>  <r_i_glide_esite>  (110) 
-0.101364

>  <r_i_glide_emodel>  (110) 
-43.58

>  <r_i_glide_energy>  (110) 
-39.6439

>  <r_i_glide_einternal>  (110) 
0.394745

>  <r_i_glide_intrahb_reward>  (110) 
-0

>  <i_i_glide_confnum>  (110) 
1

>  <i_i_glide_posenum>  (110) 
1

>  <r_i_glide_eff_state_penalty>  (110) 
0

>  <ligand_id>  (110) 
29

>  <original_smiles>  (110) 
C=C1C(=O)OC2C3OC3C3C4C5CC6=NN(C)CC6C3(C)C(CC(C5n3cnc5c(=N)[nH]cnc53)C3NC(=O)C=CC34C)C12

>  <smiles>  (110) 
[H]C([H])=C1C(=O)OC2([H])C3([H])OC3([H])C3([H])C4([H])C5([H])C([H])([H])C6=NN(C([H])([H])[H])C([H])([H])C6([H])C3(C([H])([H])[H])C([H])(C([H])([H])C([H])(C3([H])N([H])C(=O)C([H])=C([H])C34C([H])([H])[H])C5([H])n3c([H])nc4c(N([H])[H])nc([H])nc43)C12[H]

$$$$
29:2:1
     RDKit          3D

 80 89  0  0  1  0  0  0  0  0999 V2000
    2.6532   -9.9491    2.4781 C   0  0  0  0  0  0  0  0  0  0  0  0
    2.6046   -9.5582    3.7657 C   0  0  0  0  0  0  0  0  0  0  0  0
    2.6800  -10.5188    4.8687 C   0  0  0  0  0  0  0  0  0  0  0  0
    2.7933  -11.7358    4.7655 O   0  0  0  0  0  0  0  0  0  0  0  0
    2.5910   -9.8424    6.0169 O   0  0  0  0  0  0  0  0  0  0  0  0
    2.5461   -8.4312    5.8916 C   0  0  1  0  0  0  0  0  0  0  0  0
    3.6351   -7.8900    6.8229 C   0  0  1  0  0  0  0  0  0  0  0  0
    5.0316   -8.0236    6.5131 O   0  0  0  0  0  0  0  0  0  0  0  0
    4.5159   -6.6853    6.5962 C   0  0  1  0  0  0  0  0  0  0  0  0
    4.5286   -5.7733    5.3683 C   0  0  2  0  0  0  0  0  0  0  0  0
    3.6765   -4.4373    5.6742 C   0  0  1  0  0  0  0  0  0  0  0  0
    3.5890   -3.3449    4.5267 C   0  0  1  0  0  0  0  0  0  0  0  0
    4.8685   -3.2156    3.6658 C   0  0  0  0  0  0  0  0  0  0  0  0
    4.9340   -4.2651    2.6027 C   0  0  0  0  0  0  0  0  0  0  0  0
    4.6701   -4.0248    1.3565 N   0  0  0  0  0  0  0  0  0  0  0  0
    4.7220   -5.1667    0.6316 N   0  0  0  0  0  0  0  0  0  0  0  0
    5.1025   -4.9925   -0.7642 C   0  0  0  0  0  0  0  0  0  0  0  0
    5.3721   -6.1857    1.4282 C   0  0  0  0  0  0  0  0  0  0  0  0
    5.3167   -5.6719    2.8651 C   0  0  2  0  0  0  0  0  0  0  0  0
    4.5037   -6.5040    3.9481 C   0  0  1  0  0  0  0  0  0  0  0  0
    5.4137   -7.7861    3.9243 C   0  0  0  0  0  0  0  0  0  0  0  0
    3.0570   -6.9587    3.5542 C   0  0  2  0  0  0  0  0  0  0  0  0
    2.0074   -5.8908    3.0728 C   0  0  0  0  0  0  0  0  0  0  0  0
    1.4629   -4.6931    3.9526 C   0  0  2  0  0  0  0  0  0  0  0  0
    2.2403   -3.3521    3.6867 C   0  0  1  0  0  0  0  0  0  0  0  0
    1.4490   -2.1264    3.7542 N   0  0  0  0  0  0  0  0  0  0  0  0
    0.1905   -1.9342    4.2783 C   0  0  0  0  0  0  0  0  0  0  0  0
   -0.2384   -0.7274    4.2540 N   0  0  0  0  0  0  0  0  0  0  0  0
    0.6425   -0.0466    3.4472 C   0  0  0  0  0  0  0  0  0  0  0  0
    0.6255    1.2583    2.9037 C   0  0  0  0  0  0  0  0  0  0  0  0
   -0.3502    2.1331    3.1876 N   0  0  0  0  0  0  0  0  0  0  0  0
    1.6224    1.5966    2.0573 N   0  0  0  0  0  0  0  0  0  0  0  0
    2.5750    0.6946    1.7806 C   0  0  0  0  0  0  0  0  0  0  0  0
    2.7392   -0.5522    2.2514 N   0  0  0  0  0  0  0  0  0  0  0  0
    1.7236   -0.9041    3.0943 C   0  0  0  0  0  0  0  0  0  0  0  0
    1.2182   -5.0753    5.4673 C   0  0  2  0  0  0  0  0  0  0  0  0
   -0.1483   -4.7856    5.9506 N   0  0  0  0  0  0  0  0  0  0  0  0
   -0.5604   -3.7461    6.6893 C   0  0  0  0  0  0  0  0  0  0  0  0
   -1.7395   -3.5812    6.9920 O   0  0  0  0  0  0  0  0  0  0  0  0
    0.5171   -2.7784    6.9628 C   0  0  0  0  0  0  0  0  0  0  0  0
    1.8155   -3.1311    6.8988 C   0  0  0  0  0  0  0  0  0  0  0  0
    2.2802   -4.5026    6.4438 C   0  0  2  0  0  0  0  0  0  0  0  0
    2.2513   -5.2573    7.7942 C   0  0  0  0  0  0  0  0  0  0  0  0
    2.4249   -8.1726    4.3508 C   0  0  1  0  0  0  0  0  0  0  0  0
   -0.3373    3.0471    2.7372 H   0  0  0  0  0  0  0  0  0  0  0  0
    2.5654   -9.2566    1.6570 H   0  0  0  0  0  0  0  0  0  0  0  0
    2.7795  -10.9904    2.2228 H   0  0  0  0  0  0  0  0  0  0  0  0
    1.6024   -8.1299    6.3429 H   0  0  0  0  0  0  0  0  0  0  0  0
    3.4334   -8.1269    7.8672 H   0  0  0  0  0  0  0  0  0  0  0  0
    4.8949   -6.1888    7.4888 H   0  0  0  0  0  0  0  0  0  0  0  0
    5.5540   -5.4101    5.3928 H   0  0  0  0  0  0  0  0  0  0  0  0
    4.3191   -3.9653    6.4179 H   0  0  0  0  0  0  0  0  0  0  0  0
    3.5821   -2.3980    5.0615 H   0  0  0  0  0  0  0  0  0  0  0  0
    4.8789   -2.2299    3.2088 H   0  0  0  0  0  0  0  0  0  0  0  0
    5.7629   -3.2597    4.2796 H   0  0  0  0  0  0  0  0  0  0  0  0
    5.0158   -5.9650   -1.2655 H   0  0  0  0  0  0  0  0  0  0  0  0
    6.1579   -4.6831   -0.8070 H   0  0  0  0  0  0  0  0  0  0  0  0
    4.4725   -4.2668   -1.2798 H   0  0  0  0  0  0  0  0  0  0  0  0
    4.9127   -7.1562    1.2294 H   0  0  0  0  0  0  0  0  0  0  0  0
    6.4234   -6.2264    1.1092 H   0  0  0  0  0  0  0  0  0  0  0  0
    6.3491   -5.6241    3.2078 H   0  0  0  0  0  0  0  0  0  0  0  0
    5.6520   -8.1527    2.9321 H   0  0  0  0  0  0  0  0  0  0  0  0
    4.9810   -8.6663    4.3800 H   0  0  0  0  0  0  0  0  0  0  0  0
    6.3703   -7.6048    4.4156 H   0  0  0  0  0  0  0  0  0  0  0  0
    3.2556   -7.4148    2.5904 H   0  0  0  0  0  0  0  0  0  0  0  0
    2.3688   -5.4910    2.1285 H   0  0  0  0  0  0  0  0  0  0  0  0
    1.1392   -6.4577    2.7284 H   0  0  0  0  0  0  0  0  0  0  0  0
    0.4854   -4.5272    3.4929 H   0  0  0  0  0  0  0  0  0  0  0  0
    2.5077   -3.4006    2.6169 H   0  0  0  0  0  0  0  0  0  0  0  0
   -0.4178   -2.7439    4.6100 H   0  0  0  0  0  0  0  0  0  0  0  0
   -1.1169    1.8521    3.8068 H   0  0  0  0  0  0  0  0  0  0  0  0
    3.3368    1.0052    1.0981 H   0  0  0  0  0  0  0  0  0  0  0  0
    1.2346   -6.1546    5.5206 H   0  0  0  0  0  0  0  0  0  0  0  0
   -0.8844   -5.3757    5.6015 H   0  0  0  0  0  0  0  0  0  0  0  0
    0.2533   -1.8017    7.3248 H   0  0  0  0  0  0  0  0  0  0  0  0
    2.5615   -2.3797    7.0815 H   0  0  0  0  0  0  0  0  0  0  0  0
    2.0183   -6.3077    7.6886 H   0  0  0  0  0  0  0  0  0  0  0  0
    1.4486   -4.9085    8.4435 H   0  0  0  0  0  0  0  0  0  0  0  0
    3.1653   -5.1060    8.3629 H   0  0  0  0  0  0  0  0  0  0  0  0
    1.3491   -8.0544    4.2147 H   0  0  0  0  0  0  0  0  0  0  0  0
  1  2  2  0
  1 46  1  0
  1 47  1  0
  2 44  1  0
  2  3  1  0
  3  4  2  0
  3  5  1  0
  5  6  1  0
  6 44  1  0
  6  7  1  0
  6 48  1  1
  7  9  1  0
  7  8  1  0
  7 49  1  1
  8  9  1  0
  9 10  1  0
  9 50  1  1
 10 20  1  0
 10 11  1  0
 10 51  1  6
 11 42  1  0
 11 12  1  0
 11 52  1  1
 12 25  1  0
 12 13  1  0
 12 53  1  1
 13 14  1  0
 13 54  1  0
 13 55  1  0
 14 19  1  0
 14 15  2  0
 15 16  1  0
 16 17  1  0
 16 18  1  0
 17 56  1  0
 17 57  1  0
 17 58  1  0
 18 19  1  0
 18 59  1  0
 18 60  1  0
 19 20  1  0
 19 61  1  1
 20 21  1  1
 20 22  1  0
 21 62  1  0
 21 63  1  0
 21 64  1  0
 22 23  1  0
 22 44  1  0
 22 65  1  6
 23 24  1  0
 23 66  1  0
 23 67  1  0
 24 25  1  0
 24 36  1  0
 24 68  1  6
 25 69  1  6
 25 26  1  0
 26 27  1  0
 26 35  1  0
 27 28  2  0
 27 70  1  0
 28 29  1  0
 29 30  1  0
 29 35  2  0
 30 32  2  0
 30 31  1  0
 31 71  1  0
 31 45  1  0
 32 33  1  0
 33 72  1  0
 33 34  2  0
 34 35  1  0
 36 42  1  0
 36 37  1  0
 36 73  1  6
 37 38  1  0
 37 74  1  0
 38 39  2  0
 38 40  1  0
 40 41  2  0
 40 75  1  0
 41 42  1  0
 41 76  1  0
 42 43  1  1
 43 77  1  0
 43 78  1  0
 43 79  1  0
 44 80  1  1
M  END
>  <i_m_ct_stereo_status>  (111) 
1

>  <s_m_source_file>  (111) 
/var/tmp/pbs.5076255.sched01/tmp2obefojl/44ql_32cm2.sdf

>  <i_m_source_file_index>  (111) 
2

>  <i_lp_mmshare_version>  (111) 
48012

>  <i_f3d_flags>  (111) 
0

>  <s_epik_input>  (111) 
W0NIM11bQ0BAXTEyW0NASF0zW0NASF00W0NASF0oTzQpW0NASF01W0NASF0oQyg9W0NIMl0pQyg9TylPNSlbQ0BIXTJbQ0gyXVtDQEhdNltDQEhdN1tDQF0oW0NIM10pKFtDSF09W0NIXUMoPU8pW05IXTcpW0NAQEhdM1tDQEBIXShbQ0gyXUM9OFtDQEBIXTFbQ0gyXU4oTjgpW0NIM10pW0NAQEhdNm4oW2NIXW45KWMoYzE5KW5bY0hdW25IXWNcMT1OL1tIXQ==

>  <s_epik_cmdline>  (111) 
J2VwaWtfcHl0aG9uJywgJy1waHQnLCAnMi4wJywgJy1waCcsICc3LjAnLCAnLXRuJywgJzgnLCAnLW1hJywgJzIwMCcsICctaW1hZScsICc8aW5maWxlLm1hZT4nLCAnLW9tYWUnLCAnPG91dGZpbGUubWFlPic=

>  <r_epik_Ionization_Penalty>  (111) 
0.00677841

>  <r_epik_Ionization_Penalty_Charging>  (111) 
0

>  <r_epik_Ionization_Penalty_Neutral>  (111) 
0.00677841

>  <r_epik_State_Penalty>  (111) 
0.803401

>  <r_epik_Charging_Adjusted_Penalty>  (111) 
0.803401

>  <i_epik_Tot_Q>  (111) 
0

>  <i_epik_Tot_abs_Q>  (111) 
0

>  <s_epik_Chemistry_Notes>  (111) 
This compound has an ester and may undergo hydrolysis at high or low pH. This compound has an imine and may undergo hydrolysis.

>  <s_lp_Force_Field>  (111) 
OPLS3e

>  <r_lp_Energy>  (111) 
123.01

>  <b_lp_Chiralities_Consistent>  (111) 
1

>  <s_lp_Variant>  (111) 
29:0-3

>  <s_i_glide_gridfile>  (111) 
pfpi4k_grid

>  <i_i_glide_lignum>  (111) 
2

>  <i_i_glide_rotatable_bonds>  (111) 
1

>  <r_i_docking_score>  (111) 
-2.04503

>  <r_i_glide_ligand_efficiency>  (111) 
-0.0464779

>  <r_i_glide_ligand_efficiency_sa>  (111) 
-0.164083

>  <r_i_glide_ligand_efficiency_ln>  (111) 
-0.427456

>  <r_i_glide_gscore>  (111) 
-2.04503

>  <r_i_glide_lipo>  (111) 
-0.119615

>  <r_i_glide_hbond>  (111) 
-0.0130808

>  <r_i_glide_metal>  (111) 
-0

>  <r_i_glide_rewards>  (111) 
-0.191216

>  <r_i_glide_evdw>  (111) 
-31.04

>  <r_i_glide_ecoul>  (111) 
-0.631431

>  <r_i_glide_erotb>  (111) 
0.0589375

>  <r_i_glide_esite>  (111) 
-0.133342

>  <r_i_glide_emodel>  (111) 
-32.579

>  <r_i_glide_energy>  (111) 
-31.6714

>  <r_i_glide_einternal>  (111) 
0.665636

>  <r_i_glide_intrahb_reward>  (111) 
-0

>  <i_i_glide_confnum>  (111) 
1

>  <i_i_glide_posenum>  (111) 
30

>  <r_i_glide_eff_state_penalty>  (111) 
0

>  <ligand_id>  (111) 
29

>  <original_smiles>  (111) 
C=C1C(=O)OC2C3OC3C3C4C5CC6=NN(C)CC6C3(C)C(CC(C5n3cnc5c(=N)[nH]cnc53)C3NC(=O)C=CC34C)C12

>  <smiles>  (111) 
[H]C([H])=C1C(=O)OC2([H])C3([H])OC3([H])C3([H])C4([H])C5([H])C([H])([H])C6=NN(C([H])([H])[H])C([H])([H])C6([H])C3(C([H])([H])[H])C([H])(C([H])([H])C([H])(C3([H])N([H])C(=O)C([H])=C([H])C34C([H])([H])[H])C5([H])n3c([H])nc4c(N([H])[H])nc([H])nc43)C12[H]

$$$$
29:2:2
     RDKit          3D

 80 89  0  0  1  0  0  0  0  0999 V2000
    2.6048   -8.7688    1.8541 C   0  0  0  0  0  0  0  0  0  0  0  0
    2.9285   -8.4681    3.1280 C   0  0  0  0  0  0  0  0  0  0  0  0
    3.5407   -9.4528    4.0176 C   0  0  0  0  0  0  0  0  0  0  0  0
    3.8036  -10.6220    3.7600 O   0  0  0  0  0  0  0  0  0  0  0  0
    3.7546   -8.8721    5.2009 O   0  0  0  0  0  0  0  0  0  0  0  0
    3.4336   -7.4895    5.2663 C   0  0  1  0  0  0  0  0  0  0  0  0
    4.6720   -6.8105    5.8691 C   0  0  1  0  0  0  0  0  0  0  0  0
    5.8770   -6.6527    5.1195 O   0  0  0  0  0  0  0  0  0  0  0  0
    5.2184   -5.4416    5.5141 C   0  0  1  0  0  0  0  0  0  0  0  0
    4.6359   -4.4855    4.4657 C   0  0  2  0  0  0  0  0  0  0  0  0
    3.7478   -3.3472    5.1900 C   0  0  1  0  0  0  0  0  0  0  0  0
    3.1054   -2.2380    4.2769 C   0  0  1  0  0  0  0  0  0  0  0  0
    3.9578   -1.7995    3.0692 C   0  0  0  0  0  0  0  0  0  0  0  0
    3.8142   -2.7486    1.9198 C   0  0  0  0  0  0  0  0  0  0  0  0
    3.1140   -2.4888    0.8604 N   0  0  0  0  0  0  0  0  0  0  0  0
    3.0995   -3.5648    0.0243 N   0  0  0  0  0  0  0  0  0  0  0  0
    2.9547   -3.2573   -1.3844 C   0  0  0  0  0  0  0  0  0  0  0  0
    4.1243   -4.4754    0.4419 C   0  0  0  0  0  0  0  0  0  0  0  0
    4.4804   -4.0718    1.8728 C   0  0  2  0  0  0  0  0  0  0  0  0
    4.2500   -5.1131    3.0486 C   0  0  1  0  0  0  0  0  0  0  0  0
    5.2987   -6.1911    2.5738 C   0  0  0  0  0  0  0  0  0  0  0  0
    2.8536   -5.8168    3.0862 C   0  0  2  0  0  0  0  0  0  0  0  0
    1.5407   -4.9491    3.1016 C   0  0  0  0  0  0  0  0  0  0  0  0
    1.1372   -3.9501    4.2488 C   0  0  2  0  0  0  0  0  0  0  0  0
    1.5922   -2.4671    3.8982 C   0  0  1  0  0  0  0  0  0  0  0  0
    0.6647   -1.3715    4.3375 N   0  0  0  0  0  0  0  0  0  0  0  0
   -0.1106   -1.2930    5.4685 C   0  0  0  0  0  0  0  0  0  0  0  0
   -0.8453   -0.2947    5.7284 N   0  0  0  0  0  0  0  0  0  0  0  0
   -0.6873    0.4121    4.5696 C   0  0  0  0  0  0  0  0  0  0  0  0
   -1.2926    1.5899    4.1469 C   0  0  0  0  0  0  0  0  0  0  0  0
   -2.1441    2.2735    4.9092 N   0  0  0  0  0  0  0  0  0  0  0  0
   -0.9675    2.0055    2.9096 N   0  0  0  0  0  0  0  0  0  0  0  0
   -0.1035    1.2968    2.1585 C   0  0  0  0  0  0  0  0  0  0  0  0
    0.5466    0.1790    2.4467 N   0  0  0  0  0  0  0  0  0  0  0  0
    0.2212   -0.2156    3.6764 C   0  0  0  0  0  0  0  0  0  0  0  0
    1.4749   -4.4356    5.7169 C   0  0  2  0  0  0  0  0  0  0  0  0
    0.3173   -4.4537    6.6460 N   0  0  0  0  0  0  0  0  0  0  0  0
    0.0931   -3.6152    7.6806 C   0  0  0  0  0  0  0  0  0  0  0  0
   -0.9672   -3.6093    8.2773 O   0  0  0  0  0  0  0  0  0  0  0  0
    1.0576   -2.4973    7.8074 C   0  0  0  0  0  0  0  0  0  0  0  0
    2.2586   -2.5157    7.1511 C   0  0  0  0  0  0  0  0  0  0  0  0
    2.7101   -3.7346    6.3570 C   0  0  2  0  0  0  0  0  0  0  0  0
    3.2754   -4.5590    7.5409 C   0  0  0  0  0  0  0  0  0  0  0  0
    2.7333   -7.1759    3.8950 C   0  0  1  0  0  0  0  0  0  0  0  0
   -2.5579    3.1198    4.5478 H   0  0  0  0  0  0  0  0  0  0  0  0
    2.1296   -8.0541    1.1986 H   0  0  0  0  0  0  0  0  0  0  0  0
    2.8013   -9.7520    1.4371 H   0  0  0  0  0  0  0  0  0  0  0  0
    2.6569   -7.4136    6.0276 H   0  0  0  0  0  0  0  0  0  0  0  0
    4.8677   -7.1532    6.8763 H   0  0  0  0  0  0  0  0  0  0  0  0
    5.7888   -4.9352    6.2779 H   0  0  0  0  0  0  0  0  0  0  0  0
    5.5354   -3.9285    4.1916 H   0  0  0  0  0  0  0  0  0  0  0  0
    4.5199   -2.8174    5.7358 H   0  0  0  0  0  0  0  0  0  0  0  0
    3.1303   -1.3496    4.9074 H   0  0  0  0  0  0  0  0  0  0  0  0
    3.6548   -0.7935    2.7600 H   0  0  0  0  0  0  0  0  0  0  0  0
    5.0122   -1.7006    3.3533 H   0  0  0  0  0  0  0  0  0  0  0  0
    2.8550   -4.1967   -1.9205 H   0  0  0  0  0  0  0  0  0  0  0  0
    3.8701   -2.7687   -1.7056 H   0  0  0  0  0  0  0  0  0  0  0  0
    2.0829   -2.6349   -1.5914 H   0  0  0  0  0  0  0  0  0  0  0  0
    3.8310   -5.5002    0.2347 H   0  0  0  0  0  0  0  0  0  0  0  0
    4.9649   -4.2507   -0.2024 H   0  0  0  0  0  0  0  0  0  0  0  0
    5.5514   -3.8555    1.8410 H   0  0  0  0  0  0  0  0  0  0  0  0
    5.2468   -6.4478    1.5190 H   0  0  0  0  0  0  0  0  0  0  0  0
    5.2014   -7.1650    3.0391 H   0  0  0  0  0  0  0  0  0  0  0  0
    6.3229   -5.8602    2.7475 H   0  0  0  0  0  0  0  0  0  0  0  0
    2.7767   -6.1721    2.0587 H   0  0  0  0  0  0  0  0  0  0  0  0
    1.4849   -4.4211    2.1473 H   0  0  0  0  0  0  0  0  0  0  0  0
    0.7157   -5.6535    2.9931 H   0  0  0  0  0  0  0  0  0  0  0  0
    0.0547   -3.9480    4.1433 H   0  0  0  0  0  0  0  0  0  0  0  0
    1.4447   -2.3682    2.8461 H   0  0  0  0  0  0  0  0  0  0  0  0
   -0.2738   -2.1418    5.9243 H   0  0  0  0  0  0  0  0  0  0  0  0
   -2.3915    1.9389    5.8293 H   0  0  0  0  0  0  0  0  0  0  0  0
    0.1025    1.6874    1.1859 H   0  0  0  0  0  0  0  0  0  0  0  0
    1.6915   -5.4964    5.6267 H   0  0  0  0  0  0  0  0  0  0  0  0
   -0.3713   -5.1409    6.4700 H   0  0  0  0  0  0  0  0  0  0  0  0
    0.7236   -1.5466    8.1409 H   0  0  0  0  0  0  0  0  0  0  0  0
    2.8537   -1.6359    7.1640 H   0  0  0  0  0  0  0  0  0  0  0  0
    3.2022   -5.6222    7.3943 H   0  0  0  0  0  0  0  0  0  0  0  0
    2.7084   -4.4178    8.4610 H   0  0  0  0  0  0  0  0  0  0  0  0
    4.2918   -4.2744    7.7965 H   0  0  0  0  0  0  0  0  0  0  0  0
    1.6776   -7.2527    4.1436 H   0  0  0  0  0  0  0  0  0  0  0  0
  1  2  2  0
  1 46  1  0
  1 47  1  0
  2 44  1  0
  2  3  1  0
  3  4  2  0
  3  5  1  0
  5  6  1  0
  6 44  1  0
  6  7  1  0
  6 48  1  1
  7  9  1  0
  7  8  1  0
  7 49  1  1
  8  9  1  0
  9 10  1  0
  9 50  1  1
 10 20  1  0
 10 11  1  0
 10 51  1  6
 11 42  1  0
 11 12  1  0
 11 52  1  1
 12 25  1  0
 12 13  1  0
 12 53  1  1
 13 14  1  0
 13 54  1  0
 13 55  1  0
 14 19  1  0
 14 15  2  0
 15 16  1  0
 16 17  1  0
 16 18  1  0
 17 56  1  0
 17 57  1  0
 17 58  1  0
 18 19  1  0
 18 59  1  0
 18 60  1  0
 19 20  1  0
 19 61  1  6
 20 21  1  6
 20 22  1  0
 21 62  1  0
 21 63  1  0
 21 64  1  0
 22 23  1  0
 22 44  1  0
 22 65  1  6
 23 24  1  0
 23 66  1  0
 23 67  1  0
 24 25  1  0
 24 36  1  0
 24 68  1  1
 25 69  1  6
 25 26  1  0
 26 27  1  0
 26 35  1  0
 27 28  2  0
 27 70  1  0
 28 29  1  0
 29 30  1  0
 29 35  2  0
 30 32  2  0
 30 31  1  0
 31 71  1  0
 31 45  1  0
 32 33  1  0
 33 72  1  0
 33 34  2  0
 34 35  1  0
 36 42  1  0
 36 37  1  0
 36 73  1  6
 37 38  1  0
 37 74  1  0
 38 39  2  0
 38 40  1  0
 40 41  2  0
 40 75  1  0
 41 42  1  0
 41 76  1  0
 42 43  1  1
 43 77  1  0
 43 78  1  0
 43 79  1  0
 44 80  1  1
M  END
>  <i_m_ct_stereo_status>  (112) 
1

>  <s_m_source_file>  (112) 
/var/tmp/pbs.5076255.sched01/tmp2obefojl/44ql_32cm2.sdf

>  <i_m_source_file_index>  (112) 
2

>  <i_lp_mmshare_version>  (112) 
48012

>  <i_f3d_flags>  (112) 
0

>  <s_epik_input>  (112) 
W0NIM11bQ0BAXTEyW0NASF0zW0NASF00W0NASF0oTzQpW0NASF01W0NASF0oQyg9W0NIMl0pQyg9TylPNSlbQ0BIXTJbQ0gyXVtDQEhdNltDQEhdN1tDQF0oW0NIM10pKFtDSF09W0NIXUMoPU8pW05IXTcpW0NAQEhdM1tDQEBIXShbQ0gyXUM9OFtDQEBIXTFbQ0gyXU4oTjgpW0NIM10pW0NAQEhdNm4oW2NIXW45KWMoYzE5KW5bY0hdW25IXWNcMT1OL1tIXQ==

>  <s_epik_cmdline>  (112) 
J2VwaWtfcHl0aG9uJywgJy1waHQnLCAnMi4wJywgJy1waCcsICc3LjAnLCAnLXRuJywgJzgnLCAnLW1hJywgJzIwMCcsICctaW1hZScsICc8aW5maWxlLm1hZT4nLCAnLW9tYWUnLCAnPG91dGZpbGUubWFlPic=

>  <r_epik_Ionization_Penalty>  (112) 
0.00677841

>  <r_epik_Ionization_Penalty_Charging>  (112) 
0

>  <r_epik_Ionization_Penalty_Neutral>  (112) 
0.00677841

>  <r_epik_State_Penalty>  (112) 
0.803401

>  <r_epik_Charging_Adjusted_Penalty>  (112) 
0.803401

>  <i_epik_Tot_Q>  (112) 
0

>  <i_epik_Tot_abs_Q>  (112) 
0

>  <s_epik_Chemistry_Notes>  (112) 
This compound has an ester and may undergo hydrolysis at high or low pH. This compound has an imine and may undergo hydrolysis.

>  <s_lp_Force_Field>  (112) 
OPLS3e

>  <r_lp_Energy>  (112) 
123.01

>  <b_lp_Chiralities_Consistent>  (112) 
1

>  <s_lp_Variant>  (112) 
29:0-3

>  <s_i_glide_gridfile>  (112) 
pfpi4k_grid

>  <i_i_glide_lignum>  (112) 
2

>  <i_i_glide_rotatable_bonds>  (112) 
1

>  <r_i_docking_score>  (112) 
-1.05723

>  <r_i_glide_ligand_efficiency>  (112) 
-0.024028

>  <r_i_glide_ligand_efficiency_sa>  (112) 
-0.0848271

>  <r_i_glide_ligand_efficiency_ln>  (112) 
-0.220984

>  <r_i_glide_gscore>  (112) 
-1.05723

>  <r_i_glide_lipo>  (112) 
-0.158981

>  <r_i_glide_hbond>  (112) 
-0.0897829

>  <r_i_glide_metal>  (112) 
-0

>  <r_i_glide_rewards>  (112) 
0

>  <r_i_glide_evdw>  (112) 
-30.8212

>  <r_i_glide_ecoul>  (112) 
-0.312347

>  <r_i_glide_erotb>  (112) 
0.0589375

>  <r_i_glide_esite>  (112) 
-0.160787

>  <r_i_glide_emodel>  (112) 
-27.5491

>  <r_i_glide_energy>  (112) 
-31.1335

>  <r_i_glide_einternal>  (112) 
0.768398

>  <r_i_glide_intrahb_reward>  (112) 
-0

>  <i_i_glide_confnum>  (112) 
3

>  <i_i_glide_posenum>  (112) 
38

>  <r_i_glide_eff_state_penalty>  (112) 
0

>  <ligand_id>  (112) 
29

>  <original_smiles>  (112) 
C=C1C(=O)OC2C3OC3C3C4C5CC6=NN(C)CC6C3(C)C(CC(C5n3cnc5c(=N)[nH]cnc53)C3NC(=O)C=CC34C)C12

>  <smiles>  (112) 
[H]C([H])=C1C(=O)OC2([H])C3([H])OC3([H])C3([H])C4([H])C5([H])C([H])([H])C6=NN(C([H])([H])[H])C([H])([H])C6([H])C3(C([H])([H])[H])C([H])(C([H])([H])C([H])(C3([H])N([H])C(=O)C([H])=C([H])C34C([H])([H])[H])C5([H])n3c([H])nc4c(N([H])[H])nc([H])nc43)C12[H]

$$$$
29:3:0
     RDKit          3D

 80 89  0  0  1  0  0  0  0  0999 V2000
   -0.3472   -6.8331    4.8599 C   0  0  0  0  0  0  0  0  0  0  0  0
    0.5240   -6.1739    5.6463 C   0  0  0  0  0  0  0  0  0  0  0  0
    0.5735   -6.3321    7.1066 C   0  0  0  0  0  0  0  0  0  0  0  0
   -0.0600   -7.1341    7.7858 O   0  0  0  0  0  0  0  0  0  0  0  0
    1.4247   -5.4373    7.6005 O   0  0  0  0  0  0  0  0  0  0  0  0
    1.9582   -4.5418    6.6412 C   0  0  1  0  0  0  0  0  0  0  0  0
    3.3396   -4.0295    7.1166 C   0  0  1  0  0  0  0  0  0  0  0  0
    4.3742   -5.0069    7.3661 O   0  0  0  0  0  0  0  0  0  0  0  0
    4.6583   -4.0525    6.3175 C   0  0  1  0  0  0  0  0  0  0  0  0
    4.5173   -4.3867    4.8390 C   0  0  1  0  0  0  0  0  0  0  0  0
    5.0016   -3.2427    3.8468 C   0  0  1  0  0  0  0  0  0  0  0  0
    5.2980   -3.6064    2.3450 C   0  0  1  0  0  0  0  0  0  0  0  0
    6.1884   -4.8412    2.1355 C   0  0  0  0  0  0  0  0  0  0  0  0
    5.4032   -6.1000    2.2019 C   0  0  0  0  0  0  0  0  0  0  0  0
    5.0708   -6.7762    1.1529 N   0  0  0  0  0  0  0  0  0  0  0  0
    4.3185   -7.8450    1.5002 N   0  0  0  0  0  0  0  0  0  0  0  0
    4.4204   -8.9947    0.6162 C   0  0  0  0  0  0  0  0  0  0  0  0
    4.4197   -8.0178    2.9347 C   0  0  0  0  0  0  0  0  0  0  0  0
    4.9568   -6.6875    3.4762 C   0  0  2  0  0  0  0  0  0  0  0  0
    4.0142   -5.8483    4.4394 C   0  0  1  0  0  0  0  0  0  0  0  0
    4.0151   -6.8978    5.6158 C   0  0  0  0  0  0  0  0  0  0  0  0
    2.5053   -5.6464    4.0549 C   0  0  2  0  0  0  0  0  0  0  0  0
    2.2061   -4.9117    2.6761 C   0  0  0  0  0  0  0  0  0  0  0  0
    2.7328   -3.4694    2.2117 C   0  0  2  0  0  0  0  0  0  0  0  0
    4.0592   -3.5341    1.3793 C   0  0  1  0  0  0  0  0  0  0  0  0
    4.1783   -2.5414    0.2958 N   0  0  0  0  0  0  0  0  0  0  0  0
    4.9890   -1.4028    0.2070 C   0  0  0  0  0  0  0  0  0  0  0  0
    4.8713   -0.7349   -0.8765 N   0  0  0  0  0  0  0  0  0  0  0  0
    3.9624   -1.4235   -1.6549 C   0  0  0  0  0  0  0  0  0  0  0  0
    3.4857   -1.2353   -2.9858 C   0  0  0  0  0  0  0  0  0  0  0  0
    3.8141   -0.1691   -3.6940 N   0  0  0  0  0  0  0  0  0  0  0  0
    2.7241   -2.2065   -3.5429 N   0  0  0  0  0  0  0  0  0  0  0  0
    2.3852   -3.2588   -2.7782 C   0  0  0  0  0  0  0  0  0  0  0  0
    2.6698   -3.5074   -1.4874 N   0  0  0  0  0  0  0  0  0  0  0  0
    3.5123   -2.5870   -0.9591 C   0  0  0  0  0  0  0  0  0  0  0  0
    2.6764   -2.3003    3.2606 C   0  0  2  0  0  0  0  0  0  0  0  0
    1.9860   -1.1385    2.7683 N   0  0  0  0  0  0  0  0  0  0  0  0
    2.4807    0.0403    2.3242 C   0  0  0  0  0  0  0  0  0  0  0  0
    1.7636    0.9422    1.9532 O   0  0  0  0  0  0  0  0  0  0  0  0
    3.9435    0.0866    2.3750 C   0  0  0  0  0  0  0  0  0  0  0  0
    4.6747   -0.7957    3.0828 C   0  0  0  0  0  0  0  0  0  0  0  0
    4.0857   -1.9402    3.8696 C   0  0  2  0  0  0  0  0  0  0  0  0
    3.9269   -1.3028    5.2888 C   0  0  0  0  0  0  0  0  0  0  0  0
    1.5346   -5.1340    5.2247 C   0  0  1  0  0  0  0  0  0  0  0  0
    3.4018   -0.0067   -4.6129 H   0  0  0  0  0  0  0  0  0  0  0  0
   -0.3842   -6.6756    3.7939 H   0  0  0  0  0  0  0  0  0  0  0  0
   -1.0459   -7.5387    5.2777 H   0  0  0  0  0  0  0  0  0  0  0  0
    1.3146   -3.6709    6.7627 H   0  0  0  0  0  0  0  0  0  0  0  0
    3.2820   -3.3041    7.9248 H   0  0  0  0  0  0  0  0  0  0  0  0
    5.4329   -3.3442    6.5938 H   0  0  0  0  0  0  0  0  0  0  0  0
    3.5656   -3.9217    4.8144 H   0  0  0  0  0  0  0  0  0  0  0  0
    5.9599   -2.9342    4.2711 H   0  0  0  0  0  0  0  0  0  0  0  0
    5.9937   -2.8412    2.0398 H   0  0  0  0  0  0  0  0  0  0  0  0
    6.6818   -4.7700    1.1685 H   0  0  0  0  0  0  0  0  0  0  0  0
    7.0066   -4.9073    2.8600 H   0  0  0  0  0  0  0  0  0  0  0  0
    3.6617   -9.7322    0.9058 H   0  0  0  0  0  0  0  0  0  0  0  0
    5.3966   -9.4745    0.7079 H   0  0  0  0  0  0  0  0  0  0  0  0
    4.3134   -8.6971   -0.4187 H   0  0  0  0  0  0  0  0  0  0  0  0
    3.4492   -8.3334    3.3296 H   0  0  0  0  0  0  0  0  0  0  0  0
    5.1651   -8.8080    3.1325 H   0  0  0  0  0  0  0  0  0  0  0  0
    5.8743   -6.9044    4.0253 H   0  0  0  0  0  0  0  0  0  0  0  0
    3.7640   -7.9115    5.3160 H   0  0  0  0  0  0  0  0  0  0  0  0
    3.2778   -6.7343    6.3904 H   0  0  0  0  0  0  0  0  0  0  0  0
    4.9943   -6.9654    6.0949 H   0  0  0  0  0  0  0  0  0  0  0  0
    2.1633   -6.6589    3.8456 H   0  0  0  0  0  0  0  0  0  0  0  0
    2.4693   -5.6280    1.8945 H   0  0  0  0  0  0  0  0  0  0  0  0
    1.1175   -4.8828    2.5912 H   0  0  0  0  0  0  0  0  0  0  0  0
    1.9854   -3.2124    1.4584 H   0  0  0  0  0  0  0  0  0  0  0  0
    3.9751   -4.4590    0.8128 H   0  0  0  0  0  0  0  0  0  0  0  0
    5.6660   -1.0634    0.9878 H   0  0  0  0  0  0  0  0  0  0  0  0
    4.3048    0.5840   -3.2234 H   0  0  0  0  0  0  0  0  0  0  0  0
    1.8296   -4.0093   -3.2949 H   0  0  0  0  0  0  0  0  0  0  0  0
    2.0315   -2.6055    4.0609 H   0  0  0  0  0  0  0  0  0  0  0  0
    0.9787   -1.1976    2.6688 H   0  0  0  0  0  0  0  0  0  0  0  0
    4.4196    0.9372    1.8744 H   0  0  0  0  0  0  0  0  0  0  0  0
    5.7802   -0.6647    3.1440 H   0  0  0  0  0  0  0  0  0  0  0  0
    3.2377   -1.8349    5.9355 H   0  0  0  0  0  0  0  0  0  0  0  0
    3.5214   -0.2884    5.2342 H   0  0  0  0  0  0  0  0  0  0  0  0
    4.8992   -1.2035    5.7862 H   0  0  0  0  0  0  0  0  0  0  0  0
    0.9231   -4.3537    4.7818 H   0  0  0  0  0  0  0  0  0  0  0  0
  1  2  2  0
  1 46  1  0
  1 47  1  0
  2 44  1  0
  2  3  1  0
  3  4  2  0
  3  5  1  0
  5  6  1  0
  6 44  1  0
  6  7  1  0
  6 48  1  1
  7  9  1  0
  7  8  1  0
  7 49  1  1
  8  9  1  0
  9 10  1  0
  9 50  1  6
 10 20  1  0
 10 11  1  0
 10 51  1  6
 11 42  1  0
 11 12  1  0
 11 52  1  1
 12 25  1  0
 12 13  1  0
 12 53  1  6
 13 14  1  0
 13 54  1  0
 13 55  1  0
 14 19  1  0
 14 15  2  0
 15 16  1  0
 16 17  1  0
 16 18  1  0
 17 56  1  0
 17 57  1  0
 17 58  1  0
 18 19  1  0
 18 59  1  0
 18 60  1  0
 19 20  1  0
 19 61  1  1
 20 21  1  1
 20 22  1  0
 21 62  1  0
 21 63  1  0
 21 64  1  0
 22 23  1  0
 22 44  1  0
 22 65  1  6
 23 24  1  0
 23 66  1  0
 23 67  1  0
 24 25  1  0
 24 36  1  0
 24 68  1  6
 25 69  1  6
 25 26  1  0
 26 27  1  0
 26 35  1  0
 27 28  2  0
 27 70  1  0
 28 29  1  0
 29 30  1  0
 29 35  2  0
 30 32  2  0
 30 31  1  0
 31 71  1  0
 31 45  1  0
 32 33  1  0
 33 72  1  0
 33 34  2  0
 34 35  1  0
 36 42  1  0
 36 37  1  0
 36 73  1  1
 37 38  1  0
 37 74  1  0
 38 39  2  0
 38 40  1  0
 40 41  2  0
 40 75  1  0
 41 42  1  0
 41 76  1  0
 42 43  1  1
 43 77  1  0
 43 78  1  0
 43 79  1  0
 44 80  1  6
M  END
>  <i_m_ct_stereo_status>  (113) 
1

>  <s_m_source_file>  (113) 
/var/tmp/pbs.5076255.sched01/tmp2obefojl/44ql_32cm2.sdf

>  <i_m_source_file_index>  (113) 
3

>  <i_lp_mmshare_version>  (113) 
48012

>  <i_f3d_flags>  (113) 
0

>  <s_epik_input>  (113) 
W0NIM11bQ0BAXTEyW0NASF0zW0NASF00W0NASF0oTzQpW0NASF01W0NASF0oQyg9W0NIMl0pQyg9TylPNSlbQ0BIXTJbQ0gyXVtDQEhdNltDQEhdN1tDQF0oW0NIM10pKFtDSF09W0NIXUMoPU8pW05IXTcpW0NAQEhdM1tDQEBIXShbQ0gyXUM9OFtDQEBIXTFbQ0gyXU4oTjgpW0NIM10pW0NAQEhdNm4oW2NIXW45KWMoYzE5KW5bY0hdW25IXWNcMT1OL1tIXQ==

>  <s_epik_cmdline>  (113) 
J2VwaWtfcHl0aG9uJywgJy1waHQnLCAnMi4wJywgJy1waCcsICc3LjAnLCAnLXRuJywgJzgnLCAnLW1hJywgJzIwMCcsICctaW1hZScsICc8aW5maWxlLm1hZT4nLCAnLW9tYWUnLCAnPG91dGZpbGUubWFlPic=

>  <r_epik_Ionization_Penalty>  (113) 
0.00677841

>  <r_epik_Ionization_Penalty_Charging>  (113) 
0

>  <r_epik_Ionization_Penalty_Neutral>  (113) 
0.00677841

>  <r_epik_State_Penalty>  (113) 
0.803401

>  <r_epik_Charging_Adjusted_Penalty>  (113) 
0.803401

>  <i_epik_Tot_Q>  (113) 
0

>  <i_epik_Tot_abs_Q>  (113) 
0

>  <s_epik_Chemistry_Notes>  (113) 
This compound has an ester and may undergo hydrolysis at high or low pH. This compound has an imine and may undergo hydrolysis.

>  <s_lp_Force_Field>  (113) 
OPLS3e

>  <r_lp_Energy>  (113) 
152.177

>  <b_lp_Chiralities_Consistent>  (113) 
1

>  <s_lp_Variant>  (113) 
29:0-4

>  <s_i_glide_gridfile>  (113) 
pfpi4k_grid

>  <i_i_glide_lignum>  (113) 
3

>  <i_i_glide_rotatable_bonds>  (113) 
1

>  <r_i_docking_score>  (113) 
-2.61539

>  <r_i_glide_ligand_efficiency>  (113) 
-0.0594406

>  <r_i_glide_ligand_efficiency_sa>  (113) 
-0.209846

>  <r_i_glide_ligand_efficiency_ln>  (113) 
-0.546673

>  <r_i_glide_gscore>  (113) 
-2.61539

>  <r_i_glide_lipo>  (113) 
-0.222333

>  <r_i_glide_hbond>  (113) 
0

>  <r_i_glide_metal>  (113) 
-0

>  <r_i_glide_rewards>  (113) 
-0.308731

>  <r_i_glide_evdw>  (113) 
-34.1081

>  <r_i_glide_ecoul>  (113) 
-2.39875

>  <r_i_glide_erotb>  (113) 
0.0589375

>  <r_i_glide_esite>  (113) 
-0.0780421

>  <r_i_glide_emodel>  (113) 
-38.955

>  <r_i_glide_energy>  (113) 
-36.5069

>  <r_i_glide_einternal>  (113) 
0.303197

>  <r_i_glide_intrahb_reward>  (113) 
-0

>  <i_i_glide_confnum>  (113) 
5

>  <i_i_glide_posenum>  (113) 
10

>  <r_i_glide_eff_state_penalty>  (113) 
0

>  <ligand_id>  (113) 
29

>  <original_smiles>  (113) 
C=C1C(=O)OC2C3OC3C3C4C5CC6=NN(C)CC6C3(C)C(CC(C5n3cnc5c(=N)[nH]cnc53)C3NC(=O)C=CC34C)C12

>  <smiles>  (113) 
[H]C([H])=C1C(=O)OC2([H])C3([H])OC3([H])C3([H])C4([H])C5([H])C([H])([H])C6=NN(C([H])([H])[H])C([H])([H])C6([H])C3(C([H])([H])[H])C([H])(C([H])([H])C([H])(C3([H])N([H])C(=O)C([H])=C([H])C34C([H])([H])[H])C5([H])n3c([H])nc4c(N([H])[H])nc([H])nc43)C12[H]

$$$$
29:3:1
     RDKit          3D

 80 89  0  0  1  0  0  0  0  0999 V2000
   -0.6802   -8.8579    2.4862 C   0  0  0  0  0  0  0  0  0  0  0  0
    0.2055   -9.1323    3.4607 C   0  0  0  0  0  0  0  0  0  0  0  0
    0.7756  -10.4675    3.6569 C   0  0  0  0  0  0  0  0  0  0  0  0
    0.6167  -11.4457    2.9293 O   0  0  0  0  0  0  0  0  0  0  0  0
    1.5243  -10.4530    4.7563 O   0  0  0  0  0  0  0  0  0  0  0  0
    1.4549   -9.2461    5.4951 C   0  0  1  0  0  0  0  0  0  0  0  0
    2.7506   -9.0835    6.3489 C   0  0  1  0  0  0  0  0  0  0  0  0
    4.0031   -9.0667    5.6788 O   0  0  0  0  0  0  0  0  0  0  0  0
    3.6859   -7.8590    6.3627 C   0  0  1  0  0  0  0  0  0  0  0  0
    3.1460   -6.6077    5.6728 C   0  0  1  0  0  0  0  0  0  0  0  0
    2.9929   -5.3220    6.6208 C   0  0  1  0  0  0  0  0  0  0  0  0
    2.8439   -3.9030    5.9508 C   0  0  1  0  0  0  0  0  0  0  0  0
    3.9069   -3.5801    4.8769 C   0  0  0  0  0  0  0  0  0  0  0  0
    3.5115   -4.1317    3.5481 C   0  0  0  0  0  0  0  0  0  0  0  0
    3.0366   -3.4085    2.5870 N   0  0  0  0  0  0  0  0  0  0  0  0
    2.6969   -4.1977    1.5282 N   0  0  0  0  0  0  0  0  0  0  0  0
    2.7837   -3.5582    0.2247 C   0  0  0  0  0  0  0  0  0  0  0  0
    3.3152   -5.4826    1.7180 C   0  0  0  0  0  0  0  0  0  0  0  0
    3.6502   -5.5660    3.2074 C   0  0  2  0  0  0  0  0  0  0  0  0
    2.9181   -6.6752    4.0798 C   0  0  1  0  0  0  0  0  0  0  0  0
    3.5723   -7.9145    3.3612 C   0  0  0  0  0  0  0  0  0  0  0  0
    1.3635   -6.8460    3.9106 C   0  0  2  0  0  0  0  0  0  0  0  0
    0.4594   -5.5863    4.2208 C   0  0  0  0  0  0  0  0  0  0  0  0
    0.4204   -4.7406    5.5677 C   0  0  2  0  0  0  0  0  0  0  0  0
    1.3642   -3.4862    5.5428 C   0  0  1  0  0  0  0  0  0  0  0  0
    0.8366   -2.2709    6.2408 N   0  0  0  0  0  0  0  0  0  0  0  0
    1.0923   -1.8179    7.5143 C   0  0  0  0  0  0  0  0  0  0  0  0
    0.4044   -0.8072    7.9100 N   0  0  0  0  0  0  0  0  0  0  0  0
   -0.2129   -0.3751    6.7724 C   0  0  0  0  0  0  0  0  0  0  0  0
   -1.0068    0.7623    6.5292 C   0  0  0  0  0  0  0  0  0  0  0  0
   -1.3110    1.6420    7.4956 N   0  0  0  0  0  0  0  0  0  0  0  0
   -1.4986    0.9059    5.2830 N   0  0  0  0  0  0  0  0  0  0  0  0
   -1.2077   -0.0035    4.3508 C   0  0  0  0  0  0  0  0  0  0  0  0
   -0.4826   -1.1252    4.4468 N   0  0  0  0  0  0  0  0  0  0  0  0
    0.0055   -1.2730    5.7081 C   0  0  0  0  0  0  0  0  0  0  0  0
    0.4412   -5.4984    6.9622 C   0  0  2  0  0  0  0  0  0  0  0  0
   -0.6721   -5.1044    7.8366 N   0  0  0  0  0  0  0  0  0  0  0  0
   -0.6298   -4.3965    8.9774 C   0  0  0  0  0  0  0  0  0  0  0  0
   -1.6294   -4.1171    9.5836 O   0  0  0  0  0  0  0  0  0  0  0  0
    0.6968   -3.9110    9.3054 C   0  0  0  0  0  0  0  0  0  0  0  0
    1.8172   -4.3892    8.7459 C   0  0  0  0  0  0  0  0  0  0  0  0
    1.8384   -5.4798    7.7073 C   0  0  2  0  0  0  0  0  0  0  0  0
    1.9960   -6.7193    8.6296 C   0  0  0  0  0  0  0  0  0  0  0  0
    0.7432   -8.1948    4.5198 C   0  0  1  0  0  0  0  0  0  0  0  0
   -1.8688    2.4584    7.2745 H   0  0  0  0  0  0  0  0  0  0  0  0
   -1.1043   -7.8736    2.3670 H   0  0  0  0  0  0  0  0  0  0  0  0
   -1.0018   -9.6199    1.7864 H   0  0  0  0  0  0  0  0  0  0  0  0
    0.6891   -9.4603    6.2419 H   0  0  0  0  0  0  0  0  0  0  0  0
    2.7627   -9.7309    7.2225 H   0  0  0  0  0  0  0  0  0  0  0  0
    4.3014   -7.6943    7.2394 H   0  0  0  0  0  0  0  0  0  0  0  0
    2.1601   -6.8784    5.9394 H   0  0  0  0  0  0  0  0  0  0  0  0
    3.9438   -5.2868    7.1487 H   0  0  0  0  0  0  0  0  0  0  0  0
    3.1597   -3.2283    6.7478 H   0  0  0  0  0  0  0  0  0  0  0  0
    4.0383   -2.4963    4.7995 H   0  0  0  0  0  0  0  0  0  0  0  0
    4.8885   -3.9648    5.1629 H   0  0  0  0  0  0  0  0  0  0  0  0
    2.4077   -4.2582   -0.5260 H   0  0  0  0  0  0  0  0  0  0  0  0
    3.8383   -3.3658    0.0102 H   0  0  0  0  0  0  0  0  0  0  0  0
    2.2105   -2.6295    0.1817 H   0  0  0  0  0  0  0  0  0  0  0  0
    2.6966   -6.2591    1.2781 H   0  0  0  0  0  0  0  0  0  0  0  0
    4.2461   -5.4448    1.1550 H   0  0  0  0  0  0  0  0  0  0  0  0
    4.7219   -5.7635    3.2675 H   0  0  0  0  0  0  0  0  0  0  0  0
    3.5055   -7.9026    2.2781 H   0  0  0  0  0  0  0  0  0  0  0  0
    3.1243   -8.8703    3.5812 H   0  0  0  0  0  0  0  0  0  0  0  0
    4.6352   -7.9973    3.5859 H   0  0  0  0  0  0  0  0  0  0  0  0
    1.2339   -6.9545    2.8353 H   0  0  0  0  0  0  0  0  0  0  0  0
    0.6166   -4.8830    3.4032 H   0  0  0  0  0  0  0  0  0  0  0  0
   -0.5631   -5.9124    4.0426 H   0  0  0  0  0  0  0  0  0  0  0  0
   -0.5705   -4.3021    5.4922 H   0  0  0  0  0  0  0  0  0  0  0  0
    1.3653   -3.1397    4.5080 H   0  0  0  0  0  0  0  0  0  0  0  0
    1.8100   -2.2436    8.1622 H   0  0  0  0  0  0  0  0  0  0  0  0
   -0.9163    1.5353    8.4284 H   0  0  0  0  0  0  0  0  0  0  0  0
   -1.6245    0.1703    3.3794 H   0  0  0  0  0  0  0  0  0  0  0  0
    0.1962   -6.5391    6.7355 H   0  0  0  0  0  0  0  0  0  0  0  0
   -1.5825   -5.4564    7.5831 H   0  0  0  0  0  0  0  0  0  0  0  0
    0.7683   -3.0529    9.9821 H   0  0  0  0  0  0  0  0  0  0  0  0
    2.7753   -3.9301    9.0216 H   0  0  0  0  0  0  0  0  0  0  0  0
    1.7100   -7.6514    8.1426 H   0  0  0  0  0  0  0  0  0  0  0  0
    1.3515   -6.6539    9.5055 H   0  0  0  0  0  0  0  0  0  0  0  0
    3.0186   -6.7959    9.0061 H   0  0  0  0  0  0  0  0  0  0  0  0
   -0.1474   -7.8905    5.0661 H   0  0  0  0  0  0  0  0  0  0  0  0
  1  2  2  0
  1 46  1  0
  1 47  1  0
  2 44  1  0
  2  3  1  0
  3  4  2  0
  3  5  1  0
  5  6  1  0
  6 44  1  0
  6  7  1  0
  6 48  1  1
  7  9  1  0
  7  8  1  0
  7 49  1  1
  8  9  1  0
  9 10  1  0
  9 50  1  1
 10 20  1  0
 10 11  1  0
 10 51  1  1
 11 42  1  0
 11 12  1  0
 11 52  1  1
 12 25  1  0
 12 13  1  0
 12 53  1  1
 13 14  1  0
 13 54  1  0
 13 55  1  0
 14 19  1  0
 14 15  2  0
 15 16  1  0
 16 17  1  0
 16 18  1  0
 17 56  1  0
 17 57  1  0
 17 58  1  0
 18 19  1  0
 18 59  1  0
 18 60  1  0
 19 20  1  0
 19 61  1  6
 20 21  1  6
 20 22  1  0
 21 62  1  0
 21 63  1  0
 21 64  1  0
 22 23  1  0
 22 44  1  0
 22 65  1  6
 23 24  1  0
 23 66  1  0
 23 67  1  0
 24 25  1  0
 24 36  1  0
 24 68  1  6
 25 69  1  6
 25 26  1  0
 26 27  1  0
 26 35  1  0
 27 28  2  0
 27 70  1  0
 28 29  1  0
 29 30  1  0
 29 35  2  0
 30 32  2  0
 30 31  1  0
 31 71  1  0
 31 45  1  0
 32 33  1  0
 33 72  1  0
 33 34  2  0
 34 35  1  0
 36 42  1  0
 36 37  1  0
 36 73  1  6
 37 38  1  0
 37 74  1  0
 38 39  2  0
 38 40  1  0
 40 41  2  0
 40 75  1  0
 41 42  1  0
 41 76  1  0
 42 43  1  1
 43 77  1  0
 43 78  1  0
 43 79  1  0
 44 80  1  1
M  END
>  <i_m_ct_stereo_status>  (114) 
1

>  <s_m_source_file>  (114) 
/var/tmp/pbs.5076255.sched01/tmp2obefojl/44ql_32cm2.sdf

>  <i_m_source_file_index>  (114) 
3

>  <i_lp_mmshare_version>  (114) 
48012

>  <i_f3d_flags>  (114) 
0

>  <s_epik_input>  (114) 
W0NIM11bQ0BAXTEyW0NASF0zW0NASF00W0NASF0oTzQpW0NASF01W0NASF0oQyg9W0NIMl0pQyg9TylPNSlbQ0BIXTJbQ0gyXVtDQEhdNltDQEhdN1tDQF0oW0NIM10pKFtDSF09W0NIXUMoPU8pW05IXTcpW0NAQEhdM1tDQEBIXShbQ0gyXUM9OFtDQEBIXTFbQ0gyXU4oTjgpW0NIM10pW0NAQEhdNm4oW2NIXW45KWMoYzE5KW5bY0hdW25IXWNcMT1OL1tIXQ==

>  <s_epik_cmdline>  (114) 
J2VwaWtfcHl0aG9uJywgJy1waHQnLCAnMi4wJywgJy1waCcsICc3LjAnLCAnLXRuJywgJzgnLCAnLW1hJywgJzIwMCcsICctaW1hZScsICc8aW5maWxlLm1hZT4nLCAnLW9tYWUnLCAnPG91dGZpbGUubWFlPic=

>  <r_epik_Ionization_Penalty>  (114) 
0.00677841

>  <r_epik_Ionization_Penalty_Charging>  (114) 
0

>  <r_epik_Ionization_Penalty_Neutral>  (114) 
0.00677841

>  <r_epik_State_Penalty>  (114) 
0.803401

>  <r_epik_Charging_Adjusted_Penalty>  (114) 
0.803401

>  <i_epik_Tot_Q>  (114) 
0

>  <i_epik_Tot_abs_Q>  (114) 
0

>  <s_epik_Chemistry_Notes>  (114) 
This compound has an ester and may undergo hydrolysis at high or low pH. This compound has an imine and may undergo hydrolysis.

>  <s_lp_Force_Field>  (114) 
OPLS3e

>  <r_lp_Energy>  (114) 
152.177

>  <b_lp_Chiralities_Consistent>  (114) 
1

>  <s_lp_Variant>  (114) 
29:0-4

>  <s_i_glide_gridfile>  (114) 
pfpi4k_grid

>  <i_i_glide_lignum>  (114) 
3

>  <i_i_glide_rotatable_bonds>  (114) 
1

>  <r_i_docking_score>  (114) 
-1.67574

>  <r_i_glide_ligand_efficiency>  (114) 
-0.0380851

>  <r_i_glide_ligand_efficiency_sa>  (114) 
-0.134454

>  <r_i_glide_ligand_efficiency_ln>  (114) 
-0.350267

>  <r_i_glide_gscore>  (114) 
-1.67574

>  <r_i_glide_lipo>  (114) 
-0.00895552

>  <r_i_glide_hbond>  (114) 
-0.0105999

>  <r_i_glide_metal>  (114) 
-0

>  <r_i_glide_rewards>  (114) 
0

>  <r_i_glide_evdw>  (114) 
-32.0233

>  <r_i_glide_ecoul>  (114) 
-0.193765

>  <r_i_glide_erotb>  (114) 
0.0589375

>  <r_i_glide_esite>  (114) 
-0.132083

>  <r_i_glide_emodel>  (114) 
-31.6698

>  <r_i_glide_energy>  (114) 
-32.2171

>  <r_i_glide_einternal>  (114) 
0.0194471

>  <r_i_glide_intrahb_reward>  (114) 
-0

>  <i_i_glide_confnum>  (114) 
5

>  <i_i_glide_posenum>  (114) 
15

>  <r_i_glide_eff_state_penalty>  (114) 
0

>  <ligand_id>  (114) 
29

>  <original_smiles>  (114) 
C=C1C(=O)OC2C3OC3C3C4C5CC6=NN(C)CC6C3(C)C(CC(C5n3cnc5c(=N)[nH]cnc53)C3NC(=O)C=CC34C)C12

>  <smiles>  (114) 
[H]C([H])=C1C(=O)OC2([H])C3([H])OC3([H])C3([H])C4([H])C5([H])C([H])([H])C6=NN(C([H])([H])[H])C([H])([H])C6([H])C3(C([H])([H])[H])C([H])(C([H])([H])C([H])(C3([H])N([H])C(=O)C([H])=C([H])C34C([H])([H])[H])C5([H])n3c([H])nc4c(N([H])[H])nc([H])nc43)C12[H]

$$$$
29:3:2
     RDKit          3D

 80 89  0  0  1  0  0  0  0  0999 V2000
   -0.1797   -7.5020    5.1919 C   0  0  0  0  0  0  0  0  0  0  0  0
    0.6886   -6.8541    5.9922 C   0  0  0  0  0  0  0  0  0  0  0  0
    0.7985   -7.1361    7.4261 C   0  0  0  0  0  0  0  0  0  0  0  0
    0.2107   -8.0151    8.0529 O   0  0  0  0  0  0  0  0  0  0  0  0
    1.6597   -6.2758    7.9625 O   0  0  0  0  0  0  0  0  0  0  0  0
    2.1050   -5.2634    7.0782 C   0  0  1  0  0  0  0  0  0  0  0  0
    3.4841   -4.7155    7.5714 C   0  0  1  0  0  0  0  0  0  0  0  0
    4.5655   -5.6363    7.7223 O   0  0  0  0  0  0  0  0  0  0  0  0
    4.7688   -4.6197    6.7389 C   0  0  1  0  0  0  0  0  0  0  0  0
    4.5940   -4.8410    5.2305 C   0  0  1  0  0  0  0  0  0  0  0  0
    5.0399   -3.6075    4.3098 C   0  0  1  0  0  0  0  0  0  0  0  0
    5.2980   -3.8424    2.7748 C   0  0  1  0  0  0  0  0  0  0  0  0
    6.2411   -5.0178    2.4509 C   0  0  0  0  0  0  0  0  0  0  0  0
    5.4968   -6.3136    2.4182 C   0  0  0  0  0  0  0  0  0  0  0  0
    5.1748   -6.9278    1.3304 N   0  0  0  0  0  0  0  0  0  0  0  0
    4.4070   -8.0163    1.6170 N   0  0  0  0  0  0  0  0  0  0  0  0
    4.5312   -9.1204    0.6943 C   0  0  0  0  0  0  0  0  0  0  0  0
    4.5769   -8.3139    3.0129 C   0  0  0  0  0  0  0  0  0  0  0  0
    5.0704   -7.0158    3.6518 C   0  0  2  0  0  0  0  0  0  0  0  0
    4.1413   -6.3018    4.7266 C   0  0  1  0  0  0  0  0  0  0  0  0
    4.2272   -7.4341    5.8239 C   0  0  0  0  0  0  0  0  0  0  0  0
    2.6134   -6.1460    4.3880 C   0  0  2  0  0  0  0  0  0  0  0  0
    2.2489   -5.3290    3.0801 C   0  0  0  0  0  0  0  0  0  0  0  0
    2.6951   -3.8377    2.7162 C   0  0  2  0  0  0  0  0  0  0  0  0
    4.0104   -3.7841    1.8607 C   0  0  1  0  0  0  0  0  0  0  0  0
    4.0611   -2.7856    0.7700 N   0  0  0  0  0  0  0  0  0  0  0  0
    3.8024   -1.4774    0.7886 C   0  0  0  0  0  0  0  0  0  0  0  0
    3.8348   -0.6676   -0.1798 N   0  0  0  0  0  0  0  0  0  0  0  0
    4.1323   -1.5498   -1.1183 C   0  0  0  0  0  0  0  0  0  0  0  0
    4.3114   -1.4106   -2.4970 C   0  0  0  0  0  0  0  0  0  0  0  0
    4.2052   -0.2209   -3.1167 N   0  0  0  0  0  0  0  0  0  0  0  0
    4.5960   -2.5227   -3.2056 N   0  0  0  0  0  0  0  0  0  0  0  0
    4.6762   -3.7011   -2.5724 C   0  0  0  0  0  0  0  0  0  0  0  0
    4.5384   -3.9811   -1.2733 N   0  0  0  0  0  0  0  0  0  0  0  0
    4.2696   -2.8701   -0.5706 C   0  0  0  0  0  0  0  0  0  0  0  0
    2.6504   -2.7224    3.8423 C   0  0  2  0  0  0  0  0  0  0  0  0
    1.8655   -1.5194    3.4685 N   0  0  0  0  0  0  0  0  0  0  0  0
    2.3042   -0.2349    3.3157 C   0  0  0  0  0  0  0  0  0  0  0  0
    1.5749    0.6255    2.8612 O   0  0  0  0  0  0  0  0  0  0  0  0
    3.7935   -0.0590    3.3609 C   0  0  0  0  0  0  0  0  0  0  0  0
    4.6013   -1.0666    3.7568 C   0  0  0  0  0  0  0  0  0  0  0  0
    4.0722   -2.3376    4.4336 C   0  0  2  0  0  0  0  0  0  0  0  0
    3.9234   -1.8046    5.8836 C   0  0  0  0  0  0  0  0  0  0  0  0
    1.6630   -5.7489    5.6223 C   0  0  1  0  0  0  0  0  0  0  0  0
    4.3500   -0.1530   -4.1102 H   0  0  0  0  0  0  0  0  0  0  0  0
   -0.2429   -7.2721    4.1407 H   0  0  0  0  0  0  0  0  0  0  0  0
   -0.8308   -8.2824    5.5680 H   0  0  0  0  0  0  0  0  0  0  0  0
    1.4241   -4.4357    7.2791 H   0  0  0  0  0  0  0  0  0  0  0  0
    3.3868   -4.0539    8.4352 H   0  0  0  0  0  0  0  0  0  0  0  0
    5.5312   -3.8954    7.0286 H   0  0  0  0  0  0  0  0  0  0  0  0
    3.6257   -4.4112    5.2887 H   0  0  0  0  0  0  0  0  0  0  0  0
    6.0067   -3.3087    4.7215 H   0  0  0  0  0  0  0  0  0  0  0  0
    5.9176   -2.9874    2.5049 H   0  0  0  0  0  0  0  0  0  0  0  0
    6.7244   -4.8475    1.4874 H   0  0  0  0  0  0  0  0  0  0  0  0
    7.0554   -5.0690    3.1739 H   0  0  0  0  0  0  0  0  0  0  0  0
    3.8393   -9.9121    0.9869 H   0  0  0  0  0  0  0  0  0  0  0  0
    5.5446   -9.5113    0.7646 H   0  0  0  0  0  0  0  0  0  0  0  0
    4.3174   -8.8214   -0.3209 H   0  0  0  0  0  0  0  0  0  0  0  0
    3.6982   -8.8211    3.4168 H   0  0  0  0  0  0  0  0  0  0  0  0
    5.3901   -9.0422    3.0615 H   0  0  0  0  0  0  0  0  0  0  0  0
    5.9989   -7.2649    4.1581 H   0  0  0  0  0  0  0  0  0  0  0  0
    4.0186   -8.4377    5.4599 H   0  0  0  0  0  0  0  0  0  0  0  0
    3.5141   -7.3608    6.6332 H   0  0  0  0  0  0  0  0  0  0  0  0
    5.2201   -7.4899    6.2751 H   0  0  0  0  0  0  0  0  0  0  0  0
    2.3051   -7.1579    4.1111 H   0  0  0  0  0  0  0  0  0  0  0  0
    2.5161   -5.9619    2.2316 H   0  0  0  0  0  0  0  0  0  0  0  0
    1.1583   -5.3449    3.0268 H   0  0  0  0  0  0  0  0  0  0  0  0
    1.8920   -3.5938    2.0219 H   0  0  0  0  0  0  0  0  0  0  0  0
    3.9699   -4.6418    1.2093 H   0  0  0  0  0  0  0  0  0  0  0  0
    3.3884   -1.1922    1.5565 H   0  0  0  0  0  0  0  0  0  0  0  0
    4.0021    0.6166   -2.5870 H   0  0  0  0  0  0  0  0  0  0  0  0
    4.8909   -4.5580   -3.1937 H   0  0  0  0  0  0  0  0  0  0  0  0
    2.0455   -3.1311    4.6470 H   0  0  0  0  0  0  0  0  0  0  0  0
    0.8528   -1.6483    3.4197 H   0  0  0  0  0  0  0  0  0  0  0  0
    4.2269    0.6029    2.6006 H   0  0  0  0  0  0  0  0  0  0  0  0
    5.6777   -0.9457    3.6246 H   0  0  0  0  0  0  0  0  0  0  0  0
    3.2795   -2.4194    6.4968 H   0  0  0  0  0  0  0  0  0  0  0  0
    3.4616   -0.8118    5.9166 H   0  0  0  0  0  0  0  0  0  0  0  0
    4.8883   -1.7075    6.3839 H   0  0  0  0  0  0  0  0  0  0  0  0
    1.0196   -4.9491    5.2539 H   0  0  0  0  0  0  0  0  0  0  0  0
  1  2  2  0
  1 46  1  0
  1 47  1  0
  2 44  1  0
  2  3  1  0
  3  4  2  0
  3  5  1  0
  5  6  1  0
  6 44  1  0
  6  7  1  0
  6 48  1  1
  7  9  1  0
  7  8  1  0
  7 49  1  1
  8  9  1  0
  9 10  1  0
  9 50  1  6
 10 20  1  0
 10 11  1  0
 10 51  1  1
 11 42  1  0
 11 12  1  0
 11 52  1  1
 12 25  1  0
 12 13  1  0
 12 53  1  6
 13 14  1  0
 13 54  1  0
 13 55  1  0
 14 19  1  0
 14 15  2  0
 15 16  1  0
 16 17  1  0
 16 18  1  0
 17 56  1  0
 17 57  1  0
 17 58  1  0
 18 19  1  0
 18 59  1  0
 18 60  1  0
 19 20  1  0
 19 61  1  1
 20 21  1  1
 20 22  1  0
 21 62  1  0
 21 63  1  0
 21 64  1  0
 22 23  1  0
 22 44  1  0
 22 65  1  6
 23 24  1  0
 23 66  1  0
 23 67  1  0
 24 25  1  0
 24 36  1  0
 24 68  1  6
 25 69  1  6
 25 26  1  0
 26 27  1  0
 26 35  1  0
 27 28  2  0
 27 70  1  0
 28 29  1  0
 29 30  1  0
 29 35  2  0
 30 32  2  0
 30 31  1  0
 31 71  1  0
 31 45  1  0
 32 33  1  0
 33 72  1  0
 33 34  2  0
 34 35  1  0
 36 42  1  0
 36 37  1  0
 36 73  1  1
 37 38  1  0
 37 74  1  0
 38 39  2  0
 38 40  1  0
 40 41  2  0
 40 75  1  0
 41 42  1  0
 41 76  1  0
 42 43  1  1
 43 77  1  0
 43 78  1  0
 43 79  1  0
 44 80  1  6
M  END
>  <i_m_ct_stereo_status>  (115) 
1

>  <s_m_source_file>  (115) 
/var/tmp/pbs.5076255.sched01/tmp2obefojl/44ql_32cm2.sdf

>  <i_m_source_file_index>  (115) 
3

>  <i_lp_mmshare_version>  (115) 
48012

>  <i_f3d_flags>  (115) 
0

>  <s_epik_input>  (115) 
W0NIM11bQ0BAXTEyW0NASF0zW0NASF00W0NASF0oTzQpW0NASF01W0NASF0oQyg9W0NIMl0pQyg9TylPNSlbQ0BIXTJbQ0gyXVtDQEhdNltDQEhdN1tDQF0oW0NIM10pKFtDSF09W0NIXUMoPU8pW05IXTcpW0NAQEhdM1tDQEBIXShbQ0gyXUM9OFtDQEBIXTFbQ0gyXU4oTjgpW0NIM10pW0NAQEhdNm4oW2NIXW45KWMoYzE5KW5bY0hdW25IXWNcMT1OL1tIXQ==

>  <s_epik_cmdline>  (115) 
J2VwaWtfcHl0aG9uJywgJy1waHQnLCAnMi4wJywgJy1waCcsICc3LjAnLCAnLXRuJywgJzgnLCAnLW1hJywgJzIwMCcsICctaW1hZScsICc8aW5maWxlLm1hZT4nLCAnLW9tYWUnLCAnPG91dGZpbGUubWFlPic=

>  <r_epik_Ionization_Penalty>  (115) 
0.00677841

>  <r_epik_Ionization_Penalty_Charging>  (115) 
0

>  <r_epik_Ionization_Penalty_Neutral>  (115) 
0.00677841

>  <r_epik_State_Penalty>  (115) 
0.803401

>  <r_epik_Charging_Adjusted_Penalty>  (115) 
0.803401

>  <i_epik_Tot_Q>  (115) 
0

>  <i_epik_Tot_abs_Q>  (115) 
0

>  <s_epik_Chemistry_Notes>  (115) 
This compound has an ester and may undergo hydrolysis at high or low pH. This compound has an imine and may undergo hydrolysis.

>  <s_lp_Force_Field>  (115) 
OPLS3e

>  <r_lp_Energy>  (115) 
152.177

>  <b_lp_Chiralities_Consistent>  (115) 
1

>  <s_lp_Variant>  (115) 
29:0-4

>  <s_i_glide_gridfile>  (115) 
pfpi4k_grid

>  <i_i_glide_lignum>  (115) 
3

>  <i_i_glide_rotatable_bonds>  (115) 
1

>  <r_i_docking_score>  (115) 
0.183724

>  <r_i_glide_ligand_efficiency>  (115) 
0.00417555

>  <r_i_glide_ligand_efficiency_sa>  (115) 
0.0147411

>  <r_i_glide_ligand_efficiency_ln>  (115) 
0.0384023

>  <r_i_glide_gscore>  (115) 
0.183724

>  <r_i_glide_lipo>  (115) 
-0.14486

>  <r_i_glide_hbond>  (115) 
0

>  <r_i_glide_metal>  (115) 
-0

>  <r_i_glide_rewards>  (115) 
-0.0224132

>  <r_i_glide_evdw>  (115) 
-33.3221

>  <r_i_glide_ecoul>  (115) 
-1.66098

>  <r_i_glide_erotb>  (115) 
0.0589375

>  <r_i_glide_esite>  (115) 
-0.0567361

>  <r_i_glide_emodel>  (115) 
-25.8813

>  <r_i_glide_energy>  (115) 
-34.9831

>  <r_i_glide_einternal>  (115) 
0.908291

>  <r_i_glide_intrahb_reward>  (115) 
-0

>  <i_i_glide_confnum>  (115) 
1

>  <i_i_glide_posenum>  (115) 
32

>  <r_i_glide_eff_state_penalty>  (115) 
0

>  <ligand_id>  (115) 
29

>  <original_smiles>  (115) 
C=C1C(=O)OC2C3OC3C3C4C5CC6=NN(C)CC6C3(C)C(CC(C5n3cnc5c(=N)[nH]cnc53)C3NC(=O)C=CC34C)C12

>  <smiles>  (115) 
[H]C([H])=C1C(=O)OC2([H])C3([H])OC3([H])C3([H])C4([H])C5([H])C([H])([H])C6=NN(C([H])([H])[H])C([H])([H])C6([H])C3(C([H])([H])[H])C([H])(C([H])([H])C([H])(C3([H])N([H])C(=O)C([H])=C([H])C34C([H])([H])[H])C5([H])n3c([H])nc4c(N([H])[H])nc([H])nc43)C12[H]

$$$$
29:4:0
     RDKit          3D

 80 89  0  0  1  0  0  0  0  0999 V2000
    0.3546   -8.8411    4.3553 C   0  0  0  0  0  0  0  0  0  0  0  0
    0.8686   -7.9200    5.1934 C   0  0  0  0  0  0  0  0  0  0  0  0
    0.5757   -7.9101    6.6254 C   0  0  0  0  0  0  0  0  0  0  0  0
   -0.1032   -8.7316    7.2422 O   0  0  0  0  0  0  0  0  0  0  0  0
    1.1238   -6.8192    7.1574 O   0  0  0  0  0  0  0  0  0  0  0  0
    1.9011   -6.0259    6.2692 C   0  0  1  0  0  0  0  0  0  0  0  0
    3.2177   -5.7250    6.9773 C   0  0  1  0  0  0  0  0  0  0  0  0
    4.1746   -6.7631    7.2469 O   0  0  0  0  0  0  0  0  0  0  0  0
    4.6111   -5.6978    6.3818 C   0  0  1  0  0  0  0  0  0  0  0  0
    5.0055   -5.9975    4.9388 C   0  0  2  0  0  0  0  0  0  0  0  0
    5.2162   -4.6348    4.1343 C   0  0  1  0  0  0  0  0  0  0  0  0
    5.5997   -4.7482    2.6195 C   0  0  1  0  0  0  0  0  0  0  0  0
    6.4388   -5.9072    2.1545 C   0  0  0  0  0  0  0  0  0  0  0  0
    6.2301   -7.2122    2.3495 C   0  0  0  0  0  0  0  0  0  0  0  0
    6.7890   -8.1979    1.5543 N   0  0  0  0  0  0  0  0  0  0  0  0
    5.8837   -9.2906    1.3378 N   0  0  0  0  0  0  0  0  0  0  0  0
    6.5603  -10.5461    1.7274 C   0  0  0  0  0  0  0  0  0  0  0  0
    4.7441   -8.9603    2.2120 C   0  0  0  0  0  0  0  0  0  0  0  0
    5.2611   -7.9375    3.2269 C   0  0  2  0  0  0  0  0  0  0  0  0
    4.2971   -7.2518    4.2677 C   0  0  1  0  0  0  0  0  0  0  0  0
    4.1548   -8.4663    5.2478 C   0  0  0  0  0  0  0  0  0  0  0  0
    2.8507   -6.9310    3.7857 C   0  0  2  0  0  0  0  0  0  0  0  0
    2.6249   -6.0955    2.4790 C   0  0  0  0  0  0  0  0  0  0  0  0
    3.0609   -4.6032    2.3072 C   0  0  2  0  0  0  0  0  0  0  0  0
    4.4482   -4.4871    1.6003 C   0  0  1  0  0  0  0  0  0  0  0  0
    4.5790   -3.2924    0.7135 N   0  0  0  0  0  0  0  0  0  0  0  0
    5.4799   -2.2136    0.7742 C   0  0  0  0  0  0  0  0  0  0  0  0
    5.3624   -1.2968   -0.1500 N   0  0  0  0  0  0  0  0  0  0  0  0
    4.3598   -1.8088   -0.9905 C   0  0  0  0  0  0  0  0  0  0  0  0
    3.8427   -1.3707   -2.2285 C   0  0  0  0  0  0  0  0  0  0  0  0
    4.2247   -0.2321   -2.7721 N   0  0  0  0  0  0  0  0  0  0  0  0
    2.9634   -2.1549   -2.8848 N   0  0  0  0  0  0  0  0  0  0  0  0
    2.5366   -3.2633   -2.2706 C   0  0  0  0  0  0  0  0  0  0  0  0
    2.8687   -3.7663   -1.0665 N   0  0  0  0  0  0  0  0  0  0  0  0
    3.8465   -3.0235   -0.4539 C   0  0  0  0  0  0  0  0  0  0  0  0
    2.8795   -3.7187    3.5861 C   0  0  2  0  0  0  0  0  0  0  0  0
    2.1049   -2.5110    3.2963 N   0  0  0  0  0  0  0  0  0  0  0  0
    2.5663   -1.2626    3.0832 C   0  0  0  0  0  0  0  0  0  0  0  0
    1.7837   -0.3357    2.8570 O   0  0  0  0  0  0  0  0  0  0  0  0
    4.0160   -1.1379    3.1762 C   0  0  0  0  0  0  0  0  0  0  0  0
    4.7640   -2.1197    3.7357 C   0  0  0  0  0  0  0  0  0  0  0  0
    4.2144   -3.4020    4.3184 C   0  0  2  0  0  0  0  0  0  0  0  0
    3.9725   -2.9132    5.7865 C   0  0  0  0  0  0  0  0  0  0  0  0
    1.7238   -6.7152    4.8672 C   0  0  1  0  0  0  0  0  0  0  0  0
    3.7296    0.1247   -3.5788 H   0  0  0  0  0  0  0  0  0  0  0  0
    0.5322   -8.8223    3.2915 H   0  0  0  0  0  0  0  0  0  0  0  0
   -0.2851   -9.6305    4.7301 H   0  0  0  0  0  0  0  0  0  0  0  0
    1.3797   -5.0698    6.2131 H   0  0  0  0  0  0  0  0  0  0  0  0
    3.0782   -5.0793    7.8419 H   0  0  0  0  0  0  0  0  0  0  0  0
    5.3323   -5.0614    6.8960 H   0  0  0  0  0  0  0  0  0  0  0  0
    6.0300   -6.3555    5.0737 H   0  0  0  0  0  0  0  0  0  0  0  0
    6.1334   -4.2585    4.5976 H   0  0  0  0  0  0  0  0  0  0  0  0
    6.3334   -3.9757    2.4790 H   0  0  0  0  0  0  0  0  0  0  0  0
    7.1607   -5.6461    1.3882 H   0  0  0  0  0  0  0  0  0  0  0  0
    5.8699  -11.3938    1.6088 H   0  0  0  0  0  0  0  0  0  0  0  0
    6.8861  -10.5243    2.7672 H   0  0  0  0  0  0  0  0  0  0  0  0
    7.3897  -10.7434    1.0690 H   0  0  0  0  0  0  0  0  0  0  0  0
    3.9748   -8.5082    1.5848 H   0  0  0  0  0  0  0  0  0  0  0  0
    4.3196   -9.8513    2.6826 H   0  0  0  0  0  0  0  0  0  0  0  0
    5.9937   -8.4634    3.8506 H   0  0  0  0  0  0  0  0  0  0  0  0
    3.9401   -9.3971    4.7325 H   0  0  0  0  0  0  0  0  0  0  0  0
    3.3371   -8.4016    5.9535 H   0  0  0  0  0  0  0  0  0  0  0  0
    5.0550   -8.6344    5.8393 H   0  0  0  0  0  0  0  0  0  0  0  0
    2.5860   -7.9102    3.3908 H   0  0  0  0  0  0  0  0  0  0  0  0
    3.0283   -6.6716    1.6469 H   0  0  0  0  0  0  0  0  0  0  0  0
    1.5523   -6.1517    2.2630 H   0  0  0  0  0  0  0  0  0  0  0  0
    2.3368   -4.2336    1.5831 H   0  0  0  0  0  0  0  0  0  0  0  0
    4.4742   -5.3074    0.8793 H   0  0  0  0  0  0  0  0  0  0  0  0
    6.2640   -2.0860    1.5076 H   0  0  0  0  0  0  0  0  0  0  0  0
    4.7901    0.3798   -2.2086 H   0  0  0  0  0  0  0  0  0  0  0  0
    1.8385   -3.8531   -2.8567 H   0  0  0  0  0  0  0  0  0  0  0  0
    2.2408   -4.2451    4.2830 H   0  0  0  0  0  0  0  0  0  0  0  0
    1.1063   -2.6105    3.2453 H   0  0  0  0  0  0  0  0  0  0  0  0
    4.4956   -0.2446    2.7981 H   0  0  0  0  0  0  0  0  0  0  0  0
    5.8341   -1.9844    3.8279 H   0  0  0  0  0  0  0  0  0  0  0  0
    3.1501   -3.4102    6.2818 H   0  0  0  0  0  0  0  0  0  0  0  0
    3.6734   -1.8642    5.8380 H   0  0  0  0  0  0  0  0  0  0  0  0
    4.8854   -2.9713    6.3780 H   0  0  0  0  0  0  0  0  0  0  0  0
    0.9852   -6.0845    4.3786 H   0  0  0  0  0  0  0  0  0  0  0  0
    7.3682   -7.9063    0.7760 H   0  0  0  0  0  0  0  0  0  0  0  0
  1  2  2  0
  1 46  1  0
  1 47  1  0
  2 44  1  0
  2  3  1  0
  3  4  2  0
  3  5  1  0
  5  6  1  0
  6 44  1  0
  6  7  1  0
  6 48  1  6
  7  9  1  0
  7  8  1  0
  7 49  1  1
  8  9  1  0
  9 10  1  0
  9 50  1  1
 10 20  1  0
 10 11  1  0
 10 51  1  1
 11 42  1  0
 11 12  1  0
 11 52  1  1
 12 25  1  0
 12 13  1  0
 12 53  1  6
 13 14  2  0
 13 54  1  0
 14 19  1  0
 14 15  1  0
 15 16  1  0
 15 80  1  0
 16 17  1  0
 16 18  1  0
 17 55  1  0
 17 56  1  0
 17 57  1  0
 18 19  1  0
 18 58  1  0
 18 59  1  0
 19 20  1  0
 19 60  1  1
 20 21  1  1
 20 22  1  0
 21 61  1  0
 21 62  1  0
 21 63  1  0
 22 23  1  0
 22 44  1  0
 22 64  1  6
 23 24  1  0
 23 65  1  0
 23 66  1  0
 24 25  1  0
 24 36  1  0
 24 67  1  6
 25 68  1  6
 25 26  1  0
 26 27  1  0
 26 35  1  0
 27 28  2  0
 27 69  1  0
 28 29  1  0
 29 30  1  0
 29 35  2  0
 30 32  2  0
 30 31  1  0
 31 70  1  0
 31 45  1  0
 32 33  1  0
 33 71  1  0
 33 34  2  0
 34 35  1  0
 36 42  1  0
 36 37  1  0
 36 72  1  1
 37 38  1  0
 37 73  1  0
 38 39  2  0
 38 40  1  0
 40 41  2  0
 40 74  1  0
 41 42  1  0
 41 75  1  0
 42 43  1  1
 43 76  1  0
 43 77  1  0
 43 78  1  0
 44 79  1  6
M  END
>  <i_m_ct_stereo_status>  (116) 
1

>  <s_m_source_file>  (116) 
/var/tmp/pbs.5076255.sched01/tmp2obefojl/44ql_32cm2.sdf

>  <i_m_source_file_index>  (116) 
4

>  <i_lp_mmshare_version>  (116) 
48012

>  <i_f3d_flags>  (116) 
0

>  <s_epik_input>  (116) 
W0NIM11bQ0BAXTEyW0NASF0zW0NASF00W0NASF0oTzQpW0NASF01W0NASF0oQyg9W0NIMl0pQyg9TylPNSlbQ0BIXTJbQ0gyXVtDQEhdNltDQEhdN1tDQF0oW0NIM10pKFtDSF09W0NIXUMoPU8pW05IXTcpW0NAQEhdM1tDQEBIXShbQ0gyXUM9OFtDQEBIXTFbQ0gyXU4oTjgpW0NIM10pW0NAQEhdNm4oW2NIXW45KWMoYzE5KW5bY0hdW25IXWNcMT1OL1tIXQ==

>  <s_epik_cmdline>  (116) 
J2VwaWtfcHl0aG9uJywgJy1waHQnLCAnMi4wJywgJy1waCcsICc3LjAnLCAnLXRuJywgJzgnLCAnLW1hJywgJzIwMCcsICctaW1hZScsICc8aW5maWxlLm1hZT4nLCAnLW9tYWUnLCAnPG91dGZpbGUubWFlPic=

>  <r_epik_Ionization_Penalty>  (116) 
0.078679

>  <r_epik_Ionization_Penalty_Charging>  (116) 
0

>  <r_epik_Ionization_Penalty_Neutral>  (116) 
0.078679

>  <r_epik_State_Penalty>  (116) 
2.01697

>  <r_epik_Charging_Adjusted_Penalty>  (116) 
2.01697

>  <i_epik_Tot_Q>  (116) 
0

>  <i_epik_Tot_abs_Q>  (116) 
0

>  <s_epik_Chemistry_Notes>  (116) 
This compound has an ester and may undergo hydrolysis at high or low pH.

>  <s_lp_Force_Field>  (116) 
OPLS3e

>  <r_lp_Energy>  (116) 
130.973

>  <b_lp_Chiralities_Consistent>  (116) 
1

>  <s_lp_Variant>  (116) 
29:0-5

>  <s_i_glide_gridfile>  (116) 
pfpi4k_grid

>  <i_i_glide_lignum>  (116) 
4

>  <i_i_glide_rotatable_bonds>  (116) 
1

>  <r_i_docking_score>  (116) 
-2.70823

>  <r_i_glide_ligand_efficiency>  (116) 
-0.0615506

>  <r_i_glide_ligand_efficiency_sa>  (116) 
-0.217295

>  <r_i_glide_ligand_efficiency_ln>  (116) 
-0.566079

>  <r_i_glide_gscore>  (116) 
-2.70823

>  <r_i_glide_lipo>  (116) 
-0.160752

>  <r_i_glide_hbond>  (116) 
-0.298767

>  <r_i_glide_metal>  (116) 
-0

>  <r_i_glide_rewards>  (116) 
-0.245964

>  <r_i_glide_evdw>  (116) 
-33.9135

>  <r_i_glide_ecoul>  (116) 
-2.24337

>  <r_i_glide_erotb>  (116) 
0.0589375

>  <r_i_glide_esite>  (116) 
-0.0295004

>  <r_i_glide_emodel>  (116) 
-38.781

>  <r_i_glide_energy>  (116) 
-36.1569

>  <r_i_glide_einternal>  (116) 
1.18081

>  <r_i_glide_intrahb_reward>  (116) 
-0

>  <i_i_glide_confnum>  (116) 
1

>  <i_i_glide_posenum>  (116) 
36

>  <r_i_glide_eff_state_penalty>  (116) 
0

>  <ligand_id>  (116) 
29

>  <original_smiles>  (116) 
C=C1C(=O)OC2C3OC3C3C4C5CC6=NN(C)CC6C3(C)C(CC(C5n3cnc5c(=N)[nH]cnc53)C3NC(=O)C=CC34C)C12

>  <smiles>  (116) 
[H]C([H])=C1C(=O)OC2([H])C3([H])OC3([H])C3([H])C4([H])C5([H])C([H])=C6N([H])N(C([H])([H])[H])C([H])([H])C6([H])C3(C([H])([H])[H])C([H])(C([H])([H])C([H])(C3([H])N([H])C(=O)C([H])=C([H])C34C([H])([H])[H])C5([H])n3c([H])nc4c(N([H])[H])nc([H])nc43)C12[H]

$$$$
29:4:1
     RDKit          3D

 80 89  0  0  1  0  0  0  0  0999 V2000
    0.0955   -7.0743    4.6321 C   0  0  0  0  0  0  0  0  0  0  0  0
    0.7148   -6.0559    5.2598 C   0  0  0  0  0  0  0  0  0  0  0  0
    0.5681   -5.7949    6.6893 C   0  0  0  0  0  0  0  0  0  0  0  0
    0.0384   -6.4984    7.5260 O   0  0  0  0  0  0  0  0  0  0  0  0
    1.1837   -4.6485    6.9860 O   0  0  0  0  0  0  0  0  0  0  0  0
    1.9362   -4.0949    5.9193 C   0  0  1  0  0  0  0  0  0  0  0  0
    3.3179   -3.7793    6.5129 C   0  0  1  0  0  0  0  0  0  0  0  0
    4.2246   -4.8103    6.8750 O   0  0  0  0  0  0  0  0  0  0  0  0
    4.6565   -3.9337    5.8393 C   0  0  1  0  0  0  0  0  0  0  0  0
    4.9238   -4.4892    4.4335 C   0  0  2  0  0  0  0  0  0  0  0  0
    5.1344   -3.2931    3.3991 C   0  0  1  0  0  0  0  0  0  0  0  0
    5.4205   -3.6708    1.8989 C   0  0  1  0  0  0  0  0  0  0  0  0
    6.1776   -4.9494    1.5970 C   0  0  0  0  0  0  0  0  0  0  0  0
    5.8940   -6.1847    2.0240 C   0  0  0  0  0  0  0  0  0  0  0  0
    6.3313   -7.3003    1.3513 N   0  0  0  0  0  0  0  0  0  0  0  0
    5.3714   -8.3876    1.3790 N   0  0  0  0  0  0  0  0  0  0  0  0
    6.0109   -9.5909    1.9254 C   0  0  0  0  0  0  0  0  0  0  0  0
    4.3172   -7.8435    2.2590 C   0  0  0  0  0  0  0  0  0  0  0  0
    4.9568   -6.7009    3.0607 C   0  0  2  0  0  0  0  0  0  0  0  0
    4.1162   -5.7823    4.0249 C   0  0  1  0  0  0  0  0  0  0  0  0
    3.9711   -6.8141    5.2086 C   0  0  0  0  0  0  0  0  0  0  0  0
    2.6558   -5.4621    3.5946 C   0  0  2  0  0  0  0  0  0  0  0  0
    2.3839   -4.8407    2.1868 C   0  0  0  0  0  0  0  0  0  0  0  0
    2.8757   -3.4181    1.7379 C   0  0  2  0  0  0  0  0  0  0  0  0
    4.2041   -3.5139    0.9219 C   0  0  1  0  0  0  0  0  0  0  0  0
    4.3589   -2.5061   -0.1814 N   0  0  0  0  0  0  0  0  0  0  0  0
    5.2067   -1.3959   -0.2594 C   0  0  0  0  0  0  0  0  0  0  0  0
    5.0479   -0.6637   -1.3448 N   0  0  0  0  0  0  0  0  0  0  0  0
    4.1102   -1.3657   -2.0871 C   0  0  0  0  0  0  0  0  0  0  0  0
    3.6122   -1.1440   -3.3952 C   0  0  0  0  0  0  0  0  0  0  0  0
    3.9475   -0.0842   -4.1226 N   0  0  0  0  0  0  0  0  0  0  0  0
    2.7969   -2.0891   -3.9288 N   0  0  0  0  0  0  0  0  0  0  0  0
    2.4614   -3.1393   -3.1864 C   0  0  0  0  0  0  0  0  0  0  0  0
    2.8078   -3.4653   -1.9246 N   0  0  0  0  0  0  0  0  0  0  0  0
    3.6735   -2.5139   -1.4033 C   0  0  0  0  0  0  0  0  0  0  0  0
    2.8288   -2.3343    2.8626 C   0  0  2  0  0  0  0  0  0  0  0  0
    2.1035   -1.1324    2.4398 N   0  0  0  0  0  0  0  0  0  0  0  0
    2.6288    0.0172    2.0007 C   0  0  0  0  0  0  0  0  0  0  0  0
    1.8671    0.9540    1.6862 O   0  0  0  0  0  0  0  0  0  0  0  0
    4.0758    0.0392    1.9127 C   0  0  0  0  0  0  0  0  0  0  0  0
    4.8266   -0.8793    2.5948 C   0  0  0  0  0  0  0  0  0  0  0  0
    4.2328   -1.9790    3.4442 C   0  0  2  0  0  0  0  0  0  0  0  0
    4.1212   -1.2510    4.8328 C   0  0  0  0  0  0  0  0  0  0  0  0
    1.6170   -4.9891    4.6846 C   0  0  1  0  0  0  0  0  0  0  0  0
    3.5432    0.0773   -5.0444 H   0  0  0  0  0  0  0  0  0  0  0  0
    0.2096   -7.2598    3.5668 H   0  0  0  0  0  0  0  0  0  0  0  0
   -0.5505   -7.7568    5.1667 H   0  0  0  0  0  0  0  0  0  0  0  0
    1.4573   -3.1254    5.7593 H   0  0  0  0  0  0  0  0  0  0  0  0
    3.2687   -2.9936    7.2562 H   0  0  0  0  0  0  0  0  0  0  0  0
    5.4392   -3.2790    6.1845 H   0  0  0  0  0  0  0  0  0  0  0  0
    5.9457   -4.8852    4.5619 H   0  0  0  0  0  0  0  0  0  0  0  0
    6.0763   -2.8798    3.7470 H   0  0  0  0  0  0  0  0  0  0  0  0
    6.1686   -2.9664    1.5855 H   0  0  0  0  0  0  0  0  0  0  0  0
    6.8344   -4.8479    0.7412 H   0  0  0  0  0  0  0  0  0  0  0  0
    5.2936  -10.4021    1.9736 H   0  0  0  0  0  0  0  0  0  0  0  0
    6.4025   -9.4341    2.9402 H   0  0  0  0  0  0  0  0  0  0  0  0
    6.8307   -9.9298    1.2744 H   0  0  0  0  0  0  0  0  0  0  0  0
    3.5308   -7.4294    1.6155 H   0  0  0  0  0  0  0  0  0  0  0  0
    3.8820   -8.6017    2.9093 H   0  0  0  0  0  0  0  0  0  0  0  0
    5.7010   -7.1485    3.7145 H   0  0  0  0  0  0  0  0  0  0  0  0
    3.6730   -7.8022    4.8683 H   0  0  0  0  0  0  0  0  0  0  0  0
    3.2126   -6.5857    5.9408 H   0  0  0  0  0  0  0  0  0  0  0  0
    4.8991   -6.9440    5.7616 H   0  0  0  0  0  0  0  0  0  0  0  0
    2.3057   -6.4739    3.3841 H   0  0  0  0  0  0  0  0  0  0  0  0
    2.6863   -5.5644    1.4352 H   0  0  0  0  0  0  0  0  0  0  0  0
    1.2993   -4.8634    2.0663 H   0  0  0  0  0  0  0  0  0  0  0  0
    2.1365   -3.1195    0.9967 H   0  0  0  0  0  0  0  0  0  0  0  0
    4.1473   -4.4659    0.3853 H   0  0  0  0  0  0  0  0  0  0  0  0
    5.9239   -1.1155    0.5314 H   0  0  0  0  0  0  0  0  0  0  0  0
    4.5236    0.6236   -3.6688 H   0  0  0  0  0  0  0  0  0  0  0  0
    1.8235   -3.8335   -3.7043 H   0  0  0  0  0  0  0  0  0  0  0  0
    2.2198   -2.6953    3.6727 H   0  0  0  0  0  0  0  0  0  0  0  0
    1.1034   -1.1856    2.4346 H   0  0  0  0  0  0  0  0  0  0  0  0
    4.5483    0.8606    1.4065 H   0  0  0  0  0  0  0  0  0  0  0  0
    5.9123   -0.7686    2.6371 H   0  0  0  0  0  0  0  0  0  0  0  0
    3.3077   -1.6079    5.4559 H   0  0  0  0  0  0  0  0  0  0  0  0
    3.8812   -0.1910    4.7354 H   0  0  0  0  0  0  0  0  0  0  0  0
    5.0731   -1.2703    5.3687 H   0  0  0  0  0  0  0  0  0  0  0  0
    0.8832   -4.4041    4.1461 H   0  0  0  0  0  0  0  0  0  0  0  0
    6.8725   -7.1786    0.5135 H   0  0  0  0  0  0  0  0  0  0  0  0
  1  2  2  0
  1 46  1  0
  1 47  1  0
  2 44  1  0
  2  3  1  0
  3  4  2  0
  3  5  1  0
  5  6  1  0
  6 44  1  0
  6  7  1  0
  6 48  1  6
  7  9  1  0
  7  8  1  0
  7 49  1  1
  8  9  1  0
  9 10  1  0
  9 50  1  1
 10 20  1  0
 10 11  1  0
 10 51  1  1
 11 42  1  0
 11 12  1  0
 11 52  1  1
 12 25  1  0
 12 13  1  0
 12 53  1  6
 13 14  2  0
 13 54  1  0
 14 19  1  0
 14 15  1  0
 15 16  1  0
 15 80  1  0
 16 17  1  0
 16 18  1  0
 17 55  1  0
 17 56  1  0
 17 57  1  0
 18 19  1  0
 18 58  1  0
 18 59  1  0
 19 20  1  0
 19 60  1  1
 20 21  1  1
 20 22  1  0
 21 61  1  0
 21 62  1  0
 21 63  1  0
 22 23  1  0
 22 44  1  0
 22 64  1  6
 23 24  1  0
 23 65  1  0
 23 66  1  0
 24 25  1  0
 24 36  1  0
 24 67  1  6
 25 68  1  6
 25 26  1  0
 26 27  1  0
 26 35  1  0
 27 28  2  0
 27 69  1  0
 28 29  1  0
 29 30  1  0
 29 35  2  0
 30 32  2  0
 30 31  1  0
 31 70  1  0
 31 45  1  0
 32 33  1  0
 33 71  1  0
 33 34  2  0
 34 35  1  0
 36 42  1  0
 36 37  1  0
 36 72  1  1
 37 38  1  0
 37 73  1  0
 38 39  2  0
 38 40  1  0
 40 41  2  0
 40 74  1  0
 41 42  1  0
 41 75  1  0
 42 43  1  1
 43 76  1  0
 43 77  1  0
 43 78  1  0
 44 79  1  6
M  END
>  <i_m_ct_stereo_status>  (117) 
1

>  <s_m_source_file>  (117) 
/var/tmp/pbs.5076255.sched01/tmp2obefojl/44ql_32cm2.sdf

>  <i_m_source_file_index>  (117) 
4

>  <i_lp_mmshare_version>  (117) 
48012

>  <i_f3d_flags>  (117) 
0

>  <s_epik_input>  (117) 
W0NIM11bQ0BAXTEyW0NASF0zW0NASF00W0NASF0oTzQpW0NASF01W0NASF0oQyg9W0NIMl0pQyg9TylPNSlbQ0BIXTJbQ0gyXVtDQEhdNltDQEhdN1tDQF0oW0NIM10pKFtDSF09W0NIXUMoPU8pW05IXTcpW0NAQEhdM1tDQEBIXShbQ0gyXUM9OFtDQEBIXTFbQ0gyXU4oTjgpW0NIM10pW0NAQEhdNm4oW2NIXW45KWMoYzE5KW5bY0hdW25IXWNcMT1OL1tIXQ==

>  <s_epik_cmdline>  (117) 
J2VwaWtfcHl0aG9uJywgJy1waHQnLCAnMi4wJywgJy1waCcsICc3LjAnLCAnLXRuJywgJzgnLCAnLW1hJywgJzIwMCcsICctaW1hZScsICc8aW5maWxlLm1hZT4nLCAnLW9tYWUnLCAnPG91dGZpbGUubWFlPic=

>  <r_epik_Ionization_Penalty>  (117) 
0.078679

>  <r_epik_Ionization_Penalty_Charging>  (117) 
0

>  <r_epik_Ionization_Penalty_Neutral>  (117) 
0.078679

>  <r_epik_State_Penalty>  (117) 
2.01697

>  <r_epik_Charging_Adjusted_Penalty>  (117) 
2.01697

>  <i_epik_Tot_Q>  (117) 
0

>  <i_epik_Tot_abs_Q>  (117) 
0

>  <s_epik_Chemistry_Notes>  (117) 
This compound has an ester and may undergo hydrolysis at high or low pH.

>  <s_lp_Force_Field>  (117) 
OPLS3e

>  <r_lp_Energy>  (117) 
130.973

>  <b_lp_Chiralities_Consistent>  (117) 
1

>  <s_lp_Variant>  (117) 
29:0-5

>  <s_i_glide_gridfile>  (117) 
pfpi4k_grid

>  <i_i_glide_lignum>  (117) 
4

>  <i_i_glide_rotatable_bonds>  (117) 
1

>  <r_i_docking_score>  (117) 
-2.69645

>  <r_i_glide_ligand_efficiency>  (117) 
-0.061283

>  <r_i_glide_ligand_efficiency_sa>  (117) 
-0.21635

>  <r_i_glide_ligand_efficiency_ln>  (117) 
-0.563617

>  <r_i_glide_gscore>  (117) 
-2.69645

>  <r_i_glide_lipo>  (117) 
-0.511416

>  <r_i_glide_hbond>  (117) 
0

>  <r_i_glide_metal>  (117) 
-0

>  <r_i_glide_rewards>  (117) 
-0.231747

>  <r_i_glide_evdw>  (117) 
-35.8606

>  <r_i_glide_ecoul>  (117) 
-0.760752

>  <r_i_glide_erotb>  (117) 
0.0589375

>  <r_i_glide_esite>  (117) 
-0.105084

>  <r_i_glide_emodel>  (117) 
-39.3258

>  <r_i_glide_energy>  (117) 
-36.6213

>  <r_i_glide_einternal>  (117) 
0.333441

>  <r_i_glide_intrahb_reward>  (117) 
-0

>  <i_i_glide_confnum>  (117) 
1

>  <i_i_glide_posenum>  (117) 
33

>  <r_i_glide_eff_state_penalty>  (117) 
0

>  <ligand_id>  (117) 
29

>  <original_smiles>  (117) 
C=C1C(=O)OC2C3OC3C3C4C5CC6=NN(C)CC6C3(C)C(CC(C5n3cnc5c(=N)[nH]cnc53)C3NC(=O)C=CC34C)C12

>  <smiles>  (117) 
[H]C([H])=C1C(=O)OC2([H])C3([H])OC3([H])C3([H])C4([H])C5([H])C([H])=C6N([H])N(C([H])([H])[H])C([H])([H])C6([H])C3(C([H])([H])[H])C([H])(C([H])([H])C([H])(C3([H])N([H])C(=O)C([H])=C([H])C34C([H])([H])[H])C5([H])n3c([H])nc4c(N([H])[H])nc([H])nc43)C12[H]

$$$$
29:4:2
     RDKit          3D

 80 89  0  0  1  0  0  0  0  0999 V2000
   -1.6570   -4.2513    7.5284 C   0  0  0  0  0  0  0  0  0  0  0  0
   -0.3524   -4.2137    7.8611 C   0  0  0  0  0  0  0  0  0  0  0  0
    0.1027   -4.3700    9.2403 C   0  0  0  0  0  0  0  0  0  0  0  0
   -0.6047   -4.5613   10.2268 O   0  0  0  0  0  0  0  0  0  0  0  0
    1.4281   -4.2412    9.2658 O   0  0  0  0  0  0  0  0  0  0  0  0
    2.0412   -4.0211    8.0039 C   0  0  1  0  0  0  0  0  0  0  0  0
    3.2812   -4.9245    7.9656 C   0  0  1  0  0  0  0  0  0  0  0  0
    3.1512   -6.3451    7.9242 O   0  0  0  0  0  0  0  0  0  0  0  0
    3.7933   -5.7414    6.7998 C   0  0  1  0  0  0  0  0  0  0  0  0
    3.1659   -5.8243    5.4051 C   0  0  2  0  0  0  0  0  0  0  0  0
    3.9486   -4.8809    4.3676 C   0  0  1  0  0  0  0  0  0  0  0  0
    3.4369   -4.8262    2.8744 C   0  0  1  0  0  0  0  0  0  0  0  0
    2.8254   -6.0750    2.2683 C   0  0  0  0  0  0  0  0  0  0  0  0
    1.8426   -6.8444    2.7586 C   0  0  0  0  0  0  0  0  0  0  0  0
    1.0656   -7.6650    1.9563 N   0  0  0  0  0  0  0  0  0  0  0  0
   -0.3043   -7.7078    2.3848 N   0  0  0  0  0  0  0  0  0  0  0  0
   -0.7175   -9.1036    2.6017 C   0  0  0  0  0  0  0  0  0  0  0  0
   -0.2777   -6.9218    3.6141 C   0  0  0  0  0  0  0  0  0  0  0  0
    1.1739   -6.8775    4.0984 C   0  0  2  0  0  0  0  0  0  0  0  0
    1.5865   -5.9915    5.3459 C   0  0  1  0  0  0  0  0  0  0  0  0
    1.0177   -6.9410    6.4755 C   0  0  0  0  0  0  0  0  0  0  0  0
    0.8267   -4.6345    5.5429 C   0  0  2  0  0  0  0  0  0  0  0  0
    0.7803   -3.5846    4.3824 C   0  0  0  0  0  0  0  0  0  0  0  0
    2.0393   -2.8456    3.8009 C   0  0  2  0  0  0  0  0  0  0  0  0
    2.5403   -3.5845    2.5006 C   0  0  1  0  0  0  0  0  0  0  0  0
    3.0758   -2.7047    1.4023 N   0  0  0  0  0  0  0  0  0  0  0  0
    3.6734   -1.4877    1.4990 C   0  0  0  0  0  0  0  0  0  0  0  0
    4.1303   -0.9006    0.4597 N   0  0  0  0  0  0  0  0  0  0  0  0
    3.6110   -1.6830   -0.5222 C   0  0  0  0  0  0  0  0  0  0  0  0
    3.6033   -1.5326   -1.9122 C   0  0  0  0  0  0  0  0  0  0  0  0
    4.2235   -0.5096   -2.5199 N   0  0  0  0  0  0  0  0  0  0  0  0
    2.9440   -2.4589   -2.6211 N   0  0  0  0  0  0  0  0  0  0  0  0
    2.3128   -3.4669   -1.9824 C   0  0  0  0  0  0  0  0  0  0  0  0
    2.2583   -3.7522   -0.6880 N   0  0  0  0  0  0  0  0  0  0  0  0
    2.9402   -2.8186    0.0191 C   0  0  0  0  0  0  0  0  0  0  0  0
    3.1687   -2.4822    4.8535 C   0  0  2  0  0  0  0  0  0  0  0  0
    3.5632   -1.0562    4.8675 N   0  0  0  0  0  0  0  0  0  0  0  0
    4.6870   -0.5306    4.3550 C   0  0  0  0  0  0  0  0  0  0  0  0
    4.8808    0.6953    4.3183 O   0  0  0  0  0  0  0  0  0  0  0  0
    5.5132   -1.4847    3.6355 C   0  0  0  0  0  0  0  0  0  0  0  0
    5.3840   -2.8241    3.8201 C   0  0  0  0  0  0  0  0  0  0  0  0
    4.4184   -3.4151    4.8012 C   0  0  2  0  0  0  0  0  0  0  0  0
    5.2580   -3.3060    6.1011 C   0  0  0  0  0  0  0  0  0  0  0  0
    0.8528   -3.9643    6.9772 C   0  0  1  0  0  0  0  0  0  0  0  0
    4.1625   -0.4198   -3.5199 H   0  0  0  0  0  0  0  0  0  0  0  0
   -1.9887   -4.1183    6.5103 H   0  0  0  0  0  0  0  0  0  0  0  0
   -2.4248   -4.4389    8.2712 H   0  0  0  0  0  0  0  0  0  0  0  0
    2.4328   -3.0053    8.0539 H   0  0  0  0  0  0  0  0  0  0  0  0
    4.0261   -4.6115    8.6915 H   0  0  0  0  0  0  0  0  0  0  0  0
    4.8502   -5.9792    6.7962 H   0  0  0  0  0  0  0  0  0  0  0  0
    3.4850   -6.8231    5.1041 H   0  0  0  0  0  0  0  0  0  0  0  0
    4.8900   -5.4197    4.2838 H   0  0  0  0  0  0  0  0  0  0  0  0
    4.3512   -4.7103    2.2883 H   0  0  0  0  0  0  0  0  0  0  0  0
    3.0809   -6.2016    1.2238 H   0  0  0  0  0  0  0  0  0  0  0  0
   -1.7592   -9.0838    2.9197 H   0  0  0  0  0  0  0  0  0  0  0  0
   -0.1324   -9.6117    3.3724 H   0  0  0  0  0  0  0  0  0  0  0  0
   -0.6771   -9.6850    1.6730 H   0  0  0  0  0  0  0  0  0  0  0  0
   -0.5866   -5.9282    3.3206 H   0  0  0  0  0  0  0  0  0  0  0  0
   -1.0108   -7.2942    4.3260 H   0  0  0  0  0  0  0  0  0  0  0  0
    1.4254   -7.9006    4.3891 H   0  0  0  0  0  0  0  0  0  0  0  0
    0.0022   -7.2850    6.2807 H   0  0  0  0  0  0  0  0  0  0  0  0
    0.9305   -6.5026    7.4642 H   0  0  0  0  0  0  0  0  0  0  0  0
    1.6222   -7.8414    6.6015 H   0  0  0  0  0  0  0  0  0  0  0  0
   -0.2054   -4.9828    5.4763 H   0  0  0  0  0  0  0  0  0  0  0  0
    0.2244   -4.0291    3.5602 H   0  0  0  0  0  0  0  0  0  0  0  0
    0.0774   -2.8143    4.6967 H   0  0  0  0  0  0  0  0  0  0  0  0
    1.5910   -1.9116    3.4574 H   0  0  0  0  0  0  0  0  0  0  0  0
    1.6430   -3.9627    2.0214 H   0  0  0  0  0  0  0  0  0  0  0  0
    3.6037   -0.9645    2.3616 H   0  0  0  0  0  0  0  0  0  0  0  0
    4.6710    0.2106   -1.9602 H   0  0  0  0  0  0  0  0  0  0  0  0
    1.8000   -4.1622   -2.6017 H   0  0  0  0  0  0  0  0  0  0  0  0
    2.7208   -2.5832    5.8299 H   0  0  0  0  0  0  0  0  0  0  0  0
    2.8900   -0.4077    5.2153 H   0  0  0  0  0  0  0  0  0  0  0  0
    6.1775   -1.1442    2.8635 H   0  0  0  0  0  0  0  0  0  0  0  0
    6.0168   -3.4791    3.2289 H   0  0  0  0  0  0  0  0  0  0  0  0
    4.6522   -3.1783    6.9821 H   0  0  0  0  0  0  0  0  0  0  0  0
    5.8892   -2.4180    6.1219 H   0  0  0  0  0  0  0  0  0  0  0  0
    5.9436   -4.1404    6.2189 H   0  0  0  0  0  0  0  0  0  0  0  0
    0.7434   -2.8976    6.7883 H   0  0  0  0  0  0  0  0  0  0  0  0
    1.2104   -7.6192    0.9567 H   0  0  0  0  0  0  0  0  0  0  0  0
  1  2  2  0
  1 46  1  0
  1 47  1  0
  2 44  1  0
  2  3  1  0
  3  4  2  0
  3  5  1  0
  5  6  1  0
  6 44  1  0
  6  7  1  0
  6 48  1  1
  7  9  1  0
  7  8  1  0
  7 49  1  1
  8  9  1  0
  9 10  1  0
  9 50  1  6
 10 20  1  0
 10 11  1  0
 10 51  1  6
 11 42  1  0
 11 12  1  0
 11 52  1  6
 12 25  1  0
 12 13  1  0
 12 53  1  6
 13 14  2  0
 13 54  1  0
 14 19  1  0
 14 15  1  0
 15 16  1  0
 15 80  1  0
 16 17  1  0
 16 18  1  0
 17 55  1  0
 17 56  1  0
 17 57  1  0
 18 19  1  0
 18 58  1  0
 18 59  1  0
 19 20  1  0
 19 60  1  1
 20 21  1  1
 20 22  1  0
 21 61  1  0
 21 62  1  0
 21 63  1  0
 22 23  1  0
 22 44  1  0
 22 64  1  1
 23 24  1  0
 23 65  1  0
 23 66  1  0
 24 25  1  0
 24 36  1  0
 24 67  1  6
 25 68  1  6
 25 26  1  0
 26 27  1  0
 26 35  1  0
 27 28  2  0
 27 69  1  0
 28 29  1  0
 29 30  1  0
 29 35  2  0
 30 32  2  0
 30 31  1  0
 31 70  1  0
 31 45  1  0
 32 33  1  0
 33 71  1  0
 33 34  2  0
 34 35  1  0
 36 42  1  0
 36 37  1  0
 36 72  1  1
 37 38  1  0
 37 73  1  0
 38 39  2  0
 38 40  1  0
 40 41  2  0
 40 74  1  0
 41 42  1  0
 41 75  1  0
 42 43  1  1
 43 76  1  0
 43 77  1  0
 43 78  1  0
 44 79  1  6
M  END
>  <i_m_ct_stereo_status>  (118) 
1

>  <s_m_source_file>  (118) 
/var/tmp/pbs.5076255.sched01/tmp2obefojl/44ql_32cm2.sdf

>  <i_m_source_file_index>  (118) 
4

>  <i_lp_mmshare_version>  (118) 
48012

>  <i_f3d_flags>  (118) 
0

>  <s_epik_input>  (118) 
W0NIM11bQ0BAXTEyW0NASF0zW0NASF00W0NASF0oTzQpW0NASF01W0NASF0oQyg9W0NIMl0pQyg9TylPNSlbQ0BIXTJbQ0gyXVtDQEhdNltDQEhdN1tDQF0oW0NIM10pKFtDSF09W0NIXUMoPU8pW05IXTcpW0NAQEhdM1tDQEBIXShbQ0gyXUM9OFtDQEBIXTFbQ0gyXU4oTjgpW0NIM10pW0NAQEhdNm4oW2NIXW45KWMoYzE5KW5bY0hdW25IXWNcMT1OL1tIXQ==

>  <s_epik_cmdline>  (118) 
J2VwaWtfcHl0aG9uJywgJy1waHQnLCAnMi4wJywgJy1waCcsICc3LjAnLCAnLXRuJywgJzgnLCAnLW1hJywgJzIwMCcsICctaW1hZScsICc8aW5maWxlLm1hZT4nLCAnLW9tYWUnLCAnPG91dGZpbGUubWFlPic=

>  <r_epik_Ionization_Penalty>  (118) 
0.078679

>  <r_epik_Ionization_Penalty_Charging>  (118) 
0

>  <r_epik_Ionization_Penalty_Neutral>  (118) 
0.078679

>  <r_epik_State_Penalty>  (118) 
2.01697

>  <r_epik_Charging_Adjusted_Penalty>  (118) 
2.01697

>  <i_epik_Tot_Q>  (118) 
0

>  <i_epik_Tot_abs_Q>  (118) 
0

>  <s_epik_Chemistry_Notes>  (118) 
This compound has an ester and may undergo hydrolysis at high or low pH.

>  <s_lp_Force_Field>  (118) 
OPLS3e

>  <r_lp_Energy>  (118) 
130.973

>  <b_lp_Chiralities_Consistent>  (118) 
1

>  <s_lp_Variant>  (118) 
29:0-5

>  <s_i_glide_gridfile>  (118) 
pfpi4k_grid

>  <i_i_glide_lignum>  (118) 
4

>  <i_i_glide_rotatable_bonds>  (118) 
1

>  <r_i_docking_score>  (118) 
-2.50477

>  <r_i_glide_ligand_efficiency>  (118) 
-0.0569266

>  <r_i_glide_ligand_efficiency_sa>  (118) 
-0.200971

>  <r_i_glide_ligand_efficiency_ln>  (118) 
-0.523552

>  <r_i_glide_gscore>  (118) 
-2.50477

>  <r_i_glide_lipo>  (118) 
-0.195143

>  <r_i_glide_hbond>  (118) 
-0.240585

>  <r_i_glide_metal>  (118) 
-0

>  <r_i_glide_rewards>  (118) 
-0.27673

>  <r_i_glide_evdw>  (118) 
-27.5562

>  <r_i_glide_ecoul>  (118) 
-3.62143

>  <r_i_glide_erotb>  (118) 
0.0589375

>  <r_i_glide_esite>  (118) 
-0.115182

>  <r_i_glide_emodel>  (118) 
-31.5909

>  <r_i_glide_energy>  (118) 
-31.1777

>  <r_i_glide_einternal>  (118) 
0.776038

>  <r_i_glide_intrahb_reward>  (118) 
-0

>  <i_i_glide_confnum>  (118) 
4

>  <i_i_glide_posenum>  (118) 
15

>  <r_i_glide_eff_state_penalty>  (118) 
0

>  <ligand_id>  (118) 
29

>  <original_smiles>  (118) 
C=C1C(=O)OC2C3OC3C3C4C5CC6=NN(C)CC6C3(C)C(CC(C5n3cnc5c(=N)[nH]cnc53)C3NC(=O)C=CC34C)C12

>  <smiles>  (118) 
[H]C([H])=C1C(=O)OC2([H])C3([H])OC3([H])C3([H])C4([H])C5([H])C([H])=C6N([H])N(C([H])([H])[H])C([H])([H])C6([H])C3(C([H])([H])[H])C([H])(C([H])([H])C([H])(C3([H])N([H])C(=O)C([H])=C([H])C34C([H])([H])[H])C5([H])n3c([H])nc4c(N([H])[H])nc([H])nc43)C12[H]

$$$$
29:5:0
     RDKit          3D

 80 89  0  0  1  0  0  0  0  0999 V2000
   -0.5656   -9.3662    2.6852 C   0  0  0  0  0  0  0  0  0  0  0  0
    0.4858   -9.4438    3.5136 C   0  0  0  0  0  0  0  0  0  0  0  0
    1.1164  -10.7165    3.8690 C   0  0  0  0  0  0  0  0  0  0  0  0
    0.8675  -11.8116    3.3730 O   0  0  0  0  0  0  0  0  0  0  0  0
    2.0268  -10.4830    4.8210 O   0  0  0  0  0  0  0  0  0  0  0  0
    2.0493   -9.1428    5.2916 C   0  0  1  0  0  0  0  0  0  0  0  0
    3.4556   -8.7644    5.8431 C   0  0  1  0  0  0  0  0  0  0  0  0
    4.5576   -8.8358    4.9479 O   0  0  0  0  0  0  0  0  0  0  0  0
    4.2913   -7.5402    5.4767 C   0  0  1  0  0  0  0  0  0  0  0  0
    3.5874   -6.4631    4.6660 C   0  0  1  0  0  0  0  0  0  0  0  0
    3.5560   -5.0309    5.3251 C   0  0  1  0  0  0  0  0  0  0  0  0
    3.2834   -3.8391    4.3836 C   0  0  1  0  0  0  0  0  0  0  0  0
    4.2257   -3.6821    3.2366 C   0  0  0  0  0  0  0  0  0  0  0  0
    4.2232   -4.5052    2.1971 C   0  0  0  0  0  0  0  0  0  0  0  0
    4.5305   -4.0812    0.9292 N   0  0  0  0  0  0  0  0  0  0  0  0
    3.7472   -4.7608   -0.0610 N   0  0  0  0  0  0  0  0  0  0  0  0
    2.9751   -3.7218   -0.7633 C   0  0  0  0  0  0  0  0  0  0  0  0
    2.8911   -5.6662    0.7453 C   0  0  0  0  0  0  0  0  0  0  0  0
    3.6455   -5.8720    2.0384 C   0  0  2  0  0  0  0  0  0  0  0  0
    3.1107   -6.8189    3.1942 C   0  0  1  0  0  0  0  0  0  0  0  0
    3.6576   -8.1645    2.5901 C   0  0  0  0  0  0  0  0  0  0  0  0
    1.5704   -7.1075    3.3186 C   0  0  2  0  0  0  0  0  0  0  0  0
    0.5965   -5.8975    3.5237 C   0  0  0  0  0  0  0  0  0  0  0  0
    0.8346   -4.7115    4.5223 C   0  0  2  0  0  0  0  0  0  0  0  0
    1.8112   -3.6664    3.9109 C   0  0  1  0  0  0  0  0  0  0  0  0
    1.3343   -2.2643    3.9574 N   0  0  0  0  0  0  0  0  0  0  0  0
    0.4225   -1.6562    4.8170 C   0  0  0  0  0  0  0  0  0  0  0  0
    0.1772   -0.4050    4.6114 N   0  0  0  0  0  0  0  0  0  0  0  0
    0.9614   -0.0798    3.5126 C   0  0  0  0  0  0  0  0  0  0  0  0
    1.1913    1.0945    2.7603 C   0  0  0  0  0  0  0  0  0  0  0  0
    0.6109    2.2692    3.0462 N   0  0  0  0  0  0  0  0  0  0  0  0
    2.0275    1.0563    1.7040 N   0  0  0  0  0  0  0  0  0  0  0  0
    2.6238   -0.1050    1.3999 C   0  0  0  0  0  0  0  0  0  0  0  0
    2.5335   -1.2783    2.0179 N   0  0  0  0  0  0  0  0  0  0  0  0
    1.6846   -1.2385    3.0852 C   0  0  0  0  0  0  0  0  0  0  0  0
    1.0763   -5.0975    6.0277 C   0  0  2  0  0  0  0  0  0  0  0  0
    0.1045   -4.4818    6.9359 N   0  0  0  0  0  0  0  0  0  0  0  0
    0.3070   -3.5143    7.8482 C   0  0  0  0  0  0  0  0  0  0  0  0
   -0.5837   -3.1434    8.5945 O   0  0  0  0  0  0  0  0  0  0  0  0
    1.6397   -2.9291    7.8467 C   0  0  0  0  0  0  0  0  0  0  0  0
    2.6687   -3.5666    7.2487 C   0  0  0  0  0  0  0  0  0  0  0  0
    2.5465   -4.9069    6.5396 C   0  0  2  0  0  0  0  0  0  0  0  0
    2.8477   -5.9235    7.6715 C   0  0  0  0  0  0  0  0  0  0  0  0
    1.1485   -8.3244    4.2735 C   0  0  1  0  0  0  0  0  0  0  0  0
    0.7077    3.0543    2.4138 H   0  0  0  0  0  0  0  0  0  0  0  0
   -1.0542   -8.4318    2.4512 H   0  0  0  0  0  0  0  0  0  0  0  0
   -0.9666  -10.2577    2.2276 H   0  0  0  0  0  0  0  0  0  0  0  0
    1.4375   -9.2034    6.1918 H   0  0  0  0  0  0  0  0  0  0  0  0
    3.6738   -9.2206    6.8021 H   0  0  0  0  0  0  0  0  0  0  0  0
    5.0355   -7.2049    6.1991 H   0  0  0  0  0  0  0  0  0  0  0  0
    2.6675   -6.6794    5.1445 H   0  0  0  0  0  0  0  0  0  0  0  0
    4.5490   -4.8631    5.7369 H   0  0  0  0  0  0  0  0  0  0  0  0
    3.5268   -2.9512    4.9494 H   0  0  0  0  0  0  0  0  0  0  0  0
    4.5992   -2.6733    3.0967 H   0  0  0  0  0  0  0  0  0  0  0  0
    2.3237   -4.1637   -1.5198 H   0  0  0  0  0  0  0  0  0  0  0  0
    3.6374   -3.0124   -1.2618 H   0  0  0  0  0  0  0  0  0  0  0  0
    2.3498   -3.1717   -0.0589 H   0  0  0  0  0  0  0  0  0  0  0  0
    1.9417   -5.1660    0.9533 H   0  0  0  0  0  0  0  0  0  0  0  0
    2.7075   -6.6144    0.2419 H   0  0  0  0  0  0  0  0  0  0  0  0
    4.5928   -6.3253    1.7393 H   0  0  0  0  0  0  0  0  0  0  0  0
    3.3804   -8.2753    1.5452 H   0  0  0  0  0  0  0  0  0  0  0  0
    3.2724   -9.0706    3.0312 H   0  0  0  0  0  0  0  0  0  0  0  0
    4.7466   -8.2448    2.6293 H   0  0  0  0  0  0  0  0  0  0  0  0
    1.3166   -7.4397    2.3173 H   0  0  0  0  0  0  0  0  0  0  0  0
    0.4366   -5.4707    2.5369 H   0  0  0  0  0  0  0  0  0  0  0  0
   -0.3880   -6.3047    3.7472 H   0  0  0  0  0  0  0  0  0  0  0  0
   -0.1418   -4.2365    4.5059 H   0  0  0  0  0  0  0  0  0  0  0  0
    1.8171   -3.8692    2.8412 H   0  0  0  0  0  0  0  0  0  0  0  0
   -0.1013   -2.1683    5.6113 H   0  0  0  0  0  0  0  0  0  0  0  0
   -0.0243    2.2893    3.8300 H   0  0  0  0  0  0  0  0  0  0  0  0
    3.2433   -0.0730    0.5101 H   0  0  0  0  0  0  0  0  0  0  0  0
    0.8175   -6.1522    6.1209 H   0  0  0  0  0  0  0  0  0  0  0  0
   -0.8095   -4.9086    6.9396 H   0  0  0  0  0  0  0  0  0  0  0  0
    1.7933   -1.9841    8.3469 H   0  0  0  0  0  0  0  0  0  0  0  0
    3.6481   -3.1208    7.2607 H   0  0  0  0  0  0  0  0  0  0  0  0
    2.5516   -6.9416    7.4327 H   0  0  0  0  0  0  0  0  0  0  0  0
    2.3075   -5.6750    8.5853 H   0  0  0  0  0  0  0  0  0  0  0  0
    3.9063   -5.9148    7.9282 H   0  0  0  0  0  0  0  0  0  0  0  0
    0.3373   -7.9578    4.8962 H   0  0  0  0  0  0  0  0  0  0  0  0
    5.5323   -4.1032    0.7810 H   0  0  0  0  0  0  0  0  0  0  0  0
  1  2  2  0
  1 46  1  0
  1 47  1  0
  2 44  1  0
  2  3  1  0
  3  4  2  0
  3  5  1  0
  5  6  1  0
  6 44  1  0
  6  7  1  0
  6 48  1  1
  7  9  1  0
  7  8  1  0
  7 49  1  1
  8  9  1  0
  9 10  1  0
  9 50  1  1
 10 20  1  0
 10 11  1  0
 10 51  1  1
 11 42  1  0
 11 12  1  0
 11 52  1  1
 12 25  1  0
 12 13  1  0
 12 53  1  1
 13 14  2  0
 13 54  1  0
 14 19  1  0
 14 15  1  0
 15 16  1  0
 15 80  1  0
 16 17  1  0
 16 18  1  0
 17 55  1  0
 17 56  1  0
 17 57  1  0
 18 19  1  0
 18 58  1  0
 18 59  1  0
 19 20  1  0
 19 60  1  6
 20 21  1  6
 20 22  1  0
 21 61  1  0
 21 62  1  0
 21 63  1  0
 22 23  1  0
 22 44  1  0
 22 64  1  6
 23 24  1  0
 23 65  1  0
 23 66  1  0
 24 25  1  0
 24 36  1  0
 24 67  1  1
 25 68  1  6
 25 26  1  0
 26 27  1  0
 26 35  1  0
 27 28  2  0
 27 69  1  0
 28 29  1  0
 29 30  1  0
 29 35  2  0
 30 32  2  0
 30 31  1  0
 31 70  1  0
 31 45  1  0
 32 33  1  0
 33 71  1  0
 33 34  2  0
 34 35  1  0
 36 42  1  0
 36 37  1  0
 36 72  1  6
 37 38  1  0
 37 73  1  0
 38 39  2  0
 38 40  1  0
 40 41  2  0
 40 74  1  0
 41 42  1  0
 41 75  1  0
 42 43  1  1
 43 76  1  0
 43 77  1  0
 43 78  1  0
 44 79  1  1
M  END
>  <i_m_ct_stereo_status>  (119) 
1

>  <s_m_source_file>  (119) 
/var/tmp/pbs.5076255.sched01/tmp2obefojl/44ql_32cm2.sdf

>  <i_m_source_file_index>  (119) 
5

>  <i_lp_mmshare_version>  (119) 
48012

>  <i_f3d_flags>  (119) 
0

>  <s_epik_input>  (119) 
W0NIM11bQ0BAXTEyW0NASF0zW0NASF00W0NASF0oTzQpW0NASF01W0NASF0oQyg9W0NIMl0pQyg9TylPNSlbQ0BIXTJbQ0gyXVtDQEhdNltDQEhdN1tDQF0oW0NIM10pKFtDSF09W0NIXUMoPU8pW05IXTcpW0NAQEhdM1tDQEBIXShbQ0gyXUM9OFtDQEBIXTFbQ0gyXU4oTjgpW0NIM10pW0NAQEhdNm4oW2NIXW45KWMoYzE5KW5bY0hdW25IXWNcMT1OL1tIXQ==

>  <s_epik_cmdline>  (119) 
J2VwaWtfcHl0aG9uJywgJy1waHQnLCAnMi4wJywgJy1waCcsICc3LjAnLCAnLXRuJywgJzgnLCAnLW1hJywgJzIwMCcsICctaW1hZScsICc8aW5maWxlLm1hZT4nLCAnLW9tYWUnLCAnPG91dGZpbGUubWFlPic=

>  <r_epik_Ionization_Penalty>  (119) 
0.078679

>  <r_epik_Ionization_Penalty_Charging>  (119) 
0

>  <r_epik_Ionization_Penalty_Neutral>  (119) 
0.078679

>  <r_epik_State_Penalty>  (119) 
2.01697

>  <r_epik_Charging_Adjusted_Penalty>  (119) 
2.01697

>  <i_epik_Tot_Q>  (119) 
0

>  <i_epik_Tot_abs_Q>  (119) 
0

>  <s_epik_Chemistry_Notes>  (119) 
This compound has an ester and may undergo hydrolysis at high or low pH.

>  <s_lp_Force_Field>  (119) 
OPLS3e

>  <r_lp_Energy>  (119) 
157.529

>  <b_lp_Chiralities_Consistent>  (119) 
1

>  <s_lp_Variant>  (119) 
29:0-6

>  <s_i_glide_gridfile>  (119) 
pfpi4k_grid

>  <i_i_glide_lignum>  (119) 
5

>  <i_i_glide_rotatable_bonds>  (119) 
1

>  <r_i_docking_score>  (119) 
-2.51675

>  <r_i_glide_ligand_efficiency>  (119) 
-0.0571989

>  <r_i_glide_ligand_efficiency_sa>  (119) 
-0.201932

>  <r_i_glide_ligand_efficiency_ln>  (119) 
-0.526056

>  <r_i_glide_gscore>  (119) 
-2.51675

>  <r_i_glide_lipo>  (119) 
-0.0637923

>  <r_i_glide_hbond>  (119) 
-0.253371

>  <r_i_glide_metal>  (119) 
-0

>  <r_i_glide_rewards>  (119) 
-0.156146

>  <r_i_glide_evdw>  (119) 
-33.1991

>  <r_i_glide_ecoul>  (119) 
-1.88443

>  <r_i_glide_erotb>  (119) 
0.0589375

>  <r_i_glide_esite>  (119) 
-0.159761

>  <r_i_glide_emodel>  (119) 
-38.9734

>  <r_i_glide_energy>  (119) 
-35.0836

>  <r_i_glide_einternal>  (119) 
0.60931

>  <r_i_glide_intrahb_reward>  (119) 
-0

>  <i_i_glide_confnum>  (119) 
4

>  <i_i_glide_posenum>  (119) 
15

>  <r_i_glide_eff_state_penalty>  (119) 
0

>  <ligand_id>  (119) 
29

>  <original_smiles>  (119) 
C=C1C(=O)OC2C3OC3C3C4C5CC6=NN(C)CC6C3(C)C(CC(C5n3cnc5c(=N)[nH]cnc53)C3NC(=O)C=CC34C)C12

>  <smiles>  (119) 
[H]C([H])=C1C(=O)OC2([H])C3([H])OC3([H])C3([H])C4([H])C5([H])C([H])=C6N([H])N(C([H])([H])[H])C([H])([H])C6([H])C3(C([H])([H])[H])C([H])(C([H])([H])C([H])(C3([H])N([H])C(=O)C([H])=C([H])C34C([H])([H])[H])C5([H])n3c([H])nc4c(N([H])[H])nc([H])nc43)C12[H]

$$$$
29:5:1
     RDKit          3D

 80 89  0  0  1  0  0  0  0  0999 V2000
   -0.3267   -9.3023    2.5866 C   0  0  0  0  0  0  0  0  0  0  0  0
    0.5406   -9.4584    3.5982 C   0  0  0  0  0  0  0  0  0  0  0  0
    0.9366  -10.7749    4.0913 C   0  0  0  0  0  0  0  0  0  0  0  0
    0.6672  -11.8540    3.5771 O   0  0  0  0  0  0  0  0  0  0  0  0
    1.6726  -10.6141    5.1935 O   0  0  0  0  0  0  0  0  0  0  0  0
    1.7718   -9.2679    5.6297 C   0  0  1  0  0  0  0  0  0  0  0  0
    3.0877   -9.0638    6.4330 C   0  0  1  0  0  0  0  0  0  0  0  0
    4.3171   -9.3333    5.7682 O   0  0  0  0  0  0  0  0  0  0  0  0
    4.1422   -7.9856    6.2021 C   0  0  1  0  0  0  0  0  0  0  0  0
    3.7553   -6.8668    5.2435 C   0  0  1  0  0  0  0  0  0  0  0  0
    3.8020   -5.4051    5.8491 C   0  0  1  0  0  0  0  0  0  0  0  0
    3.8796   -4.2317    4.8413 C   0  0  1  0  0  0  0  0  0  0  0  0
    5.0275   -4.2569    3.8753 C   0  0  0  0  0  0  0  0  0  0  0  0
    5.1150   -5.1344    2.8774 C   0  0  0  0  0  0  0  0  0  0  0  0
    5.7109   -4.8400    1.6727 N   0  0  0  0  0  0  0  0  0  0  0  0
    5.0346   -5.4634    0.5717 N   0  0  0  0  0  0  0  0  0  0  0  0
    4.5639   -4.3676   -0.2884 C   0  0  0  0  0  0  0  0  0  0  0  0
    3.9267   -6.1897    1.2375 C   0  0  0  0  0  0  0  0  0  0  0  0
    4.3976   -6.4259    2.6616 C   0  0  2  0  0  0  0  0  0  0  0  0
    3.5205   -7.2260    3.7152 C   0  0  1  0  0  0  0  0  0  0  0  0
    3.9702   -8.6694    3.2635 C   0  0  0  0  0  0  0  0  0  0  0  0
    1.9568   -7.2946    3.5459 C   0  0  2  0  0  0  0  0  0  0  0  0
    1.1320   -5.9517    3.5305 C   0  0  0  0  0  0  0  0  0  0  0  0
    1.3441   -4.7587    4.5357 C   0  0  2  0  0  0  0  0  0  0  0  0
    2.5577   -3.8985    4.0918 C   0  0  1  0  0  0  0  0  0  0  0  0
    2.2837   -2.4411    3.9817 N   0  0  0  0  0  0  0  0  0  0  0  0
    1.5432   -1.6168    4.8173 C   0  0  0  0  0  0  0  0  0  0  0  0
    1.4816   -0.3602    4.5152 N   0  0  0  0  0  0  0  0  0  0  0  0
    2.1989   -0.2844    3.3418 C   0  0  0  0  0  0  0  0  0  0  0  0
    2.5143    0.7705    2.4558 C   0  0  0  0  0  0  0  0  0  0  0  0
    2.1236    2.0327    2.6670 N   0  0  0  0  0  0  0  0  0  0  0  0
    3.2397    0.5017    1.3436 N   0  0  0  0  0  0  0  0  0  0  0  0
    3.6478   -0.7563    1.1265 C   0  0  0  0  0  0  0  0  0  0  0  0
    3.4615   -1.8392    1.8836 N   0  0  0  0  0  0  0  0  0  0  0  0
    2.7129   -1.5675    2.9886 C   0  0  0  0  0  0  0  0  0  0  0  0
    1.2591   -5.1129    6.0644 C   0  0  2  0  0  0  0  0  0  0  0  0
    0.2262   -4.3421    6.7656 N   0  0  0  0  0  0  0  0  0  0  0  0
    0.3831   -3.4017    7.7187 C   0  0  0  0  0  0  0  0  0  0  0  0
   -0.5852   -2.9067    8.2694 O   0  0  0  0  0  0  0  0  0  0  0  0
    1.7639   -2.9909    7.9592 C   0  0  0  0  0  0  0  0  0  0  0  0
    2.7890   -3.7584    7.5574 C   0  0  0  0  0  0  0  0  0  0  0  0
    2.6163   -5.0957    6.8504 C   0  0  2  0  0  0  0  0  0  0  0  0
    2.5568   -6.0870    8.0406 C   0  0  0  0  0  0  0  0  0  0  0  0
    1.1963   -8.3931    4.4356 C   0  0  1  0  0  0  0  0  0  0  0  0
    2.3285    2.7548    1.9958 H   0  0  0  0  0  0  0  0  0  0  0  0
   -0.6328   -8.3295    2.2293 H   0  0  0  0  0  0  0  0  0  0  0  0
   -0.7545  -10.1651    2.0889 H   0  0  0  0  0  0  0  0  0  0  0  0
    0.9979   -9.2171    6.3942 H   0  0  0  0  0  0  0  0  0  0  0  0
    3.0537   -9.5084    7.4194 H   0  0  0  0  0  0  0  0  0  0  0  0
    4.7769   -7.7168    7.0425 H   0  0  0  0  0  0  0  0  0  0  0  0
    2.7413   -6.9362    5.5387 H   0  0  0  0  0  0  0  0  0  0  0  0
    4.7205   -5.3563    6.4275 H   0  0  0  0  0  0  0  0  0  0  0  0
    4.1245   -3.3556    5.4284 H   0  0  0  0  0  0  0  0  0  0  0  0
    5.5437   -3.3086    3.7897 H   0  0  0  0  0  0  0  0  0  0  0  0
    4.0224   -4.7615   -1.1354 H   0  0  0  0  0  0  0  0  0  0  0  0
    5.3952   -3.7613   -0.6659 H   0  0  0  0  0  0  0  0  0  0  0  0
    3.8690   -3.7163    0.2451 H   0  0  0  0  0  0  0  0  0  0  0  0
    3.0364   -5.5569    1.2611 H   0  0  0  0  0  0  0  0  0  0  0  0
    3.7019   -7.1153    0.7152 H   0  0  0  0  0  0  0  0  0  0  0  0
    5.3044   -7.0201    2.5574 H   0  0  0  0  0  0  0  0  0  0  0  0
    3.8830   -8.8042    2.1872 H   0  0  0  0  0  0  0  0  0  0  0  0
    3.3908   -9.4940    3.6456 H   0  0  0  0  0  0  0  0  0  0  0  0
    5.0103   -8.8953    3.5136 H   0  0  0  0  0  0  0  0  0  0  0  0
    1.8420   -7.6452    2.5229 H   0  0  0  0  0  0  0  0  0  0  0  0
    1.2051   -5.5533    2.5195 H   0  0  0  0  0  0  0  0  0  0  0  0
    0.0762   -6.2195    3.5680 H   0  0  0  0  0  0  0  0  0  0  0  0
    0.4716   -4.1364    4.3290 H   0  0  0  0  0  0  0  0  0  0  0  0
    2.7322   -4.1820    3.0576 H   0  0  0  0  0  0  0  0  0  0  0  0
    1.0051   -1.9542    5.6757 H   0  0  0  0  0  0  0  0  0  0  0  0
    1.5672    2.2184    3.4819 H   0  0  0  0  0  0  0  0  0  0  0  0
    4.1914   -0.9050    0.2074 H   0  0  0  0  0  0  0  0  0  0  0  0
    0.8395   -6.1159    6.1293 H   0  0  0  0  0  0  0  0  0  0  0  0
   -0.7255   -4.6194    6.5804 H   0  0  0  0  0  0  0  0  0  0  0  0
    1.9428   -2.0303    8.4307 H   0  0  0  0  0  0  0  0  0  0  0  0
    3.7945   -3.4248    7.7239 H   0  0  0  0  0  0  0  0  0  0  0  0
    2.1697   -7.0655    7.7716 H   0  0  0  0  0  0  0  0  0  0  0  0
    1.8983   -5.7262    8.8285 H   0  0  0  0  0  0  0  0  0  0  0  0
    3.5400   -6.2076    8.4976 H   0  0  0  0  0  0  0  0  0  0  0  0
    0.3448   -7.8912    4.8853 H   0  0  0  0  0  0  0  0  0  0  0  0
    6.7007   -5.0387    1.7359 H   0  0  0  0  0  0  0  0  0  0  0  0
  1  2  2  0
  1 46  1  0
  1 47  1  0
  2 44  1  0
  2  3  1  0
  3  4  2  0
  3  5  1  0
  5  6  1  0
  6 44  1  0
  6  7  1  0
  6 48  1  1
  7  9  1  0
  7  8  1  0
  7 49  1  1
  8  9  1  0
  9 10  1  0
  9 50  1  1
 10 20  1  0
 10 11  1  0
 10 51  1  1
 11 42  1  0
 11 12  1  0
 11 52  1  1
 12 25  1  0
 12 13  1  0
 12 53  1  1
 13 14  2  0
 13 54  1  0
 14 19  1  0
 14 15  1  0
 15 16  1  0
 15 80  1  0
 16 17  1  0
 16 18  1  0
 17 55  1  0
 17 56  1  0
 17 57  1  0
 18 19  1  0
 18 58  1  0
 18 59  1  0
 19 20  1  0
 19 60  1  6
 20 21  1  1
 20 22  1  0
 21 61  1  0
 21 62  1  0
 21 63  1  0
 22 23  1  0
 22 44  1  0
 22 64  1  6
 23 24  1  0
 23 65  1  0
 23 66  1  0
 24 25  1  0
 24 36  1  0
 24 67  1  6
 25 68  1  6
 25 26  1  0
 26 27  1  0
 26 35  1  0
 27 28  2  0
 27 69  1  0
 28 29  1  0
 29 30  1  0
 29 35  2  0
 30 32  2  0
 30 31  1  0
 31 70  1  0
 31 45  1  0
 32 33  1  0
 33 71  1  0
 33 34  2  0
 34 35  1  0
 36 42  1  0
 36 37  1  0
 36 72  1  6
 37 38  1  0
 37 73  1  0
 38 39  2  0
 38 40  1  0
 40 41  2  0
 40 74  1  0
 41 42  1  0
 41 75  1  0
 42 43  1  1
 43 76  1  0
 43 77  1  0
 43 78  1  0
 44 79  1  1
M  END
>  <i_m_ct_stereo_status>  (120) 
1

>  <s_m_source_file>  (120) 
/var/tmp/pbs.5076255.sched01/tmp2obefojl/44ql_32cm2.sdf

>  <i_m_source_file_index>  (120) 
5

>  <i_lp_mmshare_version>  (120) 
48012

>  <i_f3d_flags>  (120) 
0

>  <s_epik_input>  (120) 
W0NIM11bQ0BAXTEyW0NASF0zW0NASF00W0NASF0oTzQpW0NASF01W0NASF0oQyg9W0NIMl0pQyg9TylPNSlbQ0BIXTJbQ0gyXVtDQEhdNltDQEhdN1tDQF0oW0NIM10pKFtDSF09W0NIXUMoPU8pW05IXTcpW0NAQEhdM1tDQEBIXShbQ0gyXUM9OFtDQEBIXTFbQ0gyXU4oTjgpW0NIM10pW0NAQEhdNm4oW2NIXW45KWMoYzE5KW5bY0hdW25IXWNcMT1OL1tIXQ==

>  <s_epik_cmdline>  (120) 
J2VwaWtfcHl0aG9uJywgJy1waHQnLCAnMi4wJywgJy1waCcsICc3LjAnLCAnLXRuJywgJzgnLCAnLW1hJywgJzIwMCcsICctaW1hZScsICc8aW5maWxlLm1hZT4nLCAnLW9tYWUnLCAnPG91dGZpbGUubWFlPic=

>  <r_epik_Ionization_Penalty>  (120) 
0.078679

>  <r_epik_Ionization_Penalty_Charging>  (120) 
0

>  <r_epik_Ionization_Penalty_Neutral>  (120) 
0.078679

>  <r_epik_State_Penalty>  (120) 
2.01697

>  <r_epik_Charging_Adjusted_Penalty>  (120) 
2.01697

>  <i_epik_Tot_Q>  (120) 
0

>  <i_epik_Tot_abs_Q>  (120) 
0

>  <s_epik_Chemistry_Notes>  (120) 
This compound has an ester and may undergo hydrolysis at high or low pH.

>  <s_lp_Force_Field>  (120) 
OPLS3e

>  <r_lp_Energy>  (120) 
157.529

>  <b_lp_Chiralities_Consistent>  (120) 
1

>  <s_lp_Variant>  (120) 
29:0-6

>  <s_i_glide_gridfile>  (120) 
pfpi4k_grid

>  <i_i_glide_lignum>  (120) 
5

>  <i_i_glide_rotatable_bonds>  (120) 
1

>  <r_i_docking_score>  (120) 
-2.08989

>  <r_i_glide_ligand_efficiency>  (120) 
-0.0474976

>  <r_i_glide_ligand_efficiency_sa>  (120) 
-0.167683

>  <r_i_glide_ligand_efficiency_ln>  (120) 
-0.436833

>  <r_i_glide_gscore>  (120) 
-2.08989

>  <r_i_glide_lipo>  (120) 
-0.0838353

>  <r_i_glide_hbond>  (120) 
-0.131287

>  <r_i_glide_metal>  (120) 
-0

>  <r_i_glide_rewards>  (120) 
-0.00993061

>  <r_i_glide_evdw>  (120) 
-29.3303

>  <r_i_glide_ecoul>  (120) 
-2.71791

>  <r_i_glide_erotb>  (120) 
0.0589375

>  <r_i_glide_esite>  (120) 
-0.0495776

>  <r_i_glide_emodel>  (120) 
-34.731

>  <r_i_glide_energy>  (120) 
-32.0482

>  <r_i_glide_einternal>  (120) 
0.246289

>  <r_i_glide_intrahb_reward>  (120) 
-0

>  <i_i_glide_confnum>  (120) 
4

>  <i_i_glide_posenum>  (120) 
28

>  <r_i_glide_eff_state_penalty>  (120) 
0

>  <ligand_id>  (120) 
29

>  <original_smiles>  (120) 
C=C1C(=O)OC2C3OC3C3C4C5CC6=NN(C)CC6C3(C)C(CC(C5n3cnc5c(=N)[nH]cnc53)C3NC(=O)C=CC34C)C12

>  <smiles>  (120) 
[H]C([H])=C1C(=O)OC2([H])C3([H])OC3([H])C3([H])C4([H])C5([H])C([H])=C6N([H])N(C([H])([H])[H])C([H])([H])C6([H])C3(C([H])([H])[H])C([H])(C([H])([H])C([H])(C3([H])N([H])C(=O)C([H])=C([H])C34C([H])([H])[H])C5([H])n3c([H])nc4c(N([H])[H])nc([H])nc43)C12[H]

$$$$
29:5:2
     RDKit          3D

 80 89  0  0  1  0  0  0  0  0999 V2000
   -0.6067   -9.3870    2.6876 C   0  0  0  0  0  0  0  0  0  0  0  0
    0.3744   -9.5111    3.5969 C   0  0  0  0  0  0  0  0  0  0  0  0
    1.0264  -10.7942    3.8814 C   0  0  0  0  0  0  0  0  0  0  0  0
    0.8613  -11.8463    3.2791 O   0  0  0  0  0  0  0  0  0  0  0  0
    1.8564  -10.6236    4.9088 O   0  0  0  0  0  0  0  0  0  0  0  0
    1.7693   -9.3511    5.5306 C   0  0  1  0  0  0  0  0  0  0  0  0
    3.1016   -8.9981    6.2460 C   0  0  1  0  0  0  0  0  0  0  0  0
    4.2867   -8.9439    5.4547 O   0  0  0  0  0  0  0  0  0  0  0  0
    3.9195   -7.7184    6.0866 C   0  0  1  0  0  0  0  0  0  0  0  0
    3.2437   -6.5780    5.3378 C   0  0  1  0  0  0  0  0  0  0  0  0
    3.0939   -5.2233    6.1433 C   0  0  1  0  0  0  0  0  0  0  0  0
    2.8494   -3.9339    5.3219 C   0  0  1  0  0  0  0  0  0  0  0  0
    3.8731   -3.6178    4.2661 C   0  0  0  0  0  0  0  0  0  0  0  0
    4.0240   -4.3324    3.1487 C   0  0  0  0  0  0  0  0  0  0  0  0
    4.4174   -3.7708    1.9515 N   0  0  0  0  0  0  0  0  0  0  0  0
    3.7409   -4.3754    0.8371 N   0  0  0  0  0  0  0  0  0  0  0  0
    2.9956   -3.2899    0.1687 C   0  0  0  0  0  0  0  0  0  0  0  0
    2.8626   -5.3818    1.4795 C   0  0  0  0  0  0  0  0  0  0  0  0
    3.5194   -5.7003    2.8067 C   0  0  2  0  0  0  0  0  0  0  0  0
    2.9108   -6.7873    3.7978 C   0  0  1  0  0  0  0  0  0  0  0  0
    3.5592   -8.0447    3.1045 C   0  0  0  0  0  0  0  0  0  0  0  0
    1.3722   -7.1254    3.7473 C   0  0  2  0  0  0  0  0  0  0  0  0
    0.3299   -5.9698    3.9990 C   0  0  0  0  0  0  0  0  0  0  0  0
    0.4351   -4.8947    5.1469 C   0  0  2  0  0  0  0  0  0  0  0  0
    1.4218   -3.7684    4.7325 C   0  0  1  0  0  0  0  0  0  0  0  0
    0.8838   -2.3930    4.8500 N   0  0  0  0  0  0  0  0  0  0  0  0
    0.1632   -1.8183    5.8864 C   0  0  0  0  0  0  0  0  0  0  0  0
   -0.1891   -0.5737    5.7738 N   0  0  0  0  0  0  0  0  0  0  0  0
    0.3121   -0.2328    4.5177 C   0  0  0  0  0  0  0  0  0  0  0  0
    0.2798    0.9509    3.7425 C   0  0  0  0  0  0  0  0  0  0  0  0
   -0.2908    2.0707    4.1625 N   0  0  0  0  0  0  0  0  0  0  0  0
    0.8481    0.9369    2.5157 N   0  0  0  0  0  0  0  0  0  0  0  0
    1.4361   -0.1823    2.0799 C   0  0  0  0  0  0  0  0  0  0  0  0
    1.5695   -1.3638    2.7038 N   0  0  0  0  0  0  0  0  0  0  0  0
    0.9812   -1.3480    3.9356 C   0  0  0  0  0  0  0  0  0  0  0  0
    0.5701   -5.4463    6.6182 C   0  0  2  0  0  0  0  0  0  0  0  0
   -0.5100   -4.9894    7.5031 N   0  0  0  0  0  0  0  0  0  0  0  0
   -0.4320   -4.1579    8.5571 C   0  0  0  0  0  0  0  0  0  0  0  0
   -1.4298   -3.8739    9.2128 O   0  0  0  0  0  0  0  0  0  0  0  0
    0.8806   -3.5408    8.7581 C   0  0  0  0  0  0  0  0  0  0  0  0
    1.9805   -4.0312    8.1567 C   0  0  0  0  0  0  0  0  0  0  0  0
    1.9838   -5.2746    7.2762 C   0  0  2  0  0  0  0  0  0  0  0  0
    2.2318   -6.4035    8.3091 C   0  0  0  0  0  0  0  0  0  0  0  0
    0.9220   -8.4534    4.5266 C   0  0  1  0  0  0  0  0  0  0  0  0
   -0.2837    2.8788    3.5635 H   0  0  0  0  0  0  0  0  0  0  0  0
   -1.1110   -8.4483    2.5098 H   0  0  0  0  0  0  0  0  0  0  0  0
   -0.9282  -10.2401    2.1038 H   0  0  0  0  0  0  0  0  0  0  0  0
    1.0813   -9.5378    6.3560 H   0  0  0  0  0  0  0  0  0  0  0  0
    3.2510   -9.5626    7.1628 H   0  0  0  0  0  0  0  0  0  0  0  0
    4.5858   -7.4411    6.9042 H   0  0  0  0  0  0  0  0  0  0  0  0
    2.2974   -6.8773    5.7058 H   0  0  0  0  0  0  0  0  0  0  0  0
    4.0511   -5.0768    6.6447 H   0  0  0  0  0  0  0  0  0  0  0  0
    3.0034   -3.1068    6.0073 H   0  0  0  0  0  0  0  0  0  0  0  0
    4.2215   -2.5924    4.2703 H   0  0  0  0  0  0  0  0  0  0  0  0
    2.4495   -3.6885   -0.6850 H   0  0  0  0  0  0  0  0  0  0  0  0
    3.6624   -2.4995   -0.1848 H   0  0  0  0  0  0  0  0  0  0  0  0
    2.2607   -2.8513    0.8405 H   0  0  0  0  0  0  0  0  0  0  0  0
    1.8831   -4.9364    1.6631 H   0  0  0  0  0  0  0  0  0  0  0  0
    2.7459   -6.2500    0.8311 H   0  0  0  0  0  0  0  0  0  0  0  0
    4.5008   -6.0946    2.5366 H   0  0  0  0  0  0  0  0  0  0  0  0
    3.3825   -8.0544    2.0303 H   0  0  0  0  0  0  0  0  0  0  0  0
    3.1786   -9.0067    3.4128 H   0  0  0  0  0  0  0  0  0  0  0  0
    4.6425   -8.0966    3.2345 H   0  0  0  0  0  0  0  0  0  0  0  0
    1.2146   -7.3554    2.6937 H   0  0  0  0  0  0  0  0  0  0  0  0
    0.2294   -5.4421    3.0506 H   0  0  0  0  0  0  0  0  0  0  0  0
   -0.6547   -6.4308    4.0796 H   0  0  0  0  0  0  0  0  0  0  0  0
   -0.5464   -4.4282    5.1027 H   0  0  0  0  0  0  0  0  0  0  0  0
    1.5275   -3.8753    3.6555 H   0  0  0  0  0  0  0  0  0  0  0  0
   -0.1420   -2.3420    6.7571 H   0  0  0  0  0  0  0  0  0  0  0  0
   -0.6992    2.0908    5.0873 H   0  0  0  0  0  0  0  0  0  0  0  0
    1.8318   -0.1379    1.0812 H   0  0  0  0  0  0  0  0  0  0  0  0
    0.3504   -6.5110    6.5599 H   0  0  0  0  0  0  0  0  0  0  0  0
   -1.4179   -5.4014    7.3402 H   0  0  0  0  0  0  0  0  0  0  0  0
    0.9537   -2.6346    9.3474 H   0  0  0  0  0  0  0  0  0  0  0  0
    2.9295   -3.5331    8.2891 H   0  0  0  0  0  0  0  0  0  0  0  0
    1.9964   -7.3932    7.9302 H   0  0  0  0  0  0  0  0  0  0  0  0
    1.6061   -6.2828    9.1945 H   0  0  0  0  0  0  0  0  0  0  0  0
    3.2645   -6.3967    8.6576 H   0  0  0  0  0  0  0  0  0  0  0  0
    0.0502   -8.1797    5.1148 H   0  0  0  0  0  0  0  0  0  0  0  0
    5.4254   -3.8029    1.8803 H   0  0  0  0  0  0  0  0  0  0  0  0
  1  2  2  0
  1 46  1  0
  1 47  1  0
  2 44  1  0
  2  3  1  0
  3  4  2  0
  3  5  1  0
  5  6  1  0
  6 44  1  0
  6  7  1  0
  6 48  1  1
  7  9  1  0
  7  8  1  0
  7 49  1  1
  8  9  1  0
  9 10  1  0
  9 50  1  1
 10 20  1  0
 10 11  1  0
 10 51  1  1
 11 42  1  0
 11 12  1  0
 11 52  1  1
 12 25  1  0
 12 13  1  0
 12 53  1  1
 13 14  2  0
 13 54  1  0
 14 19  1  0
 14 15  1  0
 15 16  1  0
 15 80  1  0
 16 17  1  0
 16 18  1  0
 17 55  1  0
 17 56  1  0
 17 57  1  0
 18 19  1  0
 18 58  1  0
 18 59  1  0
 19 20  1  0
 19 60  1  6
 20 21  1  6
 20 22  1  0
 21 61  1  0
 21 62  1  0
 21 63  1  0
 22 23  1  0
 22 44  1  0
 22 64  1  6
 23 24  1  0
 23 65  1  0
 23 66  1  0
 24 25  1  0
 24 36  1  0
 24 67  1  1
 25 68  1  6
 25 26  1  0
 26 27  1  0
 26 35  1  0
 27 28  2  0
 27 69  1  0
 28 29  1  0
 29 30  1  0
 29 35  2  0
 30 32  2  0
 30 31  1  0
 31 70  1  0
 31 45  1  0
 32 33  1  0
 33 71  1  0
 33 34  2  0
 34 35  1  0
 36 42  1  0
 36 37  1  0
 36 72  1  6
 37 38  1  0
 37 73  1  0
 38 39  2  0
 38 40  1  0
 40 41  2  0
 40 74  1  0
 41 42  1  0
 41 75  1  0
 42 43  1  1
 43 76  1  0
 43 77  1  0
 43 78  1  0
 44 79  1  1
M  END
>  <i_m_ct_stereo_status>  (121) 
1

>  <s_m_source_file>  (121) 
/var/tmp/pbs.5076255.sched01/tmp2obefojl/44ql_32cm2.sdf

>  <i_m_source_file_index>  (121) 
5

>  <i_lp_mmshare_version>  (121) 
48012

>  <i_f3d_flags>  (121) 
0

>  <s_epik_input>  (121) 
W0NIM11bQ0BAXTEyW0NASF0zW0NASF00W0NASF0oTzQpW0NASF01W0NASF0oQyg9W0NIMl0pQyg9TylPNSlbQ0BIXTJbQ0gyXVtDQEhdNltDQEhdN1tDQF0oW0NIM10pKFtDSF09W0NIXUMoPU8pW05IXTcpW0NAQEhdM1tDQEBIXShbQ0gyXUM9OFtDQEBIXTFbQ0gyXU4oTjgpW0NIM10pW0NAQEhdNm4oW2NIXW45KWMoYzE5KW5bY0hdW25IXWNcMT1OL1tIXQ==

>  <s_epik_cmdline>  (121) 
J2VwaWtfcHl0aG9uJywgJy1waHQnLCAnMi4wJywgJy1waCcsICc3LjAnLCAnLXRuJywgJzgnLCAnLW1hJywgJzIwMCcsICctaW1hZScsICc8aW5maWxlLm1hZT4nLCAnLW9tYWUnLCAnPG91dGZpbGUubWFlPic=

>  <r_epik_Ionization_Penalty>  (121) 
0.078679

>  <r_epik_Ionization_Penalty_Charging>  (121) 
0

>  <r_epik_Ionization_Penalty_Neutral>  (121) 
0.078679

>  <r_epik_State_Penalty>  (121) 
2.01697

>  <r_epik_Charging_Adjusted_Penalty>  (121) 
2.01697

>  <i_epik_Tot_Q>  (121) 
0

>  <i_epik_Tot_abs_Q>  (121) 
0

>  <s_epik_Chemistry_Notes>  (121) 
This compound has an ester and may undergo hydrolysis at high or low pH.

>  <s_lp_Force_Field>  (121) 
OPLS3e

>  <r_lp_Energy>  (121) 
157.529

>  <b_lp_Chiralities_Consistent>  (121) 
1

>  <s_lp_Variant>  (121) 
29:0-6

>  <s_i_glide_gridfile>  (121) 
pfpi4k_grid

>  <i_i_glide_lignum>  (121) 
5

>  <i_i_glide_rotatable_bonds>  (121) 
1

>  <r_i_docking_score>  (121) 
-1.9746

>  <r_i_glide_ligand_efficiency>  (121) 
-0.0448772

>  <r_i_glide_ligand_efficiency_sa>  (121) 
-0.158432

>  <r_i_glide_ligand_efficiency_ln>  (121) 
-0.412734

>  <r_i_glide_gscore>  (121) 
-1.9746

>  <r_i_glide_lipo>  (121) 
-0.0472353

>  <r_i_glide_hbond>  (121) 
-0.0815344

>  <r_i_glide_metal>  (121) 
-0

>  <r_i_glide_rewards>  (121) 
-0.11855

>  <r_i_glide_evdw>  (121) 
-33.7001

>  <r_i_glide_ecoul>  (121) 
0.261679

>  <r_i_glide_erotb>  (121) 
0.0589375

>  <r_i_glide_esite>  (121) 
-0.14046

>  <r_i_glide_emodel>  (121) 
-35.7903

>  <r_i_glide_energy>  (121) 
-33.4385

>  <r_i_glide_einternal>  (121) 
0.249894

>  <r_i_glide_intrahb_reward>  (121) 
-0

>  <i_i_glide_confnum>  (121) 
2

>  <i_i_glide_posenum>  (121) 
27

>  <r_i_glide_eff_state_penalty>  (121) 
0

>  <ligand_id>  (121) 
29

>  <original_smiles>  (121) 
C=C1C(=O)OC2C3OC3C3C4C5CC6=NN(C)CC6C3(C)C(CC(C5n3cnc5c(=N)[nH]cnc53)C3NC(=O)C=CC34C)C12

>  <smiles>  (121) 
[H]C([H])=C1C(=O)OC2([H])C3([H])OC3([H])C3([H])C4([H])C5([H])C([H])=C6N([H])N(C([H])([H])[H])C([H])([H])C6([H])C3(C([H])([H])[H])C([H])(C([H])([H])C([H])(C3([H])N([H])C(=O)C([H])=C([H])C34C([H])([H])[H])C5([H])n3c([H])nc4c(N([H])[H])nc([H])nc43)C12[H]

$$$$
29:6:0
     RDKit          3D

 81 90  0  0  1  0  0  0  0  0999 V2000
    2.9353  -10.0387    9.1577 C   0  0  0  0  0  0  0  0  0  0  0  0
    4.2236   -9.6645    9.1752 C   0  0  0  0  0  0  0  0  0  0  0  0
    5.1591  -10.0453   10.2365 C   0  0  0  0  0  0  0  0  0  0  0  0
    4.8989  -10.7279   11.2246 O   0  0  0  0  0  0  0  0  0  0  0  0
    6.3607   -9.5099    9.9536 O   0  0  0  0  0  0  0  0  0  0  0  0
    6.4256   -8.7757    8.7318 C   0  0  1  0  0  0  0  0  0  0  0  0
    7.6399   -9.2345    7.9087 C   0  0  1  0  0  0  0  0  0  0  0  0
    7.7388  -10.6452    7.6503 O   0  0  0  0  0  0  0  0  0  0  0  0
    7.7400   -9.8152    6.4928 C   0  0  1  0  0  0  0  0  0  0  0  0
    6.6456   -9.9710    5.4209 C   0  0  2  0  0  0  0  0  0  0  0  0
    6.9435   -9.0252    4.1564 C   0  0  1  0  0  0  0  0  0  0  0  0
    5.7784   -8.9492    3.1223 C   0  0  1  0  0  0  0  0  0  0  0  0
    5.3268  -10.3260    2.6526 C   0  0  0  0  0  0  0  0  0  0  0  0
    4.2737  -10.8658    3.5574 C   0  0  0  0  0  0  0  0  0  0  0  0
    3.1792  -11.4103    2.9412 N   0  0  0  0  0  0  0  0  0  0  0  0
    2.2341  -11.8393    4.0039 N   0  0  2  0  0  0  0  0  0  0  0  0
    0.8087  -11.6102    3.7036 C   0  0  0  0  0  0  0  0  0  0  0  0
    2.7289  -11.2094    5.2585 C   0  0  0  0  0  0  0  0  0  0  0  0
    4.1431  -10.7332    4.8878 C   0  0  0  0  0  0  0  0  0  0  0  0
    5.1624  -10.1957    5.9542 C   0  0  1  0  0  0  0  0  0  0  0  0
    5.1670  -11.4382    6.9145 C   0  0  0  0  0  0  0  0  0  0  0  0
    4.6519   -8.8750    6.6602 C   0  0  2  0  0  0  0  0  0  0  0  0
    5.1000   -7.4657    6.1046 C   0  0  0  0  0  0  0  0  0  0  0  0
    5.1418   -6.9759    4.6100 C   0  0  2  0  0  0  0  0  0  0  0  0
    4.6188   -7.9646    3.5412 C   0  0  1  0  0  0  0  0  0  0  0  0
    3.9571   -7.3262    2.3935 N   0  0  0  0  0  0  0  0  0  0  0  0
    4.5499   -6.7586    1.2717 C   0  0  0  0  0  0  0  0  0  0  0  0
    3.7367   -6.1238    0.4854 N   0  0  0  0  0  0  0  0  0  0  0  0
    2.4877   -6.4329    0.9583 C   0  0  0  0  0  0  0  0  0  0  0  0
    1.1899   -6.1740    0.4491 C   0  0  0  0  0  0  0  0  0  0  0  0
    1.0231   -5.4628   -0.6791 N   0  0  0  0  0  0  0  0  0  0  0  0
    0.1345   -6.6468    1.1373 N   0  0  0  0  0  0  0  0  0  0  0  0
    0.3472   -7.3688    2.2556 C   0  0  0  0  0  0  0  0  0  0  0  0
    1.5100   -7.6782    2.8514 N   0  0  0  0  0  0  0  0  0  0  0  0
    2.5763   -7.1928    2.1574 C   0  0  0  0  0  0  0  0  0  0  0  0
    6.5732   -6.4338    4.3222 C   0  0  2  0  0  0  0  0  0  0  0  0
    6.5622   -5.5034    3.1912 N   0  0  0  0  0  0  0  0  0  0  0  0
    7.3781   -5.4077    2.1279 C   0  0  0  0  0  0  0  0  0  0  0  0
    7.2476   -4.4865    1.3223 O   0  0  0  0  0  0  0  0  0  0  0  0
    8.3771   -6.4372    2.0327 C   0  0  0  0  0  0  0  0  0  0  0  0
    8.4849   -7.4052    2.9619 C   0  0  0  0  0  0  0  0  0  0  0  0
    7.6412   -7.5732    4.2217 C   0  0  2  0  0  0  0  0  0  0  0  0
    8.7067   -7.3157    5.3124 C   0  0  0  0  0  0  0  0  0  0  0  0
    4.9657   -8.7879    8.1980 C   0  0  1  0  0  0  0  0  0  0  0  0
    0.0927   -5.2677   -1.0668 H   0  0  0  0  0  0  0  0  0  0  0  0
    2.2584   -9.7304    8.3748 H   0  0  0  0  0  0  0  0  0  0  0  0
    2.5301  -10.6720    9.9336 H   0  0  0  0  0  0  0  0  0  0  0  0
    6.6542   -7.7488    9.0211 H   0  0  0  0  0  0  0  0  0  0  0  0
    8.5714   -8.8265    8.2999 H   0  0  0  0  0  0  0  0  0  0  0  0
    8.7309   -9.8490    6.0564 H   0  0  0  0  0  0  0  0  0  0  0  0
    6.8784  -10.9630    5.0200 H   0  0  0  0  0  0  0  0  0  0  0  0
    7.7220   -9.6177    3.6677 H   0  0  0  0  0  0  0  0  0  0  0  0
    6.2378   -8.5422    2.2267 H   0  0  0  0  0  0  0  0  0  0  0  0
    4.8859  -10.2233    1.6624 H   0  0  0  0  0  0  0  0  0  0  0  0
    6.1360  -11.0455    2.5587 H   0  0  0  0  0  0  0  0  0  0  0  0
    0.1793  -12.0291    4.4993 H   0  0  0  0  0  0  0  0  0  0  0  0
    0.5680  -12.1224    2.7683 H   0  0  0  0  0  0  0  0  0  0  0  0
    0.5734  -10.5419    3.5858 H   0  0  0  0  0  0  0  0  0  0  0  0
    2.1222  -10.3451    5.5491 H   0  0  0  0  0  0  0  0  0  0  0  0
    2.6537  -11.9308    6.0639 H   0  0  0  0  0  0  0  0  0  0  0  0
    5.7087  -11.3417    7.8370 H   0  0  0  0  0  0  0  0  0  0  0  0
    5.5597  -12.3300    6.4236 H   0  0  0  0  0  0  0  0  0  0  0  0
    4.1938  -11.6946    7.3136 H   0  0  0  0  0  0  0  0  0  0  0  0
    3.5655   -8.8839    6.5790 H   0  0  0  0  0  0  0  0  0  0  0  0
    4.4552   -6.7404    6.6012 H   0  0  0  0  0  0  0  0  0  0  0  0
    6.0688   -7.2561    6.5557 H   0  0  0  0  0  0  0  0  0  0  0  0
    4.4668   -6.1190    4.5745 H   0  0  0  0  0  0  0  0  0  0  0  0
    3.8033   -8.4352    4.0831 H   0  0  0  0  0  0  0  0  0  0  0  0
    5.5982   -6.8102    1.0315 H   0  0  0  0  0  0  0  0  0  0  0  0
    1.8455   -5.1796   -1.2075 H   0  0  0  0  0  0  0  0  0  0  0  0
   -0.5436   -7.7309    2.7413 H   0  0  0  0  0  0  0  0  0  0  0  0
    6.8450   -5.7783    5.1606 H   0  0  0  0  0  0  0  0  0  0  0  0
    5.8593   -4.7858    3.2440 H   0  0  0  0  0  0  0  0  0  0  0  0
    9.0387   -6.4400    1.1797 H   0  0  0  0  0  0  0  0  0  0  0  0
    9.2311   -8.1693    2.8206 H   0  0  0  0  0  0  0  0  0  0  0  0
    8.2942   -7.2921    6.3148 H   0  0  0  0  0  0  0  0  0  0  0  0
    9.1667   -6.3354    5.1667 H   0  0  0  0  0  0  0  0  0  0  0  0
    9.5277   -8.0306    5.2660 H   0  0  0  0  0  0  0  0  0  0  0  0
    4.5751   -7.8220    8.5106 H   0  0  0  0  0  0  0  0  0  0  0  0
    3.2224  -11.8182    1.9970 H   0  0  0  0  0  0  0  0  0  0  0  0
    2.3583  -12.8542    4.0952 H   0  0  0  0  0  0  0  0  0  0  0  0
  1  2  2  0
  1 46  1  0
  1 47  1  0
  2 44  1  0
  2  3  1  0
  3  4  2  0
  3  5  1  0
  5  6  1  0
  6 44  1  0
  6  7  1  0
  6 48  1  1
  7  9  1  0
  7  8  1  0
  7 49  1  1
  8  9  1  0
  9 10  1  0
  9 50  1  6
 10 20  1  0
 10 11  1  0
 10 51  1  6
 11 42  1  0
 11 12  1  0
 11 52  1  6
 12 25  1  0
 12 13  1  0
 12 53  1  6
 13 14  1  0
 13 54  1  0
 13 55  1  0
 14 19  2  0
 14 15  1  0
 15 16  1  0
 15 80  1  0
 16 17  1  0
 16 18  1  0
 16 81  1  1
 17 56  1  0
 17 57  1  0
 17 58  1  0
 18 19  1  0
 18 59  1  0
 18 60  1  0
 19 20  1  0
 20 21  1  1
 20 22  1  0
 21 61  1  0
 21 62  1  0
 21 63  1  0
 22 23  1  0
 22 44  1  0
 22 64  1  1
 23 24  1  0
 23 65  1  0
 23 66  1  0
 24 25  1  0
 24 36  1  0
 24 67  1  1
 25 68  1  1
 25 26  1  0
 26 27  1  0
 26 35  1  0
 27 28  2  0
 27 69  1  0
 28 29  1  0
 29 30  1  0
 29 35  2  0
 30 32  2  0
 30 31  1  0
 31 70  1  0
 31 45  1  0
 32 33  1  0
 33 71  1  0
 33 34  2  0
 34 35  1  0
 36 42  1  0
 36 37  1  0
 36 72  1  1
 37 38  1  0
 37 73  1  0
 38 39  2  0
 38 40  1  0
 40 41  2  0
 40 74  1  0
 41 42  1  0
 41 75  1  0
 42 43  1  1
 43 76  1  0
 43 77  1  0
 43 78  1  0
 44 79  1  1
M  CHG  1  16   1
M  END
>  <i_m_ct_stereo_status>  (122) 
1

>  <s_m_source_file>  (122) 
/var/tmp/pbs.5076255.sched01/tmp2obefojl/44ql_32cm2.sdf

>  <i_m_source_file_index>  (122) 
6

>  <i_lp_mmshare_version>  (122) 
48012

>  <i_f3d_flags>  (122) 
0

>  <s_epik_input>  (122) 
W0NIM11bQ0BAXTEyW0NASF0zW0NASF00W0NASF0oTzQpW0NASF01W0NASF0oQyg9W0NIMl0pQyg9TylPNSlbQ0BIXTJbQ0gyXVtDQEhdNltDQEhdN1tDQF0oW0NIM10pKFtDSF09W0NIXUMoPU8pW05IXTcpW0NAQEhdM1tDQEBIXShbQ0gyXUM9OFtDQEBIXTFbQ0gyXU4oTjgpW0NIM10pW0NAQEhdNm4oW2NIXW45KWMoYzE5KW5bY0hdW25IXWNcMT1OL1tIXQ==

>  <s_epik_cmdline>  (122) 
J2VwaWtfcHl0aG9uJywgJy1waHQnLCAnMi4wJywgJy1waCcsICc3LjAnLCAnLXRuJywgJzgnLCAnLW1hJywgJzIwMCcsICctaW1hZScsICc8aW5maWxlLm1hZT4nLCAnLW9tYWUnLCAnPG91dGZpbGUubWFlPic=

>  <r_lp_tautomer_probability>  (122) 
0.999997

>  <r_epik_Ionization_Penalty>  (122) 
1.88999

>  <r_epik_Ionization_Penalty_Charging>  (122) 
1.88836

>  <r_epik_Ionization_Penalty_Neutral>  (122) 
0.00163079

>  <r_epik_State_Penalty>  (122) 
2.21238

>  <r_epik_Charging_Adjusted_Penalty>  (122) 
4.10074

>  <i_epik_Tot_Q>  (122) 
1

>  <i_epik_Tot_abs_Q>  (122) 
1

>  <s_epik_Chemistry_Notes>  (122) 
This compound has an ester and may undergo hydrolysis at high or low pH.

>  <s_lp_Force_Field>  (122) 
OPLS3e

>  <r_lp_Energy>  (122) 
137.183

>  <b_lp_Chiralities_Consistent>  (122) 
1

>  <s_lp_Variant>  (122) 
29:0-7

>  <s_i_glide_gridfile>  (122) 
pfpi4k_grid

>  <i_i_glide_lignum>  (122) 
6

>  <i_i_glide_rotatable_bonds>  (122) 
1

>  <r_i_docking_score>  (122) 
-3.66273

>  <r_i_glide_ligand_efficiency>  (122) 
-0.0832438

>  <r_i_glide_ligand_efficiency_sa>  (122) 
-0.29388

>  <r_i_glide_ligand_efficiency_ln>  (122) 
-0.76559

>  <r_i_glide_gscore>  (122) 
-3.66273

>  <r_i_glide_lipo>  (122) 
-0.0705853

>  <r_i_glide_hbond>  (122) 
-0.500007

>  <r_i_glide_metal>  (122) 
-0

>  <r_i_glide_rewards>  (122) 
-0.181728

>  <r_i_glide_evdw>  (122) 
-19.6935

>  <r_i_glide_ecoul>  (122) 
-11.5119

>  <r_i_glide_erotb>  (122) 
0.0587531

>  <r_i_glide_esite>  (122) 
-0.257703

>  <r_i_glide_emodel>  (122) 
-40.8469

>  <r_i_glide_energy>  (122) 
-31.2054

>  <r_i_glide_einternal>  (122) 
0.22575

>  <r_i_glide_intrahb_reward>  (122) 
-0

>  <i_i_glide_confnum>  (122) 
5

>  <i_i_glide_posenum>  (122) 
6

>  <r_i_glide_eff_state_penalty>  (122) 
0

>  <ligand_id>  (122) 
29

>  <original_smiles>  (122) 
C=C1C(=O)OC2C3OC3C3C4C5CC6=NN(C)CC6C3(C)C(CC(C5n3cnc5c(=N)[nH]cnc53)C3NC(=O)C=CC34C)C12

>  <smiles>  (122) 
[H]C([H])=C1C(=O)OC2([H])C3([H])OC3([H])C3([H])C4([H])C5([H])C([H])([H])C6=C(C3(C([H])([H])[H])C([H])(C([H])([H])C([H])(C3([H])N([H])C(=O)C([H])=C([H])C34C([H])([H])[H])C5([H])n3c([H])nc4c(N([H])[H])nc([H])nc43)C12[H])C([H])([H])[N+]([H])(C([H])([H])[H])N6[H]

$$$$
29:6:1
     RDKit          3D

 81 90  0  0  1  0  0  0  0  0999 V2000
    0.5755   -0.5993    3.1252 C   0  0  0  0  0  0  0  0  0  0  0  0
    1.6339   -0.6507    2.3027 C   0  0  0  0  0  0  0  0  0  0  0  0
    2.2394    0.5354    1.7066 C   0  0  0  0  0  0  0  0  0  0  0  0
    1.8610    1.6929    1.8583 O   0  0  0  0  0  0  0  0  0  0  0  0
    3.2906    0.1458    0.9679 O   0  0  0  0  0  0  0  0  0  0  0  0
    3.5377   -1.2517    0.9495 C   0  0  1  0  0  0  0  0  0  0  0  0
    5.0269   -1.4897    1.2279 C   0  0  1  0  0  0  0  0  0  0  0  0
    5.5754   -0.8721    2.4051 O   0  0  0  0  0  0  0  0  0  0  0  0
    5.7227   -2.2849    2.3196 C   0  0  1  0  0  0  0  0  0  0  0  0
    5.1232   -3.1991    3.4087 C   0  0  2  0  0  0  0  0  0  0  0  0
    5.5622   -4.7276    3.1892 C   0  0  1  0  0  0  0  0  0  0  0  0
    4.8255   -5.7442    4.1002 C   0  0  1  0  0  0  0  0  0  0  0  0
    4.9176   -5.3763    5.5857 C   0  0  0  0  0  0  0  0  0  0  0  0
    3.7893   -4.4781    5.9666 C   0  0  0  0  0  0  0  0  0  0  0  0
    3.1137   -4.7850    7.1161 N   0  0  0  0  0  0  0  0  0  0  0  0
    2.0422   -3.8076    7.3114 N   0  0  2  0  0  0  0  0  0  0  0  0
    0.7903   -4.3754    7.8519 C   0  0  0  0  0  0  0  0  0  0  0  0
    1.9212   -3.1075    6.0041 C   0  0  0  0  0  0  0  0  0  0  0  0
    3.2078   -3.4970    5.2602 C   0  0  0  0  0  0  0  0  0  0  0  0
    3.6585   -2.8234    3.9159 C   0  0  1  0  0  0  0  0  0  0  0  0
    3.6747   -1.3328    4.4071 C   0  0  0  0  0  0  0  0  0  0  0  0
    2.6220   -3.0791    2.7478 C   0  0  2  0  0  0  0  0  0  0  0  0
    2.8546   -4.2718    1.7427 C   0  0  0  0  0  0  0  0  0  0  0  0
    3.2585   -5.7466    2.0755 C   0  0  2  0  0  0  0  0  0  0  0  0
    3.3884   -6.1341    3.5696 C   0  0  1  0  0  0  0  0  0  0  0  0
    2.9961   -7.5202    3.8816 N   0  0  0  0  0  0  0  0  0  0  0  0
    3.6351   -8.4060    4.7392 C   0  0  0  0  0  0  0  0  0  0  0  0
    3.0438   -9.5436    4.9384 N   0  0  0  0  0  0  0  0  0  0  0  0
    1.9159   -9.4771    4.1418 C   0  0  0  0  0  0  0  0  0  0  0  0
    0.8761  -10.3924    3.8798 C   0  0  0  0  0  0  0  0  0  0  0  0
    0.8459  -11.6061    4.4374 N   0  0  0  0  0  0  0  0  0  0  0  0
   -0.1104  -10.0191    3.0360 N   0  0  0  0  0  0  0  0  0  0  0  0
   -0.0935   -8.7916    2.5119 C   0  0  0  0  0  0  0  0  0  0  0  0
    0.8059   -7.8137    2.6781 N   0  0  0  0  0  0  0  0  0  0  0  0
    1.8358   -8.2096    3.4954 C   0  0  0  0  0  0  0  0  0  0  0  0
    4.5039   -6.1498    1.2564 C   0  0  2  0  0  0  0  0  0  0  0  0
    4.5800   -7.6099    1.1358 N   0  0  0  0  0  0  0  0  0  0  0  0
    5.6290   -8.4241    1.3097 C   0  0  0  0  0  0  0  0  0  0  0  0
    5.5344   -9.6270    1.1071 O   0  0  0  0  0  0  0  0  0  0  0  0
    6.8584   -7.7800    1.7274 C   0  0  0  0  0  0  0  0  0  0  0  0
    6.9370   -6.4579    1.9434 C   0  0  0  0  0  0  0  0  0  0  0  0
    5.8053   -5.4394    1.7667 C   0  0  2  0  0  0  0  0  0  0  0  0
    6.3488   -4.5729    0.6055 C   0  0  0  0  0  0  0  0  0  0  0  0
    2.3875   -1.8528    1.8014 C   0  0  1  0  0  0  0  0  0  0  0  0
    0.0633  -12.2129    4.2669 H   0  0  0  0  0  0  0  0  0  0  0  0
    0.1300   -1.4967    3.5261 H   0  0  0  0  0  0  0  0  0  0  0  0
    0.1113    0.3445    3.3754 H   0  0  0  0  0  0  0  0  0  0  0  0
    3.3789   -1.5758   -0.0791 H   0  0  0  0  0  0  0  0  0  0  0  0
    5.6371   -1.2975    0.3477 H   0  0  0  0  0  0  0  0  0  0  0  0
    6.7515   -2.5253    2.0994 H   0  0  0  0  0  0  0  0  0  0  0  0
    5.7161   -2.9242    4.2853 H   0  0  0  0  0  0  0  0  0  0  0  0
    6.5765   -4.7004    3.5881 H   0  0  0  0  0  0  0  0  0  0  0  0
    5.4443   -6.6322    4.0200 H   0  0  0  0  0  0  0  0  0  0  0  0
    4.8210   -6.2670    6.2046 H   0  0  0  0  0  0  0  0  0  0  0  0
    5.8731   -4.9312    5.8629 H   0  0  0  0  0  0  0  0  0  0  0  0
    0.0622   -3.5779    8.0336 H   0  0  0  0  0  0  0  0  0  0  0  0
    0.9918   -4.8691    8.8072 H   0  0  0  0  0  0  0  0  0  0  0  0
    0.3483   -5.1100    7.1697 H   0  0  0  0  0  0  0  0  0  0  0  0
    1.0582   -3.4619    5.4398 H   0  0  0  0  0  0  0  0  0  0  0  0
    1.7728   -2.0533    6.2141 H   0  0  0  0  0  0  0  0  0  0  0  0
    3.8472   -0.5752    3.6625 H   0  0  0  0  0  0  0  0  0  0  0  0
    4.4246   -1.1678    5.1822 H   0  0  0  0  0  0  0  0  0  0  0  0
    2.7253   -0.9829    4.7954 H   0  0  0  0  0  0  0  0  0  0  0  0
    1.6598   -3.2810    3.2207 H   0  0  0  0  0  0  0  0  0  0  0  0
    1.9162   -4.3775    1.1982 H   0  0  0  0  0  0  0  0  0  0  0  0
    3.5311   -3.9108    0.9718 H   0  0  0  0  0  0  0  0  0  0  0  0
    2.4497   -6.3227    1.6352 H   0  0  0  0  0  0  0  0  0  0  0  0
    2.5783   -5.5807    4.0223 H   0  0  0  0  0  0  0  0  0  0  0  0
    4.5544   -8.2084    5.2655 H   0  0  0  0  0  0  0  0  0  0  0  0
    1.5567  -11.8634    5.1120 H   0  0  0  0  0  0  0  0  0  0  0  0
   -0.9031   -8.5991    1.8189 H   0  0  0  0  0  0  0  0  0  0  0  0
    4.3137   -5.8517    0.2224 H   0  0  0  0  0  0  0  0  0  0  0  0
    3.7343   -8.0696    0.8334 H   0  0  0  0  0  0  0  0  0  0  0  0
    7.7397   -8.3920    1.8574 H   0  0  0  0  0  0  0  0  0  0  0  0
    7.8948   -6.0603    2.2485 H   0  0  0  0  0  0  0  0  0  0  0  0
    5.6402   -3.8266    0.2590 H   0  0  0  0  0  0  0  0  0  0  0  0
    6.5502   -5.1942   -0.2668 H   0  0  0  0  0  0  0  0  0  0  0  0
    7.2987   -4.0977    0.8482 H   0  0  0  0  0  0  0  0  0  0  0  0
    1.6856   -2.2078    1.0502 H   0  0  0  0  0  0  0  0  0  0  0  0
    3.5263   -5.2980    7.8875 H   0  0  0  0  0  0  0  0  0  0  0  0
    2.4072   -3.1378    7.9787 H   0  0  0  0  0  0  0  0  0  0  0  0
  1  2  2  0
  1 46  1  0
  1 47  1  0
  2 44  1  0
  2  3  1  0
  3  4  2  0
  3  5  1  0
  5  6  1  0
  6 44  1  0
  6  7  1  0
  6 48  1  6
  7  9  1  0
  7  8  1  0
  7 49  1  6
  8  9  1  0
  9 10  1  0
  9 50  1  6
 10 20  1  0
 10 11  1  0
 10 51  1  1
 11 42  1  0
 11 12  1  0
 11 52  1  1
 12 25  1  0
 12 13  1  0
 12 53  1  1
 13 14  1  0
 13 54  1  0
 13 55  1  0
 14 19  2  0
 14 15  1  0
 15 16  1  0
 15 80  1  0
 16 17  1  0
 16 18  1  0
 16 81  1  1
 17 56  1  0
 17 57  1  0
 17 58  1  0
 18 19  1  0
 18 59  1  0
 18 60  1  0
 19 20  1  0
 20 21  1  1
 20 22  1  0
 21 61  1  0
 21 62  1  0
 21 63  1  0
 22 23  1  0
 22 44  1  0
 22 64  1  1
 23 24  1  0
 23 65  1  0
 23 66  1  0
 24 25  1  0
 24 36  1  0
 24 67  1  6
 25 68  1  1
 25 26  1  0
 26 27  1  0
 26 35  1  0
 27 28  2  0
 27 69  1  0
 28 29  1  0
 29 30  1  0
 29 35  2  0
 30 32  2  0
 30 31  1  0
 31 70  1  0
 31 45  1  0
 32 33  1  0
 33 71  1  0
 33 34  2  0
 34 35  1  0
 36 42  1  0
 36 37  1  0
 36 72  1  6
 37 38  1  0
 37 73  1  0
 38 39  2  0
 38 40  1  0
 40 41  2  0
 40 74  1  0
 41 42  1  0
 41 75  1  0
 42 43  1  6
 43 76  1  0
 43 77  1  0
 43 78  1  0
 44 79  1  6
M  CHG  1  16   1
M  END
>  <i_m_ct_stereo_status>  (123) 
1

>  <s_m_source_file>  (123) 
/var/tmp/pbs.5076255.sched01/tmp2obefojl/44ql_32cm2.sdf

>  <i_m_source_file_index>  (123) 
6

>  <i_lp_mmshare_version>  (123) 
48012

>  <i_f3d_flags>  (123) 
0

>  <s_epik_input>  (123) 
W0NIM11bQ0BAXTEyW0NASF0zW0NASF00W0NASF0oTzQpW0NASF01W0NASF0oQyg9W0NIMl0pQyg9TylPNSlbQ0BIXTJbQ0gyXVtDQEhdNltDQEhdN1tDQF0oW0NIM10pKFtDSF09W0NIXUMoPU8pW05IXTcpW0NAQEhdM1tDQEBIXShbQ0gyXUM9OFtDQEBIXTFbQ0gyXU4oTjgpW0NIM10pW0NAQEhdNm4oW2NIXW45KWMoYzE5KW5bY0hdW25IXWNcMT1OL1tIXQ==

>  <s_epik_cmdline>  (123) 
J2VwaWtfcHl0aG9uJywgJy1waHQnLCAnMi4wJywgJy1waCcsICc3LjAnLCAnLXRuJywgJzgnLCAnLW1hJywgJzIwMCcsICctaW1hZScsICc8aW5maWxlLm1hZT4nLCAnLW9tYWUnLCAnPG91dGZpbGUubWFlPic=

>  <r_lp_tautomer_probability>  (123) 
0.999997

>  <r_epik_Ionization_Penalty>  (123) 
1.88999

>  <r_epik_Ionization_Penalty_Charging>  (123) 
1.88836

>  <r_epik_Ionization_Penalty_Neutral>  (123) 
0.00163079

>  <r_epik_State_Penalty>  (123) 
2.21238

>  <r_epik_Charging_Adjusted_Penalty>  (123) 
4.10074

>  <i_epik_Tot_Q>  (123) 
1

>  <i_epik_Tot_abs_Q>  (123) 
1

>  <s_epik_Chemistry_Notes>  (123) 
This compound has an ester and may undergo hydrolysis at high or low pH.

>  <s_lp_Force_Field>  (123) 
OPLS3e

>  <r_lp_Energy>  (123) 
137.183

>  <b_lp_Chiralities_Consistent>  (123) 
1

>  <s_lp_Variant>  (123) 
29:0-7

>  <s_i_glide_gridfile>  (123) 
pfpi4k_grid

>  <i_i_glide_lignum>  (123) 
6

>  <i_i_glide_rotatable_bonds>  (123) 
1

>  <r_i_docking_score>  (123) 
-2.44776

>  <r_i_glide_ligand_efficiency>  (123) 
-0.0556309

>  <r_i_glide_ligand_efficiency_sa>  (123) 
-0.196396

>  <r_i_glide_ligand_efficiency_ln>  (123) 
-0.511635

>  <r_i_glide_gscore>  (123) 
-2.44776

>  <r_i_glide_lipo>  (123) 
-0.560319

>  <r_i_glide_hbond>  (123) 
0

>  <r_i_glide_metal>  (123) 
-0

>  <r_i_glide_rewards>  (123) 
-0.115063

>  <r_i_glide_evdw>  (123) 
-33.1605

>  <r_i_glide_ecoul>  (123) 
-0.618954

>  <r_i_glide_erotb>  (123) 
0.0587531

>  <r_i_glide_esite>  (123) 
-0.080262

>  <r_i_glide_emodel>  (123) 
-39.8465

>  <r_i_glide_energy>  (123) 
-33.7795

>  <r_i_glide_einternal>  (123) 
1.72563

>  <r_i_glide_intrahb_reward>  (123) 
-0

>  <i_i_glide_confnum>  (123) 
4

>  <i_i_glide_posenum>  (123) 
5

>  <r_i_glide_eff_state_penalty>  (123) 
0

>  <ligand_id>  (123) 
29

>  <original_smiles>  (123) 
C=C1C(=O)OC2C3OC3C3C4C5CC6=NN(C)CC6C3(C)C(CC(C5n3cnc5c(=N)[nH]cnc53)C3NC(=O)C=CC34C)C12

>  <smiles>  (123) 
[H]C([H])=C1C(=O)OC2([H])C3([H])OC3([H])C3([H])C4([H])C5([H])C([H])([H])C6=C(C3(C([H])([H])[H])C([H])(C([H])([H])C([H])(C3([H])N([H])C(=O)C([H])=C([H])C34C([H])([H])[H])C5([H])n3c([H])nc4c(N([H])[H])nc([H])nc43)C12[H])C([H])([H])[N+]([H])(C([H])([H])[H])N6[H]

$$$$
29:6:2
     RDKit          3D

 81 90  0  0  1  0  0  0  0  0999 V2000
    0.8343   -9.5890    4.3279 C   0  0  0  0  0  0  0  0  0  0  0  0
    0.7198   -8.5688    5.1943 C   0  0  0  0  0  0  0  0  0  0  0  0
    0.2178   -8.7140    6.5650 C   0  0  0  0  0  0  0  0  0  0  0  0
   -0.1826   -9.7408    7.0977 O   0  0  0  0  0  0  0  0  0  0  0  0
    0.2365   -7.5039    7.1533 O   0  0  0  0  0  0  0  0  0  0  0  0
    0.7418   -6.4427    6.3509 C   0  0  1  0  0  0  0  0  0  0  0  0
    1.7902   -5.6404    7.1423 C   0  0  1  0  0  0  0  0  0  0  0  0
    2.8673   -6.3969    7.7201 O   0  0  0  0  0  0  0  0  0  0  0  0
    3.2605   -5.3373    6.8549 C   0  0  1  0  0  0  0  0  0  0  0  0
    4.0848   -5.6287    5.5857 C   0  0  2  0  0  0  0  0  0  0  0  0
    4.5327   -4.2630    4.8616 C   0  0  1  0  0  0  0  0  0  0  0  0
    5.1809   -4.4675    3.4609 C   0  0  1  0  0  0  0  0  0  0  0  0
    6.3454   -5.4785    3.5409 C   0  0  0  0  0  0  0  0  0  0  0  0
    5.8427   -6.8573    3.2865 C   0  0  0  0  0  0  0  0  0  0  0  0
    6.5385   -7.6201    2.3851 N   0  0  0  0  0  0  0  0  0  0  0  0
    5.8870   -8.9315    2.2874 N   0  0  2  0  0  0  0  0  0  0  0  0
    5.8525   -9.5016    0.9256 C   0  0  0  0  0  0  0  0  0  0  0  0
    4.5638   -8.7669    2.9457 C   0  0  0  0  0  0  0  0  0  0  0  0
    4.7093   -7.4346    3.6995 C   0  0  0  0  0  0  0  0  0  0  0  0
    3.6587   -6.9217    4.7481 C   0  0  1  0  0  0  0  0  0  0  0  0
    3.6724   -8.1617    5.7086 C   0  0  0  0  0  0  0  0  0  0  0  0
    2.2402   -6.6760    4.0940 C   0  0  2  0  0  0  0  0  0  0  0  0
    1.8493   -5.2240    3.6277 C   0  0  0  0  0  0  0  0  0  0  0  0
    2.7185   -4.2128    2.8130 C   0  0  2  0  0  0  0  0  0  0  0  0
    4.1122   -4.6754    2.3059 C   0  0  1  0  0  0  0  0  0  0  0  0
    4.5318   -4.1139    0.9955 N   0  0  0  0  0  0  0  0  0  0  0  0
    5.8437   -3.8971    0.5610 C   0  0  0  0  0  0  0  0  0  0  0  0
    6.0120   -3.5314   -0.6711 N   0  0  0  0  0  0  0  0  0  0  0  0
    4.7169   -3.4461   -1.1499 C   0  0  0  0  0  0  0  0  0  0  0  0
    4.1974   -3.0646   -2.4057 C   0  0  0  0  0  0  0  0  0  0  0  0
    4.9764   -2.7091   -3.4062 N   0  0  0  0  0  0  0  0  0  0  0  0
    2.8566   -3.0545   -2.5877 N   0  0  0  0  0  0  0  0  0  0  0  0
    2.0783   -3.4646   -1.5869 C   0  0  0  0  0  0  0  0  0  0  0  0
    2.4213   -3.8980   -0.3615 N   0  0  0  0  0  0  0  0  0  0  0  0
    3.7768   -3.8419   -0.1592 C   0  0  0  0  0  0  0  0  0  0  0  0
    2.7757   -2.8494    3.5274 C   0  0  2  0  0  0  0  0  0  0  0  0
    3.0997   -1.7817    2.5742 N   0  0  0  0  0  0  0  0  0  0  0  0
    3.9747   -0.7760    2.6749 C   0  0  0  0  0  0  0  0  0  0  0  0
    4.0726    0.0639    1.7870 O   0  0  0  0  0  0  0  0  0  0  0  0
    4.7778   -0.7750    3.8899 C   0  0  0  0  0  0  0  0  0  0  0  0
    4.6487   -1.7299    4.8281 C   0  0  0  0  0  0  0  0  0  0  0  0
    3.6681   -2.9056    4.8107 C   0  0  2  0  0  0  0  0  0  0  0  0
    2.7526   -2.5764    6.0171 C   0  0  0  0  0  0  0  0  0  0  0  0
    1.0138   -7.1073    4.9745 C   0  0  1  0  0  0  0  0  0  0  0  0
    4.5526   -2.4348   -4.2730 H   0  0  0  0  0  0  0  0  0  0  0  0
    1.1808   -9.4460    3.3136 H   0  0  0  0  0  0  0  0  0  0  0  0
    0.5633  -10.5940    4.6215 H   0  0  0  0  0  0  0  0  0  0  0  0
   -0.0946   -5.7565    6.2113 H   0  0  0  0  0  0  0  0  0  0  0  0
    1.3230   -4.9812    7.8698 H   0  0  0  0  0  0  0  0  0  0  0  0
    3.7266   -4.5671    7.4576 H   0  0  0  0  0  0  0  0  0  0  0  0
    5.0288   -5.9722    6.0172 H   0  0  0  0  0  0  0  0  0  0  0  0
    5.3566   -3.9721    5.5181 H   0  0  0  0  0  0  0  0  0  0  0  0
    5.6705   -3.5209    3.2437 H   0  0  0  0  0  0  0  0  0  0  0  0
    7.1075   -5.3065    2.7823 H   0  0  0  0  0  0  0  0  0  0  0  0
    6.8976   -5.4317    4.4835 H   0  0  0  0  0  0  0  0  0  0  0  0
    5.4302  -10.5033    0.9545 H   0  0  0  0  0  0  0  0  0  0  0  0
    6.8647   -9.5773    0.5273 H   0  0  0  0  0  0  0  0  0  0  0  0
    5.2563   -8.8848    0.2541 H   0  0  0  0  0  0  0  0  0  0  0  0
    3.7596   -8.6822    2.2178 H   0  0  0  0  0  0  0  0  0  0  0  0
    4.3844   -9.6550    3.5435 H   0  0  0  0  0  0  0  0  0  0  0  0
    2.9473   -8.1766    6.5031 H   0  0  0  0  0  0  0  0  0  0  0  0
    4.6445   -8.2913    6.1844 H   0  0  0  0  0  0  0  0  0  0  0  0
    3.4204   -9.0976    5.2250 H   0  0  0  0  0  0  0  0  0  0  0  0
    2.1994   -7.2927    3.1945 H   0  0  0  0  0  0  0  0  0  0  0  0
    0.9582   -5.3598    3.0103 H   0  0  0  0  0  0  0  0  0  0  0  0
    1.4528   -4.6965    4.4923 H   0  0  0  0  0  0  0  0  0  0  0  0
    2.0591   -4.0276    1.9779 H   0  0  0  0  0  0  0  0  0  0  0  0
    3.9279   -5.7075    2.0456 H   0  0  0  0  0  0  0  0  0  0  0  0
    6.7392   -4.0276    1.1577 H   0  0  0  0  0  0  0  0  0  0  0  0
    5.9803   -2.7399   -3.2708 H   0  0  0  0  0  0  0  0  0  0  0  0
    1.0195   -3.4246   -1.8099 H   0  0  0  0  0  0  0  0  0  0  0  0
    1.7505   -2.5914    3.8075 H   0  0  0  0  0  0  0  0  0  0  0  0
    2.5403   -1.7613    1.7312 H   0  0  0  0  0  0  0  0  0  0  0  0
    5.4918    0.0232    4.0401 H   0  0  0  0  0  0  0  0  0  0  0  0
    5.2735   -1.6627    5.7083 H   0  0  0  0  0  0  0  0  0  0  0  0
    1.9135   -3.2587    6.1182 H   0  0  0  0  0  0  0  0  0  0  0  0
    2.3011   -1.5885    5.8949 H   0  0  0  0  0  0  0  0  0  0  0  0
    3.3031   -2.5325    6.9569 H   0  0  0  0  0  0  0  0  0  0  0  0
    0.1374   -6.8434    4.3840 H   0  0  0  0  0  0  0  0  0  0  0  0
    7.5172   -7.4680    2.1518 H   0  0  0  0  0  0  0  0  0  0  0  0
    6.4341   -9.5462    2.8701 H   0  0  0  0  0  0  0  0  0  0  0  0
  1  2  2  0
  1 46  1  0
  1 47  1  0
  2 44  1  0
  2  3  1  0
  3  4  2  0
  3  5  1  0
  5  6  1  0
  6 44  1  0
  6  7  1  0
  6 48  1  6
  7  9  1  0
  7  8  1  0
  7 49  1  1
  8  9  1  0
  9 10  1  0
  9 50  1  1
 10 20  1  0
 10 11  1  0
 10 51  1  1
 11 42  1  0
 11 12  1  0
 11 52  1  1
 12 25  1  0
 12 13  1  0
 12 53  1  6
 13 14  1  0
 13 54  1  0
 13 55  1  0
 14 19  2  0
 14 15  1  0
 15 16  1  0
 15 80  1  0
 16 17  1  0
 16 18  1  0
 16 81  1  1
 17 56  1  0
 17 57  1  0
 17 58  1  0
 18 19  1  0
 18 59  1  0
 18 60  1  0
 19 20  1  0
 20 21  1  1
 20 22  1  0
 21 61  1  0
 21 62  1  0
 21 63  1  0
 22 23  1  0
 22 44  1  0
 22 64  1  6
 23 24  1  0
 23 65  1  0
 23 66  1  0
 24 25  1  0
 24 36  1  0
 24 67  1  6
 25 68  1  6
 25 26  1  0
 26 27  1  0
 26 35  1  0
 27 28  2  0
 27 69  1  0
 28 29  1  0
 29 30  1  0
 29 35  2  0
 30 32  2  0
 30 31  1  0
 31 70  1  0
 31 45  1  0
 32 33  1  0
 33 71  1  0
 33 34  2  0
 34 35  1  0
 36 42  1  0
 36 37  1  0
 36 72  1  1
 37 38  1  0
 37 73  1  0
 38 39  2  0
 38 40  1  0
 40 41  2  0
 40 74  1  0
 41 42  1  0
 41 75  1  0
 42 43  1  1
 43 76  1  0
 43 77  1  0
 43 78  1  0
 44 79  1  6
M  CHG  1  16   1
M  END
>  <i_m_ct_stereo_status>  (124) 
1

>  <s_m_source_file>  (124) 
/var/tmp/pbs.5076255.sched01/tmp2obefojl/44ql_32cm2.sdf

>  <i_m_source_file_index>  (124) 
6

>  <i_lp_mmshare_version>  (124) 
48012

>  <i_f3d_flags>  (124) 
0

>  <s_epik_input>  (124) 
W0NIM11bQ0BAXTEyW0NASF0zW0NASF00W0NASF0oTzQpW0NASF01W0NASF0oQyg9W0NIMl0pQyg9TylPNSlbQ0BIXTJbQ0gyXVtDQEhdNltDQEhdN1tDQF0oW0NIM10pKFtDSF09W0NIXUMoPU8pW05IXTcpW0NAQEhdM1tDQEBIXShbQ0gyXUM9OFtDQEBIXTFbQ0gyXU4oTjgpW0NIM10pW0NAQEhdNm4oW2NIXW45KWMoYzE5KW5bY0hdW25IXWNcMT1OL1tIXQ==

>  <s_epik_cmdline>  (124) 
J2VwaWtfcHl0aG9uJywgJy1waHQnLCAnMi4wJywgJy1waCcsICc3LjAnLCAnLXRuJywgJzgnLCAnLW1hJywgJzIwMCcsICctaW1hZScsICc8aW5maWxlLm1hZT4nLCAnLW9tYWUnLCAnPG91dGZpbGUubWFlPic=

>  <r_lp_tautomer_probability>  (124) 
0.999997

>  <r_epik_Ionization_Penalty>  (124) 
1.88999

>  <r_epik_Ionization_Penalty_Charging>  (124) 
1.88836

>  <r_epik_Ionization_Penalty_Neutral>  (124) 
0.00163079

>  <r_epik_State_Penalty>  (124) 
2.21238

>  <r_epik_Charging_Adjusted_Penalty>  (124) 
4.10074

>  <i_epik_Tot_Q>  (124) 
1

>  <i_epik_Tot_abs_Q>  (124) 
1

>  <s_epik_Chemistry_Notes>  (124) 
This compound has an ester and may undergo hydrolysis at high or low pH.

>  <s_lp_Force_Field>  (124) 
OPLS3e

>  <r_lp_Energy>  (124) 
137.183

>  <b_lp_Chiralities_Consistent>  (124) 
1

>  <s_lp_Variant>  (124) 
29:0-7

>  <s_i_glide_gridfile>  (124) 
pfpi4k_grid

>  <i_i_glide_lignum>  (124) 
6

>  <i_i_glide_rotatable_bonds>  (124) 
1

>  <r_i_docking_score>  (124) 
-2.0695

>  <r_i_glide_ligand_efficiency>  (124) 
-0.0470341

>  <r_i_glide_ligand_efficiency_sa>  (124) 
-0.166047

>  <r_i_glide_ligand_efficiency_ln>  (124) 
-0.432571

>  <r_i_glide_gscore>  (124) 
-2.0695

>  <r_i_glide_lipo>  (124) 
-0.137712

>  <r_i_glide_hbond>  (124) 
0

>  <r_i_glide_metal>  (124) 
-0

>  <r_i_glide_rewards>  (124) 
-0.32096

>  <r_i_glide_evdw>  (124) 
-33.9506

>  <r_i_glide_ecoul>  (124) 
0.541866

>  <r_i_glide_erotb>  (124) 
0.0587531

>  <r_i_glide_esite>  (124) 
-0.0533304

>  <r_i_glide_emodel>  (124) 
-37.1115

>  <r_i_glide_energy>  (124) 
-33.4088

>  <r_i_glide_einternal>  (124) 
4.00312

>  <r_i_glide_intrahb_reward>  (124) 
-0

>  <i_i_glide_confnum>  (124) 
1

>  <i_i_glide_posenum>  (124) 
2

>  <r_i_glide_eff_state_penalty>  (124) 
0

>  <ligand_id>  (124) 
29

>  <original_smiles>  (124) 
C=C1C(=O)OC2C3OC3C3C4C5CC6=NN(C)CC6C3(C)C(CC(C5n3cnc5c(=N)[nH]cnc53)C3NC(=O)C=CC34C)C12

>  <smiles>  (124) 
[H]C([H])=C1C(=O)OC2([H])C3([H])OC3([H])C3([H])C4([H])C5([H])C([H])([H])C6=C(C3(C([H])([H])[H])C([H])(C([H])([H])C([H])(C3([H])N([H])C(=O)C([H])=C([H])C34C([H])([H])[H])C5([H])n3c([H])nc4c(N([H])[H])nc([H])nc43)C12[H])C([H])([H])[N+]([H])(C([H])([H])[H])N6[H]

$$$$
29:7:0
     RDKit          3D

 81 90  0  0  1  0  0  0  0  0999 V2000
   -0.8108   -8.9035    2.9583 C   0  0  0  0  0  0  0  0  0  0  0  0
    0.4165   -9.0195    3.4969 C   0  0  0  0  0  0  0  0  0  0  0  0
    1.1621  -10.2786    3.4955 C   0  0  0  0  0  0  0  0  0  0  0  0
    0.8651  -11.2984    2.8827 O   0  0  0  0  0  0  0  0  0  0  0  0
    2.2402  -10.1248    4.2673 O   0  0  0  0  0  0  0  0  0  0  0  0
    2.2406   -8.9077    4.9932 C   0  0  1  0  0  0  0  0  0  0  0  0
    3.6432   -8.5241    5.5289 C   0  0  1  0  0  0  0  0  0  0  0  0
    4.7131   -8.4980    4.5795 O   0  0  0  0  0  0  0  0  0  0  0  0
    4.4257   -7.2533    5.2076 C   0  0  1  0  0  0  0  0  0  0  0  0
    3.6542   -6.1276    4.5208 C   0  0  1  0  0  0  0  0  0  0  0  0
    3.7076   -4.7482    5.2827 C   0  0  1  0  0  0  0  0  0  0  0  0
    3.4496   -3.4853    4.4408 C   0  0  1  0  0  0  0  0  0  0  0  0
    4.3882   -3.3672    3.2449 C   0  0  0  0  0  0  0  0  0  0  0  0
    3.8213   -4.0604    2.0581 C   0  0  0  0  0  0  0  0  0  0  0  0
    3.7889   -3.3633    0.8802 N   0  0  0  0  0  0  0  0  0  0  0  0
    3.2461   -4.2279   -0.1706 N   0  0  2  0  0  0  0  0  0  0  0  0
    2.3713   -3.5380   -1.1445 C   0  0  0  0  0  0  0  0  0  0  0  0
    2.6299   -5.3671    0.5601 C   0  0  0  0  0  0  0  0  0  0  0  0
    3.2128   -5.2506    1.9768 C   0  0  0  0  0  0  0  0  0  0  0  0
    3.0578   -6.3834    3.0472 C   0  0  1  0  0  0  0  0  0  0  0  0
    3.7082   -7.5917    2.3014 C   0  0  0  0  0  0  0  0  0  0  0  0
    1.5554   -6.7275    3.2968 C   0  0  2  0  0  0  0  0  0  0  0  0
    0.6701   -5.4696    3.6295 C   0  0  0  0  0  0  0  0  0  0  0  0
    1.0008   -4.3348    4.6838 C   0  0  2  0  0  0  0  0  0  0  0  0
    1.9240   -3.1674    4.1679 C   0  0  1  0  0  0  0  0  0  0  0  0
    1.5575   -1.7922    4.6030 N   0  0  0  0  0  0  0  0  0  0  0  0
    2.4137   -0.6960    4.6105 C   0  0  0  0  0  0  0  0  0  0  0  0
    1.9098    0.4423    4.9882 N   0  0  0  0  0  0  0  0  0  0  0  0
    0.5691    0.1596    5.1722 C   0  0  0  0  0  0  0  0  0  0  0  0
   -0.5418    0.9480    5.5553 C   0  0  0  0  0  0  0  0  0  0  0  0
   -0.4285    2.2458    5.8579 N   0  0  0  0  0  0  0  0  0  0  0  0
   -1.7609    0.3734    5.6184 N   0  0  0  0  0  0  0  0  0  0  0  0
   -1.8838   -0.9104    5.2781 C   0  0  0  0  0  0  0  0  0  0  0  0
   -0.9374   -1.7781    4.9190 N   0  0  0  0  0  0  0  0  0  0  0  0
    0.3097   -1.2144    4.8898 C   0  0  0  0  0  0  0  0  0  0  0  0
    1.2899   -4.7752    6.1574 C   0  0  2  0  0  0  0  0  0  0  0  0
    0.3871   -4.0947    7.0887 N   0  0  0  0  0  0  0  0  0  0  0  0
    0.6639   -3.0707    7.9120 C   0  0  0  0  0  0  0  0  0  0  0  0
   -0.2043   -2.5900    8.6322 O   0  0  0  0  0  0  0  0  0  0  0  0
    2.0431   -2.6153    7.9045 C   0  0  0  0  0  0  0  0  0  0  0  0
    3.0188   -3.3424    7.3316 C   0  0  0  0  0  0  0  0  0  0  0  0
    2.7961   -4.6559    6.5796 C   0  0  2  0  0  0  0  0  0  0  0  0
    3.1425   -5.7353    7.6361 C   0  0  0  0  0  0  0  0  0  0  0  0
    1.2106   -7.9696    4.2430 C   0  0  1  0  0  0  0  0  0  0  0  0
   -1.2416    2.7820    6.1106 H   0  0  0  0  0  0  0  0  0  0  0  0
   -1.3711   -7.9847    3.0066 H   0  0  0  0  0  0  0  0  0  0  0  0
   -1.2838   -9.7507    2.4790 H   0  0  0  0  0  0  0  0  0  0  0  0
    1.7059   -9.1900    5.9008 H   0  0  0  0  0  0  0  0  0  0  0  0
    3.9188   -9.0633    6.4339 H   0  0  0  0  0  0  0  0  0  0  0  0
    5.1883   -6.9468    5.9218 H   0  0  0  0  0  0  0  0  0  0  0  0
    2.7800   -6.3753    5.0744 H   0  0  0  0  0  0  0  0  0  0  0  0
    4.7388   -4.6619    5.6254 H   0  0  0  0  0  0  0  0  0  0  0  0
    3.8507   -2.7128    5.0841 H   0  0  0  0  0  0  0  0  0  0  0  0
    4.5045   -2.3151    2.9818 H   0  0  0  0  0  0  0  0  0  0  0  0
    5.3889   -3.7423    3.4522 H   0  0  0  0  0  0  0  0  0  0  0  0
    2.0346   -4.2276   -1.9212 H   0  0  0  0  0  0  0  0  0  0  0  0
    2.9247   -2.7272   -1.6235 H   0  0  0  0  0  0  0  0  0  0  0  0
    1.4954   -3.1045   -0.6664 H   0  0  0  0  0  0  0  0  0  0  0  0
    1.5471   -5.2834    0.6037 H   0  0  0  0  0  0  0  0  0  0  0  0
    2.8659   -6.2638    0.0048 H   0  0  0  0  0  0  0  0  0  0  0  0
    3.4608   -8.5620    2.7134 H   0  0  0  0  0  0  0  0  0  0  0  0
    4.7954   -7.5030    2.2641 H   0  0  0  0  0  0  0  0  0  0  0  0
    3.3705   -7.7412    1.2843 H   0  0  0  0  0  0  0  0  0  0  0  0
    1.1929   -7.0321    2.3138 H   0  0  0  0  0  0  0  0  0  0  0  0
    0.5144   -4.9595    2.6827 H   0  0  0  0  0  0  0  0  0  0  0  0
   -0.3211   -5.8526    3.8768 H   0  0  0  0  0  0  0  0  0  0  0  0
    0.0030   -3.9258    4.7217 H   0  0  0  0  0  0  0  0  0  0  0  0
    1.7309   -3.1029    3.1011 H   0  0  0  0  0  0  0  0  0  0  0  0
    3.4558   -0.7330    4.3269 H   0  0  0  0  0  0  0  0  0  0  0  0
    0.4848    2.6746    5.7945 H   0  0  0  0  0  0  0  0  0  0  0  0
   -2.8894   -1.3041    5.2956 H   0  0  0  0  0  0  0  0  0  0  0  0
    0.9850   -5.8172    6.2436 H   0  0  0  0  0  0  0  0  0  0  0  0
   -0.5644   -4.4251    7.0967 H   0  0  0  0  0  0  0  0  0  0  0  0
    2.2832   -1.6877    8.4049 H   0  0  0  0  0  0  0  0  0  0  0  0
    4.0338   -2.9742    7.3768 H   0  0  0  0  0  0  0  0  0  0  0  0
    2.8500   -6.7382    7.3362 H   0  0  0  0  0  0  0  0  0  0  0  0
    2.6242   -5.5460    8.5778 H   0  0  0  0  0  0  0  0  0  0  0  0
    4.2094   -5.7443    7.8614 H   0  0  0  0  0  0  0  0  0  0  0  0
    0.5421   -7.6044    5.0193 H   0  0  0  0  0  0  0  0  0  0  0  0
    4.4071   -2.5861    0.6738 H   0  0  0  0  0  0  0  0  0  0  0  0
    4.0415   -4.5991   -0.6720 H   0  0  0  0  0  0  0  0  0  0  0  0
  1  2  2  0
  1 46  1  0
  1 47  1  0
  2 44  1  0
  2  3  1  0
  3  4  2  0
  3  5  1  0
  5  6  1  0
  6 44  1  0
  6  7  1  0
  6 48  1  1
  7  9  1  0
  7  8  1  0
  7 49  1  1
  8  9  1  0
  9 10  1  0
  9 50  1  1
 10 20  1  0
 10 11  1  0
 10 51  1  1
 11 42  1  0
 11 12  1  0
 11 52  1  1
 12 25  1  0
 12 13  1  0
 12 53  1  1
 13 14  1  0
 13 54  1  0
 13 55  1  0
 14 19  2  0
 14 15  1  0
 15 16  1  0
 15 80  1  0
 16 17  1  0
 16 18  1  0
 16 81  1  6
 17 56  1  0
 17 57  1  0
 17 58  1  0
 18 19  1  0
 18 59  1  0
 18 60  1  0
 19 20  1  0
 20 21  1  6
 20 22  1  0
 21 61  1  0
 21 62  1  0
 21 63  1  0
 22 23  1  0
 22 44  1  0
 22 64  1  6
 23 24  1  0
 23 65  1  0
 23 66  1  0
 24 25  1  0
 24 36  1  0
 24 67  1  1
 25 68  1  6
 25 26  1  0
 26 27  1  0
 26 35  1  0
 27 28  2  0
 27 69  1  0
 28 29  1  0
 29 30  1  0
 29 35  2  0
 30 32  2  0
 30 31  1  0
 31 70  1  0
 31 45  1  0
 32 33  1  0
 33 71  1  0
 33 34  2  0
 34 35  1  0
 36 42  1  0
 36 37  1  0
 36 72  1  6
 37 38  1  0
 37 73  1  0
 38 39  2  0
 38 40  1  0
 40 41  2  0
 40 74  1  0
 41 42  1  0
 41 75  1  0
 42 43  1  1
 43 76  1  0
 43 77  1  0
 43 78  1  0
 44 79  1  1
M  CHG  1  16   1
M  END
>  <i_m_ct_stereo_status>  (125) 
1

>  <s_m_source_file>  (125) 
/var/tmp/pbs.5076255.sched01/tmp2obefojl/44ql_32cm2.sdf

>  <i_m_source_file_index>  (125) 
7

>  <i_lp_mmshare_version>  (125) 
48012

>  <i_f3d_flags>  (125) 
0

>  <s_epik_input>  (125) 
W0NIM11bQ0BAXTEyW0NASF0zW0NASF00W0NASF0oTzQpW0NASF01W0NASF0oQyg9W0NIMl0pQyg9TylPNSlbQ0BIXTJbQ0gyXVtDQEhdNltDQEhdN1tDQF0oW0NIM10pKFtDSF09W0NIXUMoPU8pW05IXTcpW0NAQEhdM1tDQEBIXShbQ0gyXUM9OFtDQEBIXTFbQ0gyXU4oTjgpW0NIM10pW0NAQEhdNm4oW2NIXW45KWMoYzE5KW5bY0hdW25IXWNcMT1OL1tIXQ==

>  <s_epik_cmdline>  (125) 
J2VwaWtfcHl0aG9uJywgJy1waHQnLCAnMi4wJywgJy1waCcsICc3LjAnLCAnLXRuJywgJzgnLCAnLW1hJywgJzIwMCcsICctaW1hZScsICc8aW5maWxlLm1hZT4nLCAnLW9tYWUnLCAnPG91dGZpbGUubWFlPic=

>  <r_lp_tautomer_probability>  (125) 
0.999997

>  <r_epik_Ionization_Penalty>  (125) 
1.88999

>  <r_epik_Ionization_Penalty_Charging>  (125) 
1.88836

>  <r_epik_Ionization_Penalty_Neutral>  (125) 
0.00163079

>  <r_epik_State_Penalty>  (125) 
2.21238

>  <r_epik_Charging_Adjusted_Penalty>  (125) 
4.10074

>  <i_epik_Tot_Q>  (125) 
1

>  <i_epik_Tot_abs_Q>  (125) 
1

>  <s_epik_Chemistry_Notes>  (125) 
This compound has an ester and may undergo hydrolysis at high or low pH.

>  <s_lp_Force_Field>  (125) 
OPLS3e

>  <r_lp_Energy>  (125) 
149.949

>  <b_lp_Chiralities_Consistent>  (125) 
1

>  <s_lp_Variant>  (125) 
29:0-8

>  <s_i_glide_gridfile>  (125) 
pfpi4k_grid

>  <i_i_glide_lignum>  (125) 
7

>  <i_i_glide_rotatable_bonds>  (125) 
1

>  <r_i_docking_score>  (125) 
-2.57623

>  <r_i_glide_ligand_efficiency>  (125) 
-0.0585507

>  <r_i_glide_ligand_efficiency_sa>  (125) 
-0.206704

>  <r_i_glide_ligand_efficiency_ln>  (125) 
-0.538488

>  <r_i_glide_gscore>  (125) 
-2.57623

>  <r_i_glide_lipo>  (125) 
-0.0273759

>  <r_i_glide_hbond>  (125) 
-0.16

>  <r_i_glide_metal>  (125) 
-0

>  <r_i_glide_rewards>  (125) 
-0.131472

>  <r_i_glide_evdw>  (125) 
-30.1372

>  <r_i_glide_ecoul>  (125) 
-4.56836

>  <r_i_glide_erotb>  (125) 
0.0587531

>  <r_i_glide_esite>  (125) 
-0.124021

>  <r_i_glide_emodel>  (125) 
-39.088

>  <r_i_glide_energy>  (125) 
-34.7056

>  <r_i_glide_einternal>  (125) 
2.055

>  <r_i_glide_intrahb_reward>  (125) 
-0

>  <i_i_glide_confnum>  (125) 
2

>  <i_i_glide_posenum>  (125) 
1

>  <r_i_glide_eff_state_penalty>  (125) 
0

>  <ligand_id>  (125) 
29

>  <original_smiles>  (125) 
C=C1C(=O)OC2C3OC3C3C4C5CC6=NN(C)CC6C3(C)C(CC(C5n3cnc5c(=N)[nH]cnc53)C3NC(=O)C=CC34C)C12

>  <smiles>  (125) 
[H]C([H])=C1C(=O)OC2([H])C3([H])OC3([H])C3([H])C4([H])C5([H])C([H])([H])C6=C(C3(C([H])([H])[H])C([H])(C([H])([H])C([H])(C3([H])N([H])C(=O)C([H])=C([H])C34C([H])([H])[H])C5([H])n3c([H])nc4c(N([H])[H])nc([H])nc43)C12[H])C([H])([H])[N+]([H])(C([H])([H])[H])N6[H]

$$$$
29:7:1
     RDKit          3D

 81 90  0  0  1  0  0  0  0  0999 V2000
   -0.5636   -6.0269    5.5434 C   0  0  0  0  0  0  0  0  0  0  0  0
    0.4974   -5.6620    6.2742 C   0  0  0  0  0  0  0  0  0  0  0  0
    0.6467   -5.9614    7.7046 C   0  0  0  0  0  0  0  0  0  0  0  0
   -0.0701   -6.6984    8.3753 O   0  0  0  0  0  0  0  0  0  0  0  0
    1.6960   -5.2753    8.1710 O   0  0  0  0  0  0  0  0  0  0  0  0
    2.2195   -4.3733    7.2121 C   0  0  1  0  0  0  0  0  0  0  0  0
    3.6630   -3.9304    7.5221 C   0  0  1  0  0  0  0  0  0  0  0  0
    4.6134   -4.9764    7.7353 O   0  0  0  0  0  0  0  0  0  0  0  0
    4.8735   -4.1255    6.6209 C   0  0  1  0  0  0  0  0  0  0  0  0
    4.5979   -4.5251    5.1750 C   0  0  1  0  0  0  0  0  0  0  0  0
    5.2276   -3.5513    4.1183 C   0  0  1  0  0  0  0  0  0  0  0  0
    5.4875   -4.1459    2.7270 C   0  0  1  0  0  0  0  0  0  0  0  0
    6.3601   -5.3897    2.7386 C   0  0  0  0  0  0  0  0  0  0  0  0
    5.5353   -6.6094    2.8986 C   0  0  0  0  0  0  0  0  0  0  0  0
    5.7693   -7.6388    2.0295 N   0  0  0  0  0  0  0  0  0  0  0  0
    4.8799   -8.7528    2.3875 N   0  0  2  0  0  0  0  0  0  0  0  0
    4.3218   -9.4818    1.2367 C   0  0  0  0  0  0  0  0  0  0  0  0
    3.8685   -8.1720    3.3105 C   0  0  0  0  0  0  0  0  0  0  0  0
    4.4914   -6.8265    3.7087 C   0  0  0  0  0  0  0  0  0  0  0  0
    3.9218   -5.9498    4.8711 C   0  0  1  0  0  0  0  0  0  0  0  0
    4.0024   -6.9489    6.0693 C   0  0  0  0  0  0  0  0  0  0  0  0
    2.4252   -5.5935    4.6276 C   0  0  2  0  0  0  0  0  0  0  0  0
    2.1237   -4.9711    3.1999 C   0  0  0  0  0  0  0  0  0  0  0  0
    2.9168   -3.7767    2.5055 C   0  0  2  0  0  0  0  0  0  0  0  0
    4.2414   -4.1877    1.7544 C   0  0  1  0  0  0  0  0  0  0  0  0
    4.5000   -3.4864    0.4637 N   0  0  0  0  0  0  0  0  0  0  0  0
    5.7301   -3.0688   -0.0560 C   0  0  0  0  0  0  0  0  0  0  0  0
    5.7157   -2.4851   -1.2164 N   0  0  0  0  0  0  0  0  0  0  0  0
    4.4000   -2.6162   -1.6246 C   0  0  0  0  0  0  0  0  0  0  0  0
    3.7325   -2.2823   -2.8219 C   0  0  0  0  0  0  0  0  0  0  0  0
    4.3417   -1.6447   -3.8216 N   0  0  0  0  0  0  0  0  0  0  0  0
    2.4469   -2.6485   -2.9772 N   0  0  0  0  0  0  0  0  0  0  0  0
    1.8355   -3.2838   -1.9714 C   0  0  0  0  0  0  0  0  0  0  0  0
    2.3107   -3.6267   -0.7638 N   0  0  0  0  0  0  0  0  0  0  0  0
    3.6283   -3.2739   -0.6176 C   0  0  0  0  0  0  0  0  0  0  0  0
    3.0324   -2.4478    3.3286 C   0  0  2  0  0  0  0  0  0  0  0  0
    2.5120   -1.3224    2.5470 N   0  0  0  0  0  0  0  0  0  0  0  0
    3.1972   -0.3736    1.8904 C   0  0  0  0  0  0  0  0  0  0  0  0
    2.6139    0.5093    1.2779 O   0  0  0  0  0  0  0  0  0  0  0  0
    4.6432   -0.4537    2.0259 C   0  0  0  0  0  0  0  0  0  0  0  0
    5.2151   -1.2362    2.9585 C   0  0  0  0  0  0  0  0  0  0  0  0
    4.4628   -2.1697    3.9085 C   0  0  2  0  0  0  0  0  0  0  0  0
    4.3767   -1.3501    5.2193 C   0  0  0  0  0  0  0  0  0  0  0  0
    1.6488   -4.8334    5.8049 C   0  0  1  0  0  0  0  0  0  0  0  0
    3.8108   -1.3300   -4.6135 H   0  0  0  0  0  0  0  0  0  0  0  0
   -0.6760   -5.7620    4.5065 H   0  0  0  0  0  0  0  0  0  0  0  0
   -1.3425   -6.5839    6.0026 H   0  0  0  0  0  0  0  0  0  0  0  0
    1.6355   -3.4774    7.4218 H   0  0  0  0  0  0  0  0  0  0  0  0
    3.7209   -3.1574    8.2848 H   0  0  0  0  0  0  0  0  0  0  0  0
    5.7112   -3.4501    6.7776 H   0  0  0  0  0  0  0  0  0  0  0  0
    3.7215   -3.9262    5.1538 H   0  0  0  0  0  0  0  0  0  0  0  0
    6.2007   -3.3079    4.5369 H   0  0  0  0  0  0  0  0  0  0  0  0
    6.1997   -3.4246    2.3731 H   0  0  0  0  0  0  0  0  0  0  0  0
    6.8758   -5.4562    1.7806 H   0  0  0  0  0  0  0  0  0  0  0  0
    7.1250   -5.3802    3.5099 H   0  0  0  0  0  0  0  0  0  0  0  0
    3.7102  -10.2985    1.6229 H   0  0  0  0  0  0  0  0  0  0  0  0
    5.1410   -9.8941    0.6422 H   0  0  0  0  0  0  0  0  0  0  0  0
    3.7046   -8.8528    0.5919 H   0  0  0  0  0  0  0  0  0  0  0  0
    2.9160   -7.9957    2.8137 H   0  0  0  0  0  0  0  0  0  0  0  0
    3.6869   -8.8875    4.1063 H   0  0  0  0  0  0  0  0  0  0  0  0
    3.3937   -6.6811    6.9232 H   0  0  0  0  0  0  0  0  0  0  0  0
    5.0314   -7.0834    6.4088 H   0  0  0  0  0  0  0  0  0  0  0  0
    3.6055   -7.9379    5.8737 H   0  0  0  0  0  0  0  0  0  0  0  0
    1.9420   -6.5714    4.5756 H   0  0  0  0  0  0  0  0  0  0  0  0
    2.1357   -5.8021    2.4938 H   0  0  0  0  0  0  0  0  0  0  0  0
    1.0691   -4.6887    3.2118 H   0  0  0  0  0  0  0  0  0  0  0  0
    2.2078   -3.5392    1.7128 H   0  0  0  0  0  0  0  0  0  0  0  0
    4.0447   -5.2000    1.4144 H   0  0  0  0  0  0  0  0  0  0  0  0
    6.6897   -3.1971    0.4240 H   0  0  0  0  0  0  0  0  0  0  0  0
    5.3191   -1.4207   -3.7070 H   0  0  0  0  0  0  0  0  0  0  0  0
    0.7782   -3.4380   -2.1471 H   0  0  0  0  0  0  0  0  0  0  0  0
    2.3324   -2.5079    4.1614 H   0  0  0  0  0  0  0  0  0  0  0  0
    1.5097   -1.2630    2.4558 H   0  0  0  0  0  0  0  0  0  0  0  0
    5.2636    0.1543    1.3831 H   0  0  0  0  0  0  0  0  0  0  0  0
    6.2886   -1.2310    3.0286 H   0  0  0  0  0  0  0  0  0  0  0  0
    3.6987   -1.7798    5.9528 H   0  0  0  0  0  0  0  0  0  0  0  0
    4.0127   -0.3389    5.0295 H   0  0  0  0  0  0  0  0  0  0  0  0
    5.3587   -1.2449    5.6849 H   0  0  0  0  0  0  0  0  0  0  0  0
    1.1936   -3.9448    5.3683 H   0  0  0  0  0  0  0  0  0  0  0  0
    6.6526   -7.7711    1.5415 H   0  0  0  0  0  0  0  0  0  0  0  0
    5.4367   -9.3981    2.9313 H   0  0  0  0  0  0  0  0  0  0  0  0
  1  2  2  0
  1 46  1  0
  1 47  1  0
  2 44  1  0
  2  3  1  0
  3  4  2  0
  3  5  1  0
  5  6  1  0
  6 44  1  0
  6  7  1  0
  6 48  1  1
  7  9  1  0
  7  8  1  0
  7 49  1  1
  8  9  1  0
  9 10  1  0
  9 50  1  6
 10 20  1  0
 10 11  1  0
 10 51  1  1
 11 42  1  0
 11 12  1  0
 11 52  1  1
 12 25  1  0
 12 13  1  0
 12 53  1  6
 13 14  1  0
 13 54  1  0
 13 55  1  0
 14 19  2  0
 14 15  1  0
 15 16  1  0
 15 80  1  0
 16 17  1  0
 16 18  1  0
 16 81  1  1
 17 56  1  0
 17 57  1  0
 17 58  1  0
 18 19  1  0
 18 59  1  0
 18 60  1  0
 19 20  1  0
 20 21  1  1
 20 22  1  0
 21 61  1  0
 21 62  1  0
 21 63  1  0
 22 23  1  0
 22 44  1  0
 22 64  1  6
 23 24  1  0
 23 65  1  0
 23 66  1  0
 24 25  1  0
 24 36  1  0
 24 67  1  6
 25 68  1  6
 25 26  1  0
 26 27  1  0
 26 35  1  0
 27 28  2  0
 27 69  1  0
 28 29  1  0
 29 30  1  0
 29 35  2  0
 30 32  2  0
 30 31  1  0
 31 70  1  0
 31 45  1  0
 32 33  1  0
 33 71  1  0
 33 34  2  0
 34 35  1  0
 36 42  1  0
 36 37  1  0
 36 72  1  1
 37 38  1  0
 37 73  1  0
 38 39  2  0
 38 40  1  0
 40 41  2  0
 40 74  1  0
 41 42  1  0
 41 75  1  0
 42 43  1  1
 43 76  1  0
 43 77  1  0
 43 78  1  0
 44 79  1  6
M  CHG  1  16   1
M  END
>  <i_m_ct_stereo_status>  (126) 
1

>  <s_m_source_file>  (126) 
/var/tmp/pbs.5076255.sched01/tmp2obefojl/44ql_32cm2.sdf

>  <i_m_source_file_index>  (126) 
7

>  <i_lp_mmshare_version>  (126) 
48012

>  <i_f3d_flags>  (126) 
0

>  <s_epik_input>  (126) 
W0NIM11bQ0BAXTEyW0NASF0zW0NASF00W0NASF0oTzQpW0NASF01W0NASF0oQyg9W0NIMl0pQyg9TylPNSlbQ0BIXTJbQ0gyXVtDQEhdNltDQEhdN1tDQF0oW0NIM10pKFtDSF09W0NIXUMoPU8pW05IXTcpW0NAQEhdM1tDQEBIXShbQ0gyXUM9OFtDQEBIXTFbQ0gyXU4oTjgpW0NIM10pW0NAQEhdNm4oW2NIXW45KWMoYzE5KW5bY0hdW25IXWNcMT1OL1tIXQ==

>  <s_epik_cmdline>  (126) 
J2VwaWtfcHl0aG9uJywgJy1waHQnLCAnMi4wJywgJy1waCcsICc3LjAnLCAnLXRuJywgJzgnLCAnLW1hJywgJzIwMCcsICctaW1hZScsICc8aW5maWxlLm1hZT4nLCAnLW9tYWUnLCAnPG91dGZpbGUubWFlPic=

>  <r_lp_tautomer_probability>  (126) 
0.999997

>  <r_epik_Ionization_Penalty>  (126) 
1.88999

>  <r_epik_Ionization_Penalty_Charging>  (126) 
1.88836

>  <r_epik_Ionization_Penalty_Neutral>  (126) 
0.00163079

>  <r_epik_State_Penalty>  (126) 
2.21238

>  <r_epik_Charging_Adjusted_Penalty>  (126) 
4.10074

>  <i_epik_Tot_Q>  (126) 
1

>  <i_epik_Tot_abs_Q>  (126) 
1

>  <s_epik_Chemistry_Notes>  (126) 
This compound has an ester and may undergo hydrolysis at high or low pH.

>  <s_lp_Force_Field>  (126) 
OPLS3e

>  <r_lp_Energy>  (126) 
149.949

>  <b_lp_Chiralities_Consistent>  (126) 
1

>  <s_lp_Variant>  (126) 
29:0-8

>  <s_i_glide_gridfile>  (126) 
pfpi4k_grid

>  <i_i_glide_lignum>  (126) 
7

>  <i_i_glide_rotatable_bonds>  (126) 
1

>  <r_i_docking_score>  (126) 
-2.51814

>  <r_i_glide_ligand_efficiency>  (126) 
-0.0572304

>  <r_i_glide_ligand_efficiency_sa>  (126) 
-0.202043

>  <r_i_glide_ligand_efficiency_ln>  (126) 
-0.526346

>  <r_i_glide_gscore>  (126) 
-2.51814

>  <r_i_glide_lipo>  (126) 
-0.385838

>  <r_i_glide_hbond>  (126) 
-0.103239

>  <r_i_glide_metal>  (126) 
-0

>  <r_i_glide_rewards>  (126) 
-0.260577

>  <r_i_glide_evdw>  (126) 
-28.9652

>  <r_i_glide_ecoul>  (126) 
-2.22511

>  <r_i_glide_erotb>  (126) 
0.0587531

>  <r_i_glide_esite>  (126) 
-0.0452106

>  <r_i_glide_emodel>  (126) 
-33.3908

>  <r_i_glide_energy>  (126) 
-31.1903

>  <r_i_glide_einternal>  (126) 
5.1109

>  <r_i_glide_intrahb_reward>  (126) 
-0

>  <i_i_glide_confnum>  (126) 
2

>  <i_i_glide_posenum>  (126) 
12

>  <r_i_glide_eff_state_penalty>  (126) 
0

>  <ligand_id>  (126) 
29

>  <original_smiles>  (126) 
C=C1C(=O)OC2C3OC3C3C4C5CC6=NN(C)CC6C3(C)C(CC(C5n3cnc5c(=N)[nH]cnc53)C3NC(=O)C=CC34C)C12

>  <smiles>  (126) 
[H]C([H])=C1C(=O)OC2([H])C3([H])OC3([H])C3([H])C4([H])C5([H])C([H])([H])C6=C(C3(C([H])([H])[H])C([H])(C([H])([H])C([H])(C3([H])N([H])C(=O)C([H])=C([H])C34C([H])([H])[H])C5([H])n3c([H])nc4c(N([H])[H])nc([H])nc43)C12[H])C([H])([H])[N+]([H])(C([H])([H])[H])N6[H]

$$$$
29:7:2
     RDKit          3D

 81 90  0  0  1  0  0  0  0  0999 V2000
   -0.1591   -8.1651    5.0415 C   0  0  0  0  0  0  0  0  0  0  0  0
    0.7273   -7.6257    5.8977 C   0  0  0  0  0  0  0  0  0  0  0  0
    0.8054   -8.0165    7.3091 C   0  0  0  0  0  0  0  0  0  0  0  0
    0.2171   -8.9536    7.8456 O   0  0  0  0  0  0  0  0  0  0  0  0
    1.6163   -7.1586    7.9328 O   0  0  0  0  0  0  0  0  0  0  0  0
    2.0073   -6.0629    7.1218 C   0  0  1  0  0  0  0  0  0  0  0  0
    3.2657   -5.3337    7.6569 C   0  0  1  0  0  0  0  0  0  0  0  0
    4.4147   -6.1421    7.9219 O   0  0  0  0  0  0  0  0  0  0  0  0
    4.5896   -5.1432    6.9224 C   0  0  1  0  0  0  0  0  0  0  0  0
    4.5884   -5.4452    5.4239 C   0  0  1  0  0  0  0  0  0  0  0  0
    5.0834   -4.2513    4.5235 C   0  0  1  0  0  0  0  0  0  0  0  0
    5.6232   -4.6216    3.1306 C   0  0  1  0  0  0  0  0  0  0  0  0
    6.7620   -5.6321    3.1806 C   0  0  0  0  0  0  0  0  0  0  0  0
    6.2326   -7.0210    3.1463 C   0  0  0  0  0  0  0  0  0  0  0  0
    6.7915   -7.8774    2.2363 N   0  0  0  0  0  0  0  0  0  0  0  0
    6.1681   -9.1942    2.3966 N   0  0  2  0  0  0  0  0  0  0  0  0
    5.9484   -9.9205    1.1351 C   0  0  0  0  0  0  0  0  0  0  0  0
    4.9507   -8.9533    3.2174 C   0  0  0  0  0  0  0  0  0  0  0  0
    5.1858   -7.5489    3.7941 C   0  0  0  0  0  0  0  0  0  0  0  0
    4.2952   -6.9514    4.9347 C   0  0  1  0  0  0  0  0  0  0  0  0
    4.4811   -8.0227    6.0560 C   0  0  0  0  0  0  0  0  0  0  0  0
    2.7886   -6.9358    4.5254 C   0  0  2  0  0  0  0  0  0  0  0  0
    2.5182   -6.2500    3.1287 C   0  0  0  0  0  0  0  0  0  0  0  0
    3.0776   -4.8440    2.6529 C   0  0  2  0  0  0  0  0  0  0  0  0
    4.5215   -4.8608    2.0243 C   0  0  1  0  0  0  0  0  0  0  0  0
    4.7361   -3.9959    0.8312 N   0  0  0  0  0  0  0  0  0  0  0  0
    5.9575   -3.4948    0.3958 C   0  0  0  0  0  0  0  0  0  0  0  0
    5.9510   -2.7845   -0.6982 N   0  0  0  0  0  0  0  0  0  0  0  0
    4.6431   -2.8798   -1.1278 C   0  0  0  0  0  0  0  0  0  0  0  0
    3.9744   -2.3838   -2.2741 C   0  0  0  0  0  0  0  0  0  0  0  0
    4.5786   -1.6284   -3.1895 N   0  0  0  0  0  0  0  0  0  0  0  0
    2.6812   -2.6988   -2.4619 N   0  0  0  0  0  0  0  0  0  0  0  0
    2.0645   -3.4578   -1.5538 C   0  0  0  0  0  0  0  0  0  0  0  0
    2.5519   -3.9754   -0.4161 N   0  0  0  0  0  0  0  0  0  0  0  0
    3.8671   -3.6574   -0.2236 C   0  0  0  0  0  0  0  0  0  0  0  0
    2.7906   -3.6013    3.5616 C   0  0  2  0  0  0  0  0  0  0  0  0
    2.1081   -2.5507    2.8014 N   0  0  0  0  0  0  0  0  0  0  0  0
    2.6180   -1.4040    2.3237 C   0  0  0  0  0  0  0  0  0  0  0  0
    1.9110   -0.6111    1.7112 O   0  0  0  0  0  0  0  0  0  0  0  0
    4.0160   -1.1652    2.6355 C   0  0  0  0  0  0  0  0  0  0  0  0
    4.6586   -1.8893    3.5704 C   0  0  0  0  0  0  0  0  0  0  0  0
    4.0449   -3.0642    4.3363 C   0  0  2  0  0  0  0  0  0  0  0  0
    3.6140   -2.4274    5.6822 C   0  0  0  0  0  0  0  0  0  0  0  0
    1.7138   -6.5091    5.6312 C   0  0  1  0  0  0  0  0  0  0  0  0
    4.0390   -1.2515   -3.9529 H   0  0  0  0  0  0  0  0  0  0  0  0
   -0.2334   -7.8365    4.0165 H   0  0  0  0  0  0  0  0  0  0  0  0
   -0.8388   -8.9455    5.3596 H   0  0  0  0  0  0  0  0  0  0  0  0
    1.2128   -5.3444    7.3270 H   0  0  0  0  0  0  0  0  0  0  0  0
    3.0527   -4.6534    8.4809 H   0  0  0  0  0  0  0  0  0  0  0  0
    5.2216   -4.3171    7.2451 H   0  0  0  0  0  0  0  0  0  0  0  0
    3.5972   -5.0712    5.3358 H   0  0  0  0  0  0  0  0  0  0  0  0
    5.9332   -3.8323    5.0642 H   0  0  0  0  0  0  0  0  0  0  0  0
    6.1654   -3.7235    2.8754 H   0  0  0  0  0  0  0  0  0  0  0  0
    7.3958   -5.5013    2.3036 H   0  0  0  0  0  0  0  0  0  0  0  0
    7.4076   -5.5063    4.0474 H   0  0  0  0  0  0  0  0  0  0  0  0
    5.5523  -10.9126    1.3540 H   0  0  0  0  0  0  0  0  0  0  0  0
    6.8985  -10.0464    0.6108 H   0  0  0  0  0  0  0  0  0  0  0  0
    5.2535   -9.3885    0.4844 H   0  0  0  0  0  0  0  0  0  0  0  0
    4.0490   -8.9510    2.6055 H   0  0  0  0  0  0  0  0  0  0  0  0
    4.8601   -9.7726    3.9246 H   0  0  0  0  0  0  0  0  0  0  0  0
    3.7348   -7.9914    6.8394 H   0  0  0  0  0  0  0  0  0  0  0  0
    5.4672   -7.9564    6.5197 H   0  0  0  0  0  0  0  0  0  0  0  0
    4.3549   -9.0488    5.7354 H   0  0  0  0  0  0  0  0  0  0  0  0
    2.5643   -7.9854    4.3308 H   0  0  0  0  0  0  0  0  0  0  0  0
    2.8077   -6.9705    2.3624 H   0  0  0  0  0  0  0  0  0  0  0  0
    1.4345   -6.2159    3.0116 H   0  0  0  0  0  0  0  0  0  0  0  0
    2.3973   -4.7191    1.8238 H   0  0  0  0  0  0  0  0  0  0  0  0
    4.6257   -5.8495    1.5883 H   0  0  0  0  0  0  0  0  0  0  0  0
    6.9004   -3.6543    0.8966 H   0  0  0  0  0  0  0  0  0  0  0  0
    5.5478   -1.3974   -3.0512 H   0  0  0  0  0  0  0  0  0  0  0  0
    1.0262   -3.6589   -1.7723 H   0  0  0  0  0  0  0  0  0  0  0  0
    2.0364   -3.9024    4.2877 H   0  0  0  0  0  0  0  0  0  0  0  0
    1.1386   -2.7132    2.5849 H   0  0  0  0  0  0  0  0  0  0  0  0
    4.5282   -0.3591    2.1280 H   0  0  0  0  0  0  0  0  0  0  0  0
    5.6891   -1.6515    3.7902 H   0  0  0  0  0  0  0  0  0  0  0  0
    2.9770   -3.0753    6.2786 H   0  0  0  0  0  0  0  0  0  0  0  0
    3.0380   -1.5148    5.5190 H   0  0  0  0  0  0  0  0  0  0  0  0
    4.4785   -2.1490    6.2865 H   0  0  0  0  0  0  0  0  0  0  0  0
    1.1272   -5.6986    5.2054 H   0  0  0  0  0  0  0  0  0  0  0  0
    7.7348   -7.7669    1.8738 H   0  0  0  0  0  0  0  0  0  0  0  0
    6.8042   -9.7343    2.9687 H   0  0  0  0  0  0  0  0  0  0  0  0
  1  2  2  0
  1 46  1  0
  1 47  1  0
  2 44  1  0
  2  3  1  0
  3  4  2  0
  3  5  1  0
  5  6  1  0
  6 44  1  0
  6  7  1  0
  6 48  1  1
  7  9  1  0
  7  8  1  0
  7 49  1  1
  8  9  1  0
  9 10  1  0
  9 50  1  1
 10 20  1  0
 10 11  1  0
 10 51  1  6
 11 42  1  0
 11 12  1  0
 11 52  1  1
 12 25  1  0
 12 13  1  0
 12 53  1  6
 13 14  1  0
 13 54  1  0
 13 55  1  0
 14 19  2  0
 14 15  1  0
 15 16  1  0
 15 80  1  0
 16 17  1  0
 16 18  1  0
 16 81  1  1
 17 56  1  0
 17 57  1  0
 17 58  1  0
 18 19  1  0
 18 59  1  0
 18 60  1  0
 19 20  1  0
 20 21  1  1
 20 22  1  0
 21 61  1  0
 21 62  1  0
 21 63  1  0
 22 23  1  0
 22 44  1  0
 22 64  1  6
 23 24  1  0
 23 65  1  0
 23 66  1  0
 24 25  1  0
 24 36  1  0
 24 67  1  6
 25 68  1  6
 25 26  1  0
 26 27  1  0
 26 35  1  0
 27 28  2  0
 27 69  1  0
 28 29  1  0
 29 30  1  0
 29 35  2  0
 30 32  2  0
 30 31  1  0
 31 70  1  0
 31 45  1  0
 32 33  1  0
 33 71  1  0
 33 34  2  0
 34 35  1  0
 36 42  1  0
 36 37  1  0
 36 72  1  1
 37 38  1  0
 37 73  1  0
 38 39  2  0
 38 40  1  0
 40 41  2  0
 40 74  1  0
 41 42  1  0
 41 75  1  0
 42 43  1  1
 43 76  1  0
 43 77  1  0
 43 78  1  0
 44 79  1  6
M  CHG  1  16   1
M  END
>  <i_m_ct_stereo_status>  (127) 
1

>  <s_m_source_file>  (127) 
/var/tmp/pbs.5076255.sched01/tmp2obefojl/44ql_32cm2.sdf

>  <i_m_source_file_index>  (127) 
7

>  <i_lp_mmshare_version>  (127) 
48012

>  <i_f3d_flags>  (127) 
0

>  <s_epik_input>  (127) 
W0NIM11bQ0BAXTEyW0NASF0zW0NASF00W0NASF0oTzQpW0NASF01W0NASF0oQyg9W0NIMl0pQyg9TylPNSlbQ0BIXTJbQ0gyXVtDQEhdNltDQEhdN1tDQF0oW0NIM10pKFtDSF09W0NIXUMoPU8pW05IXTcpW0NAQEhdM1tDQEBIXShbQ0gyXUM9OFtDQEBIXTFbQ0gyXU4oTjgpW0NIM10pW0NAQEhdNm4oW2NIXW45KWMoYzE5KW5bY0hdW25IXWNcMT1OL1tIXQ==

>  <s_epik_cmdline>  (127) 
J2VwaWtfcHl0aG9uJywgJy1waHQnLCAnMi4wJywgJy1waCcsICc3LjAnLCAnLXRuJywgJzgnLCAnLW1hJywgJzIwMCcsICctaW1hZScsICc8aW5maWxlLm1hZT4nLCAnLW9tYWUnLCAnPG91dGZpbGUubWFlPic=

>  <r_lp_tautomer_probability>  (127) 
0.999997

>  <r_epik_Ionization_Penalty>  (127) 
1.88999

>  <r_epik_Ionization_Penalty_Charging>  (127) 
1.88836

>  <r_epik_Ionization_Penalty_Neutral>  (127) 
0.00163079

>  <r_epik_State_Penalty>  (127) 
2.21238

>  <r_epik_Charging_Adjusted_Penalty>  (127) 
4.10074

>  <i_epik_Tot_Q>  (127) 
1

>  <i_epik_Tot_abs_Q>  (127) 
1

>  <s_epik_Chemistry_Notes>  (127) 
This compound has an ester and may undergo hydrolysis at high or low pH.

>  <s_lp_Force_Field>  (127) 
OPLS3e

>  <r_lp_Energy>  (127) 
149.949

>  <b_lp_Chiralities_Consistent>  (127) 
1

>  <s_lp_Variant>  (127) 
29:0-8

>  <s_i_glide_gridfile>  (127) 
pfpi4k_grid

>  <i_i_glide_lignum>  (127) 
7

>  <i_i_glide_rotatable_bonds>  (127) 
1

>  <r_i_docking_score>  (127) 
-1.9977

>  <r_i_glide_ligand_efficiency>  (127) 
-0.0454022

>  <r_i_glide_ligand_efficiency_sa>  (127) 
-0.160286

>  <r_i_glide_ligand_efficiency_ln>  (127) 
-0.417562

>  <r_i_glide_gscore>  (127) 
-1.9977

>  <r_i_glide_lipo>  (127) 
-0.106036

>  <r_i_glide_hbond>  (127) 
0

>  <r_i_glide_metal>  (127) 
-0

>  <r_i_glide_rewards>  (127) 
-0.274333

>  <r_i_glide_evdw>  (127) 
-32.9887

>  <r_i_glide_ecoul>  (127) 
0.146897

>  <r_i_glide_erotb>  (127) 
0.0587531

>  <r_i_glide_esite>  (127) 
-0.048682

>  <r_i_glide_emodel>  (127) 
-35.7561

>  <r_i_glide_energy>  (127) 
-32.8418

>  <r_i_glide_einternal>  (127) 
2.22704

>  <r_i_glide_intrahb_reward>  (127) 
-0

>  <i_i_glide_confnum>  (127) 
2

>  <i_i_glide_posenum>  (127) 
27

>  <r_i_glide_eff_state_penalty>  (127) 
0

>  <ligand_id>  (127) 
29

>  <original_smiles>  (127) 
C=C1C(=O)OC2C3OC3C3C4C5CC6=NN(C)CC6C3(C)C(CC(C5n3cnc5c(=N)[nH]cnc53)C3NC(=O)C=CC34C)C12

>  <smiles>  (127) 
[H]C([H])=C1C(=O)OC2([H])C3([H])OC3([H])C3([H])C4([H])C5([H])C([H])([H])C6=C(C3(C([H])([H])[H])C([H])(C([H])([H])C([H])(C3([H])N([H])C(=O)C([H])=C([H])C34C([H])([H])[H])C5([H])n3c([H])nc4c(N([H])[H])nc([H])nc43)C12[H])C([H])([H])[N+]([H])(C([H])([H])[H])N6[H]

$$$$
31:0:0
     RDKit          3D

 94101  0  0  1  0  0  0  0  0999 V2000
    3.8044   -3.4691    0.0490 C   0  0  0  0  0  0  0  0  0  0  0  0
    4.8251   -3.5742    0.8999 C   0  0  0  0  0  0  0  0  0  0  0  0
    6.1595   -2.8595    0.6097 C   0  0  0  0  0  0  0  0  0  0  0  0
    4.6786   -4.4316    2.1682 C   0  0  1  0  0  0  0  0  0  0  0  0
    5.8066   -5.0657    2.5284 O   0  0  0  0  0  0  0  0  0  0  0  0
    4.9888   -5.8419    3.3853 C   0  0  1  0  0  0  0  0  0  0  0  0
    3.3846   -5.8630    2.9325 C   0  0  2  0  0  0  0  0  0  0  0  0
    2.2982   -6.8902    3.2071 C   0  0  0  0  0  0  0  0  0  0  0  0
    1.7578   -7.4238    4.5698 C   0  0  2  0  0  0  0  0  0  0  0  0
    1.3154   -6.0799    5.3418 C   0  0  1  0  0  0  0  0  0  0  0  0
    2.1869   -4.6948    5.2243 C   0  0  0  0  0  0  0  0  0  0  0  0
    3.7733   -4.4410    5.0399 C   0  0  2  0  0  0  0  0  0  0  0  0
    4.1772   -3.5412    3.6172 C   0  0  1  0  0  0  0  0  0  0  0  0
    5.1832   -2.4047    3.9808 C   0  0  0  0  0  0  0  0  0  0  0  0
    4.5439   -1.0967    4.4346 C   0  0  0  0  0  0  0  0  0  0  0  0
    3.9404   -0.1914    3.6407 C   0  0  0  0  0  0  0  0  0  0  0  0
    3.7254   -0.3214    2.1392 C   0  0  0  0  0  0  0  0  0  0  0  0
    3.3856    1.1001    4.2029 C   0  0  0  0  0  0  0  0  0  0  0  0
    4.7309   -5.7649    5.4574 C   0  0  0  0  0  0  0  0  0  0  0  0
    6.0851   -5.1727    6.0685 C   0  0  0  0  0  0  0  0  0  0  0  0
    4.2482   -6.2727    6.8277 C   0  0  0  0  0  0  0  0  0  0  0  0
    5.1997   -6.9257    4.2350 C   0  0  1  0  0  0  0  0  0  0  0  0
    4.8922   -7.4018    2.6336 C   0  0  1  0  0  0  0  0  0  0  0  0
    6.3156   -7.6749    1.9749 C   0  0  0  0  0  0  0  0  0  0  0  0
    4.0712   -8.8212    2.2573 C   0  0  1  0  0  0  0  0  0  0  0  0
    4.9185   -9.8230    1.6842 O   0  0  0  0  0  0  0  0  0  0  0  0
    3.2136   -9.6811    3.3121 C   0  0  1  0  0  0  0  0  0  0  0  0
    4.0974   -9.6519    4.4341 O   0  0  0  0  0  0  0  0  0  0  0  0
    3.7206   -9.1093    5.5802 C   0  0  0  0  0  0  0  0  0  0  0  0
    4.4129   -9.1687    6.5872 O   0  0  0  0  0  0  0  0  0  0  0  0
    2.2517   -8.6537    5.5908 C   0  0  1  0  0  0  0  0  0  0  0  0
    1.8307   -8.5337    6.9311 O   0  0  0  0  0  0  0  0  0  0  0  0
    1.6085   -9.9973    5.1518 C   0  0  0  0  0  0  0  0  0  0  0  0
    1.5831   -9.6878    3.6940 C   0  0  2  0  0  0  0  0  0  0  0  0
    0.8488  -10.7973    2.9264 C   0  0  0  0  0  0  0  0  0  0  0  0
    0.6988   -8.3673    3.8831 C   0  0  2  0  0  0  0  0  0  0  0  0
    0.0895   -8.1355    2.6054 O   0  0  0  0  0  0  0  0  0  0  0  0
   -0.5965   -8.2692    4.7651 C   0  0  0  0  0  0  0  0  0  0  0  0
   -1.1644   -6.8411    4.6496 C   0  0  0  0  0  0  0  0  0  0  0  0
   -0.2141   -5.7272    5.1779 C   0  0  1  0  0  0  0  0  0  0  0  0
   -0.7669   -5.0641    6.4661 C   0  0  0  0  0  0  0  0  0  0  0  0
    4.2146   -6.0340    1.8641 C   0  0  2  0  0  0  0  0  0  0  0  0
    3.8979   -2.8742   -0.8412 H   0  0  0  0  0  0  0  0  0  0  0  0
    2.8452   -3.9719    0.1871 H   0  0  0  0  0  0  0  0  0  0  0  0
    6.4561   -2.1050    1.3277 H   0  0  0  0  0  0  0  0  0  0  0  0
    6.0717   -2.3656   -0.3707 H   0  0  0  0  0  0  0  0  0  0  0  0
    6.9506   -3.5995    0.5056 H   0  0  0  0  0  0  0  0  0  0  0  0
    5.7352   -5.1515    3.8099 H   0  0  0  0  0  0  0  0  0  0  0  0
    2.7265   -5.0223    2.6593 H   0  0  0  0  0  0  0  0  0  0  0  0
    1.4366   -6.2799    2.9373 H   0  0  0  0  0  0  0  0  0  0  0  0
    2.2102   -7.4940    2.3302 H   0  0  0  0  0  0  0  0  0  0  0  0
    1.3482   -6.3110    6.4013 H   0  0  0  0  0  0  0  0  0  0  0  0
    1.7028   -4.0813    4.4669 H   0  0  0  0  0  0  0  0  0  0  0  0
    1.9486   -4.1636    6.1394 H   0  0  0  0  0  0  0  0  0  0  0  0
    3.9713   -3.7299    5.8382 H   0  0  0  0  0  0  0  0  0  0  0  0
    3.2568   -3.0289    3.3221 H   0  0  0  0  0  0  0  0  0  0  0  0
    5.7908   -2.7264    4.8460 H   0  0  0  0  0  0  0  0  0  0  0  0
    5.8308   -2.1705    3.1580 H   0  0  0  0  0  0  0  0  0  0  0  0
    4.6107   -0.8721    5.5007 H   0  0  0  0  0  0  0  0  0  0  0  0
    4.0894    0.5532    1.6016 H   0  0  0  0  0  0  0  0  0  0  0  0
    2.6614   -0.4162    1.8999 H   0  0  0  0  0  0  0  0  0  0  0  0
    4.2412   -1.1789    1.7240 H   0  0  0  0  0  0  0  0  0  0  0  0
    2.3099    1.1363    4.0217 H   0  0  0  0  0  0  0  0  0  0  0  0
    3.8390    1.9656    3.7147 H   0  0  0  0  0  0  0  0  0  0  0  0
    3.5707    1.1605    5.2752 H   0  0  0  0  0  0  0  0  0  0  0  0
    6.7478   -5.9614    6.4206 H   0  0  0  0  0  0  0  0  0  0  0  0
    5.9053   -4.4991    6.9080 H   0  0  0  0  0  0  0  0  0  0  0  0
    6.7252   -4.5868    5.4088 H   0  0  0  0  0  0  0  0  0  0  0  0
    4.9655   -6.9417    7.3049 H   0  0  0  0  0  0  0  0  0  0  0  0
    3.3036   -6.7455    6.7835 H   0  0  0  0  0  0  0  0  0  0  0  0
    4.0876   -5.4404    7.5187 H   0  0  0  0  0  0  0  0  0  0  0  0
    6.2442   -7.1759    4.4237 H   0  0  0  0  0  0  0  0  0  0  0  0
    6.2360   -7.8263    0.9013 H   0  0  0  0  0  0  0  0  0  0  0  0
    6.7992   -8.5458    2.4164 H   0  0  0  0  0  0  0  0  0  0  0  0
    7.0589   -6.8920    2.1125 H   0  0  0  0  0  0  0  0  0  0  0  0
    3.4835   -8.6344    1.3608 H   0  0  0  0  0  0  0  0  0  0  0  0
    4.3947  -10.5330    1.3179 H   0  0  0  0  0  0  0  0  0  0  0  0
    3.3183  -10.7142    2.9713 H   0  0  0  0  0  0  0  0  0  0  0  0
    0.8916   -8.5677    6.9539 H   0  0  0  0  0  0  0  0  0  0  0  0
    2.1704  -10.9078    5.3840 H   0  0  0  0  0  0  0  0  0  0  0  0
    0.6324  -10.2201    5.5886 H   0  0  0  0  0  0  0  0  0  0  0  0
   -0.1775  -10.9039    3.2408 H   0  0  0  0  0  0  0  0  0  0  0  0
    1.3356  -11.7633    3.0731 H   0  0  0  0  0  0  0  0  0  0  0  0
    0.8526  -10.5859    1.8574 H   0  0  0  0  0  0  0  0  0  0  0  0
   -0.3382   -8.9374    2.3434 H   0  0  0  0  0  0  0  0  0  0  0  0
   -1.3472   -8.9907    4.4469 H   0  0  0  0  0  0  0  0  0  0  0  0
   -0.4433   -8.4520    5.8310 H   0  0  0  0  0  0  0  0  0  0  0  0
   -1.4663   -6.6375    3.6250 H   0  0  0  0  0  0  0  0  0  0  0  0
   -2.1372   -6.7855    5.1305 H   0  0  0  0  0  0  0  0  0  0  0  0
   -0.2624   -4.9643    4.4026 H   0  0  0  0  0  0  0  0  0  0  0  0
   -0.7383   -5.7577    7.3093 H   0  0  0  0  0  0  0  0  0  0  0  0
   -1.8002   -4.7370    6.3866 H   0  0  0  0  0  0  0  0  0  0  0  0
   -0.1894   -4.1804    6.7427 H   0  0  0  0  0  0  0  0  0  0  0  0
    3.6765   -6.2245    0.9318 H   0  0  0  0  0  0  0  0  0  0  0  0
  1  2  2  0
  1 43  1  0
  1 44  1  0
  2  3  1  0
  4  2  1  6
  3 45  1  0
  3 46  1  0
  3 47  1  0
  4 13  1  0
  4 42  1  0
  4  5  1  0
  5  6  1  0
  6 22  1  0
  6  7  1  0
  6 48  1  1
  7 42  1  0
  7  8  1  0
  7 49  1  6
  9  8  1  6
  8 50  1  0
  8 51  1  0
  9 31  1  0
  9 36  1  0
  9 10  1  0
 10 40  1  0
 10 11  1  0
 10 52  1  1
 11 12  1  0
 11 53  1  0
 11 54  1  0
 12 13  1  0
 12 19  1  0
 12 55  1  1
 13 14  1  0
 13 56  1  6
 14 15  1  0
 14 57  1  0
 14 58  1  0
 15 16  2  3
 15 59  1  0
 16 17  1  0
 16 18  1  0
 17 60  1  0
 17 61  1  0
 17 62  1  0
 18 63  1  0
 18 64  1  0
 18 65  1  0
 19 20  1  0
 19 21  1  0
 19 22  1  0
 20 66  1  0
 20 67  1  0
 20 68  1  0
 21 69  1  0
 21 70  1  0
 21 71  1  0
 22 23  1  0
 22 72  1  1
 23 24  1  6
 23 25  1  0
 23 42  1  0
 24 73  1  0
 24 74  1  0
 24 75  1  0
 25 26  1  0
 25 27  1  0
 25 76  1  6
 26 77  1  0
 27 34  1  0
 27 28  1  0
 27 78  1  6
 28 29  1  0
 29 30  2  0
 29 31  1  0
 31 32  1  1
 31 33  1  0
 32 79  1  0
 33 34  1  0
 33 80  1  0
 33 81  1  0
 34 35  1  6
 34 36  1  0
 35 82  1  0
 35 83  1  0
 35 84  1  0
 36 37  1  6
 36 38  1  0
 37 85  1  0
 38 39  1  0
 38 86  1  0
 38 87  1  0
 39 40  1  0
 39 88  1  0
 39 89  1  0
 40 41  1  0
 40 90  1  6
 41 91  1  0
 41 92  1  0
 41 93  1  0
 42 94  1  6
M  END
>  <i_m_ct_stereo_status>  (128) 
1

>  <s_m_source_file>  (128) 
/var/tmp/pbs.5076255.sched01/tmp2obefojl/44ql_32cm2.sdf

>  <i_m_source_file_index>  (128) 
9

>  <i_lp_mmshare_version>  (128) 
48012

>  <i_f3d_flags>  (128) 
0

>  <s_epik_input>  (128) 
W0NAXTEyM1tDQEhdNFtDSDJdW0NAQEhdNVtDQEBIXShbQ0gyXVtDSF09QyhbQ0gzXSlbQ0gzXSlbQ0BdNihDKD1bQ0gyXSlbQ0gzXSlbQ0BASF03W0NAQEhdKFtDSDJdMSlbQ0BIXShPNilbQ0BIXShDNShbQ0gzXSlbQ0gzXSlbQ0BAXTcoW0NIM10pW0NAQEhdKFtPSF0pW0NAQEhdOFtDQEBdKFtDSDNdKShbQ0gyXVtDQF0yKEMoTzgpPU8pW09IXSlbQ0BAXTMoW09IXSlbQ0gyXVtDSDJdW0NASF00W0NIM10=

>  <s_epik_cmdline>  (128) 
J2VwaWtfcHl0aG9uJywgJy1waHQnLCAnMi4wJywgJy1waCcsICc3LjAnLCAnLXRuJywgJzgnLCAnLW1hJywgJzIwMCcsICctaW1hZScsICc8aW5maWxlLm1hZT4nLCAnLW9tYWUnLCAnPG91dGZpbGUubWFlPic=

>  <r_lp_tautomer_probability>  (128) 
1

>  <r_epik_Ionization_Penalty>  (128) 
1.10732e-07

>  <r_epik_Ionization_Penalty_Charging>  (128) 
0

>  <r_epik_Ionization_Penalty_Neutral>  (128) 
1.10732e-07

>  <r_epik_State_Penalty>  (128) 
-0

>  <r_epik_Charging_Adjusted_Penalty>  (128) 
0

>  <i_epik_Tot_Q>  (128) 
0

>  <i_epik_Tot_abs_Q>  (128) 
0

>  <s_epik_Chemistry_Notes>  (128) 
This compound has an ester and may undergo hydrolysis at high or low pH.

>  <s_lp_Force_Field>  (128) 
OPLS3e

>  <r_lp_Energy>  (128) 
650.263

>  <b_lp_Chiralities_Consistent>  (128) 
1

>  <s_lp_Variant>  (128) 
31:0-1

>  <s_i_glide_gridfile>  (128) 
pfpi4k_grid

>  <i_i_glide_lignum>  (128) 
9

>  <i_i_glide_rotatable_bonds>  (128) 
6

>  <r_i_docking_score>  (128) 
-2.36533

>  <r_i_glide_ligand_efficiency>  (128) 
-0.0563175

>  <r_i_glide_ligand_efficiency_sa>  (128) 
-0.195761

>  <r_i_glide_ligand_efficiency_ln>  (128) 
-0.499261

>  <r_i_glide_gscore>  (128) 
-2.36533

>  <r_i_glide_lipo>  (128) 
-0.529533

>  <r_i_glide_hbond>  (128) 
0

>  <r_i_glide_metal>  (128) 
-0

>  <r_i_glide_rewards>  (128) 
0

>  <r_i_glide_evdw>  (128) 
-24.0741

>  <r_i_glide_ecoul>  (128) 
-4.74067

>  <r_i_glide_erotb>  (128) 
0.0857627

>  <r_i_glide_esite>  (128) 
-0.00675554

>  <r_i_glide_emodel>  (128) 
-30.0116

>  <r_i_glide_energy>  (128) 
-28.8148

>  <r_i_glide_einternal>  (128) 
5.08694

>  <r_i_glide_intrahb_reward>  (128) 
-0

>  <i_i_glide_confnum>  (128) 
2

>  <i_i_glide_posenum>  (128) 
26

>  <r_i_glide_eff_state_penalty>  (128) 
0

>  <ligand_id>  (128) 
31

>  <original_smiles>  (128) 
C=C(C)C12OC3C4CC56C7CC(C1CC=C(C)C)C(C)(C)C3C(C)(C(O)C1OC(=O)C5(O)CC1(C)C6(O)CCC7C)C42

>  <smiles>  (128) 
[H]OC1([H])C2([H])OC(=O)C3(O[H])C([H])([H])C2(C([H])([H])[H])C2(O[H])C([H])([H])C([H])([H])C([H])(C([H])([H])[H])C4([H])C([H])([H])C5([H])C([H])(C([H])([H])C([H])=C(C([H])([H])[H])C([H])([H])[H])C6(C(=C([H])[H])C([H])([H])[H])OC7([H])C([H])(C([H])([H])C342)C6([H])C1(C([H])([H])[H])C7([H])C5(C([H])([H])[H])C([H])([H])[H]

$$$$
31:0:1
     RDKit          3D

 94101  0  0  1  0  0  0  0  0999 V2000
    3.0622   -2.2649    2.2804 C   0  0  0  0  0  0  0  0  0  0  0  0
    3.8968   -2.9511    3.0864 C   0  0  0  0  0  0  0  0  0  0  0  0
    5.3913   -2.7151    3.0023 C   0  0  0  0  0  0  0  0  0  0  0  0
    3.4152   -3.9813    4.1249 C   0  0  1  0  0  0  0  0  0  0  0  0
    4.1049   -3.9236    5.2784 O   0  0  0  0  0  0  0  0  0  0  0  0
    3.5243   -5.1900    5.5466 C   0  0  1  0  0  0  0  0  0  0  0  0
    2.9936   -5.9828    4.1868 C   0  0  2  0  0  0  0  0  0  0  0  0
    2.7907   -7.4576    3.9199 C   0  0  0  0  0  0  0  0  0  0  0  0
    1.8588   -8.4772    4.6601 C   0  0  2  0  0  0  0  0  0  0  0  0
    0.4042   -7.7863    4.5638 C   0  0  1  0  0  0  0  0  0  0  0  0
    0.2279   -6.1736    4.7040 C   0  0  0  0  0  0  0  0  0  0  0  0
    1.0395   -5.0837    5.5867 C   0  0  2  0  0  0  0  0  0  0  0  0
    1.7233   -3.8307    4.6228 C   0  0  1  0  0  0  0  0  0  0  0  0
    1.4768   -2.4079    5.2154 C   0  0  0  0  0  0  0  0  0  0  0  0
    0.0132   -2.0420    5.4820 C   0  0  0  0  0  0  0  0  0  0  0  0
   -0.7119   -1.0036    5.0141 C   0  0  0  0  0  0  0  0  0  0  0  0
   -0.1903    0.1001    4.1117 C   0  0  0  0  0  0  0  0  0  0  0  0
   -2.1786   -0.8687    5.3813 C   0  0  0  0  0  0  0  0  0  0  0  0
    1.9502   -5.7017    6.8322 C   0  0  0  0  0  0  0  0  0  0  0  0
    1.9120   -4.6028    7.9863 C   0  0  0  0  0  0  0  0  0  0  0  0
    1.0319   -6.6664    7.6037 C   0  0  0  0  0  0  0  0  0  0  0  0
    3.6237   -6.1199    6.5722 C   0  0  1  0  0  0  0  0  0  0  0  0
    4.7862   -6.3339    5.3612 C   0  0  1  0  0  0  0  0  0  0  0  0
    6.1169   -5.6476    5.9124 C   0  0  0  0  0  0  0  0  0  0  0  0
    5.3426   -7.8527    4.9309 C   0  0  1  0  0  0  0  0  0  0  0  0
    6.6874   -8.1022    5.3225 O   0  0  0  0  0  0  0  0  0  0  0  0
    4.6367   -9.2480    5.3193 C   0  0  1  0  0  0  0  0  0  0  0  0
    4.3314   -8.9910    6.6819 O   0  0  0  0  0  0  0  0  0  0  0  0
    3.0881   -9.0059    7.1198 C   0  0  0  0  0  0  0  0  0  0  0  0
    2.7774   -8.8906    8.2977 O   0  0  0  0  0  0  0  0  0  0  0  0
    2.0860   -9.4143    6.0321 C   0  0  1  0  0  0  0  0  0  0  0  0
    0.8759   -9.8613    6.6476 O   0  0  0  0  0  0  0  0  0  0  0  0
    2.7342  -10.7701    5.6368 C   0  0  0  0  0  0  0  0  0  0  0  0
    3.5501  -10.2227    4.5101 C   0  0  2  0  0  0  0  0  0  0  0  0
    4.2854  -11.3630    3.7710 C   0  0  0  0  0  0  0  0  0  0  0  0
    2.2621   -9.6750    3.7252 C   0  0  2  0  0  0  0  0  0  0  0  0
    2.7046   -9.5624    2.3602 O   0  0  0  0  0  0  0  0  0  0  0  0
    0.9378  -10.4878    3.4952 C   0  0  0  0  0  0  0  0  0  0  0  0
   -0.0631   -9.6343    2.7048 C   0  0  0  0  0  0  0  0  0  0  0  0
   -0.4588   -8.2860    3.3521 C   0  0  1  0  0  0  0  0  0  0  0  0
   -1.9611   -8.2616    3.6822 C   0  0  0  0  0  0  0  0  0  0  0  0
    4.2299   -5.4515    4.0194 C   0  0  2  0  0  0  0  0  0  0  0  0
    3.4386   -1.5381    1.5690 H   0  0  0  0  0  0  0  0  0  0  0  0
    1.9904   -2.3896    2.2984 H   0  0  0  0  0  0  0  0  0  0  0  0
    5.7866   -2.4130    3.9713 H   0  0  0  0  0  0  0  0  0  0  0  0
    5.6323   -1.9295    2.2818 H   0  0  0  0  0  0  0  0  0  0  0  0
    5.8991   -3.6248    2.6852 H   0  0  0  0  0  0  0  0  0  0  0  0
    3.2854   -4.3244    6.1816 H   0  0  0  0  0  0  0  0  0  0  0  0
    2.3917   -5.5943    3.3486 H   0  0  0  0  0  0  0  0  0  0  0  0
    2.2108   -7.3782    2.9976 H   0  0  0  0  0  0  0  0  0  0  0  0
    3.6508   -7.8221    3.3945 H   0  0  0  0  0  0  0  0  0  0  0  0
   -0.1714   -8.1862    5.3904 H   0  0  0  0  0  0  0  0  0  0  0  0
    0.1677   -5.7717    3.6933 H   0  0  0  0  0  0  0  0  0  0  0  0
   -0.7980   -6.0596    5.0456 H   0  0  0  0  0  0  0  0  0  0  0  0
    0.2119   -4.6491    6.1219 H   0  0  0  0  0  0  0  0  0  0  0  0
    1.1293   -3.8190    3.7127 H   0  0  0  0  0  0  0  0  0  0  0  0
    2.0249   -2.2619    6.1438 H   0  0  0  0  0  0  0  0  0  0  0  0
    1.9311   -1.6857    4.5468 H   0  0  0  0  0  0  0  0  0  0  0  0
   -0.5288   -2.6790    6.1592 H   0  0  0  0  0  0  0  0  0  0  0  0
   -0.4112    1.0649    4.5695 H   0  0  0  0  0  0  0  0  0  0  0  0
   -0.6898    0.0626    3.1425 H   0  0  0  0  0  0  0  0  0  0  0  0
    0.8839    0.0749    3.9398 H   0  0  0  0  0  0  0  0  0  0  0  0
   -2.7905   -0.8563    4.4809 H   0  0  0  0  0  0  0  0  0  0  0  0
   -2.3490    0.0642    5.9154 H   0  0  0  0  0  0  0  0  0  0  0  0
   -2.5250   -1.6967    5.9994 H   0  0  0  0  0  0  0  0  0  0  0  0
    2.4380   -4.9437    8.8752 H   0  0  0  0  0  0  0  0  0  0  0  0
    0.8990   -4.3445    8.2967 H   0  0  0  0  0  0  0  0  0  0  0  0
    2.3469   -3.6339    7.7672 H   0  0  0  0  0  0  0  0  0  0  0  0
    1.4204   -6.9290    8.5882 H   0  0  0  0  0  0  0  0  0  0  0  0
    0.8088   -7.5601    7.0754 H   0  0  0  0  0  0  0  0  0  0  0  0
    0.0409   -6.2336    7.7756 H   0  0  0  0  0  0  0  0  0  0  0  0
    4.1618   -5.8151    7.4691 H   0  0  0  0  0  0  0  0  0  0  0  0
    6.8882   -5.5860    5.1426 H   0  0  0  0  0  0  0  0  0  0  0  0
    6.5302   -6.1873    6.7677 H   0  0  0  0  0  0  0  0  0  0  0  0
    6.0043   -4.6363    6.2967 H   0  0  0  0  0  0  0  0  0  0  0  0
    5.5577   -7.8351    3.8605 H   0  0  0  0  0  0  0  0  0  0  0  0
    6.9777   -8.8982    4.9147 H   0  0  0  0  0  0  0  0  0  0  0  0
    5.4662   -9.9542    5.4208 H   0  0  0  0  0  0  0  0  0  0  0  0
    1.0395  -10.7138    7.0605 H   0  0  0  0  0  0  0  0  0  0  0  0
    3.3480  -11.2621    6.4022 H   0  0  0  0  0  0  0  0  0  0  0  0
    2.0557  -11.5737    5.3513 H   0  0  0  0  0  0  0  0  0  0  0  0
    3.5983  -12.0815    3.3195 H   0  0  0  0  0  0  0  0  0  0  0  0
    4.9244  -11.9235    4.4546 H   0  0  0  0  0  0  0  0  0  0  0  0
    4.9268  -10.9725    2.9800 H   0  0  0  0  0  0  0  0  0  0  0  0
    2.8894  -10.4256    2.0240 H   0  0  0  0  0  0  0  0  0  0  0  0
    1.1270  -11.4119    2.9466 H   0  0  0  0  0  0  0  0  0  0  0  0
    0.3999  -10.7763    4.4005 H   0  0  0  0  0  0  0  0  0  0  0  0
    0.3613   -9.4117    1.7378 H   0  0  0  0  0  0  0  0  0  0  0  0
   -0.9449  -10.2418    2.5114 H   0  0  0  0  0  0  0  0  0  0  0  0
   -0.3349   -7.5690    2.5433 H   0  0  0  0  0  0  0  0  0  0  0  0
   -2.1666   -8.9438    4.5004 H   0  0  0  0  0  0  0  0  0  0  0  0
   -2.5666   -8.5713    2.8321 H   0  0  0  0  0  0  0  0  0  0  0  0
   -2.3133   -7.2878    4.0158 H   0  0  0  0  0  0  0  0  0  0  0  0
    4.6841   -5.6849    3.0546 H   0  0  0  0  0  0  0  0  0  0  0  0
  1  2  2  0
  1 43  1  0
  1 44  1  0
  2  3  1  0
  4  2  1  6
  3 45  1  0
  3 46  1  0
  3 47  1  0
  4 13  1  0
  4 42  1  0
  4  5  1  0
  5  6  1  0
  6 22  1  0
  6  7  1  0
  6 48  1  1
  7 42  1  0
  7  8  1  0
  7 49  1  6
  9  8  1  1
  8 50  1  0
  8 51  1  0
  9 31  1  0
  9 36  1  0
  9 10  1  0
 10 40  1  0
 10 11  1  0
 10 52  1  1
 11 12  1  0
 11 53  1  0
 11 54  1  0
 12 13  1  0
 12 19  1  0
 12 55  1  1
 13 14  1  0
 13 56  1  6
 14 15  1  0
 14 57  1  0
 14 58  1  0
 15 16  2  3
 15 59  1  0
 16 17  1  0
 16 18  1  0
 17 60  1  0
 17 61  1  0
 17 62  1  0
 18 63  1  0
 18 64  1  0
 18 65  1  0
 19 20  1  0
 19 21  1  0
 19 22  1  0
 20 66  1  0
 20 67  1  0
 20 68  1  0
 21 69  1  0
 21 70  1  0
 21 71  1  0
 22 23  1  0
 22 72  1  1
 23 24  1  1
 23 25  1  0
 23 42  1  0
 24 73  1  0
 24 74  1  0
 24 75  1  0
 25 26  1  0
 25 27  1  0
 25 76  1  6
 26 77  1  0
 27 34  1  0
 27 28  1  0
 27 78  1  1
 28 29  1  0
 29 30  2  0
 29 31  1  0
 31 32  1  1
 31 33  1  0
 32 79  1  0
 33 34  1  0
 33 80  1  0
 33 81  1  0
 34 35  1  6
 34 36  1  0
 35 82  1  0
 35 83  1  0
 35 84  1  0
 36 37  1  6
 36 38  1  0
 37 85  1  0
 38 39  1  0
 38 86  1  0
 38 87  1  0
 39 40  1  0
 39 88  1  0
 39 89  1  0
 40 41  1  0
 40 90  1  6
 41 91  1  0
 41 92  1  0
 41 93  1  0
 42 94  1  6
M  END
>  <i_m_ct_stereo_status>  (129) 
1

>  <s_m_source_file>  (129) 
/var/tmp/pbs.5076255.sched01/tmp2obefojl/44ql_32cm2.sdf

>  <i_m_source_file_index>  (129) 
9

>  <i_lp_mmshare_version>  (129) 
48012

>  <i_f3d_flags>  (129) 
0

>  <s_epik_input>  (129) 
W0NAXTEyM1tDQEhdNFtDSDJdW0NAQEhdNVtDQEBIXShbQ0gyXVtDSF09QyhbQ0gzXSlbQ0gzXSlbQ0BdNihDKD1bQ0gyXSlbQ0gzXSlbQ0BASF03W0NAQEhdKFtDSDJdMSlbQ0BIXShPNilbQ0BIXShDNShbQ0gzXSlbQ0gzXSlbQ0BAXTcoW0NIM10pW0NAQEhdKFtPSF0pW0NAQEhdOFtDQEBdKFtDSDNdKShbQ0gyXVtDQF0yKEMoTzgpPU8pW09IXSlbQ0BAXTMoW09IXSlbQ0gyXVtDSDJdW0NASF00W0NIM10=

>  <s_epik_cmdline>  (129) 
J2VwaWtfcHl0aG9uJywgJy1waHQnLCAnMi4wJywgJy1waCcsICc3LjAnLCAnLXRuJywgJzgnLCAnLW1hJywgJzIwMCcsICctaW1hZScsICc8aW5maWxlLm1hZT4nLCAnLW9tYWUnLCAnPG91dGZpbGUubWFlPic=

>  <r_lp_tautomer_probability>  (129) 
1

>  <r_epik_Ionization_Penalty>  (129) 
1.10732e-07

>  <r_epik_Ionization_Penalty_Charging>  (129) 
0

>  <r_epik_Ionization_Penalty_Neutral>  (129) 
1.10732e-07

>  <r_epik_State_Penalty>  (129) 
-0

>  <r_epik_Charging_Adjusted_Penalty>  (129) 
0

>  <i_epik_Tot_Q>  (129) 
0

>  <i_epik_Tot_abs_Q>  (129) 
0

>  <s_epik_Chemistry_Notes>  (129) 
This compound has an ester and may undergo hydrolysis at high or low pH.

>  <s_lp_Force_Field>  (129) 
OPLS3e

>  <r_lp_Energy>  (129) 
650.263

>  <b_lp_Chiralities_Consistent>  (129) 
1

>  <s_lp_Variant>  (129) 
31:0-1

>  <s_i_glide_gridfile>  (129) 
pfpi4k_grid

>  <i_i_glide_lignum>  (129) 
9

>  <i_i_glide_rotatable_bonds>  (129) 
6

>  <r_i_docking_score>  (129) 
-2.1038

>  <r_i_glide_ligand_efficiency>  (129) 
-0.0500906

>  <r_i_glide_ligand_efficiency_sa>  (129) 
-0.174116

>  <r_i_glide_ligand_efficiency_ln>  (129) 
-0.444059

>  <r_i_glide_gscore>  (129) 
-2.1038

>  <r_i_glide_lipo>  (129) 
-0.131292

>  <r_i_glide_hbond>  (129) 
0

>  <r_i_glide_metal>  (129) 
-0

>  <r_i_glide_rewards>  (129) 
0

>  <r_i_glide_evdw>  (129) 
-24.286

>  <r_i_glide_ecoul>  (129) 
-5.45019

>  <r_i_glide_erotb>  (129) 
0.0857627

>  <r_i_glide_esite>  (129) 
-0.0264446

>  <r_i_glide_emodel>  (129) 
-32.3339

>  <r_i_glide_energy>  (129) 
-29.7362

>  <r_i_glide_einternal>  (129) 
2.86859

>  <r_i_glide_intrahb_reward>  (129) 
-0

>  <i_i_glide_confnum>  (129) 
2

>  <i_i_glide_posenum>  (129) 
39

>  <r_i_glide_eff_state_penalty>  (129) 
0

>  <ligand_id>  (129) 
31

>  <original_smiles>  (129) 
C=C(C)C12OC3C4CC56C7CC(C1CC=C(C)C)C(C)(C)C3C(C)(C(O)C1OC(=O)C5(O)CC1(C)C6(O)CCC7C)C42

>  <smiles>  (129) 
[H]OC1([H])C2([H])OC(=O)C3(O[H])C([H])([H])C2(C([H])([H])[H])C2(O[H])C([H])([H])C([H])([H])C([H])(C([H])([H])[H])C4([H])C([H])([H])C5([H])C([H])(C([H])([H])C([H])=C(C([H])([H])[H])C([H])([H])[H])C6(C(=C([H])[H])C([H])([H])[H])OC7([H])C([H])(C([H])([H])C342)C6([H])C1(C([H])([H])[H])C7([H])C5(C([H])([H])[H])C([H])([H])[H]

$$$$
31:0:2
     RDKit          3D

 94101  0  0  1  0  0  0  0  0999 V2000
    4.7132   -3.5043    1.2687 C   0  0  0  0  0  0  0  0  0  0  0  0
    4.5280   -3.0100    2.5050 C   0  0  0  0  0  0  0  0  0  0  0  0
    5.0268   -1.6131    2.8656 C   0  0  0  0  0  0  0  0  0  0  0  0
    3.8575   -3.8528    3.5954 C   0  0  1  0  0  0  0  0  0  0  0  0
    4.3733   -3.6220    4.8166 O   0  0  0  0  0  0  0  0  0  0  0  0
    3.6866   -4.7986    5.1980 C   0  0  1  0  0  0  0  0  0  0  0  0
    3.3245   -5.8056    3.9304 C   0  0  2  0  0  0  0  0  0  0  0  0
    3.0834   -7.3039    3.8937 C   0  0  0  0  0  0  0  0  0  0  0  0
    1.9992   -8.1476    4.6426 C   0  0  2  0  0  0  0  0  0  0  0  0
    0.6140   -7.4532    4.2054 C   0  0  1  0  0  0  0  0  0  0  0  0
    0.5019   -5.8353    4.0350 C   0  0  0  0  0  0  0  0  0  0  0  0
    1.2301   -4.6145    4.8219 C   0  0  2  0  0  0  0  0  0  0  0  0
    2.1280   -3.5857    3.7761 C   0  0  1  0  0  0  0  0  0  0  0  0
    1.8318   -2.0866    4.0776 C   0  0  0  0  0  0  0  0  0  0  0  0
    0.3715   -1.6949    4.1594 C   0  0  0  0  0  0  0  0  0  0  0  0
   -0.2660   -1.0072    5.1343 C   0  0  0  0  0  0  0  0  0  0  0  0
    0.3824   -0.4807    6.4026 C   0  0  0  0  0  0  0  0  0  0  0  0
   -1.7426   -0.6868    5.0188 C   0  0  0  0  0  0  0  0  0  0  0  0
    1.9097   -5.0322    6.2873 C   0  0  0  0  0  0  0  0  0  0  0  0
    1.7644   -3.7535    7.2241 C   0  0  0  0  0  0  0  0  0  0  0  0
    0.8369   -5.8191    7.0696 C   0  0  0  0  0  0  0  0  0  0  0  0
    3.5819   -5.5361    6.3715 C   0  0  1  0  0  0  0  0  0  0  0  0
    4.9043   -5.9893    5.4118 C   0  0  1  0  0  0  0  0  0  0  0  0
    6.1698   -5.2550    6.0412 C   0  0  0  0  0  0  0  0  0  0  0  0
    5.4380   -7.5781    5.3453 C   0  0  1  0  0  0  0  0  0  0  0  0
    6.6936   -7.7924    5.9813 O   0  0  0  0  0  0  0  0  0  0  0  0
    4.6073   -8.8579    5.8544 C   0  0  1  0  0  0  0  0  0  0  0  0
    4.1146   -8.3499    7.0820 O   0  0  0  0  0  0  0  0  0  0  0  0
    2.8240   -8.2505    7.3166 C   0  0  0  0  0  0  0  0  0  0  0  0
    2.3534   -7.9162    8.4072 O   0  0  0  0  0  0  0  0  0  0  0  0
    1.9649   -8.8325    6.1809 C   0  0  1  0  0  0  0  0  0  0  0  0
    0.6534   -9.1090    6.6765 O   0  0  0  0  0  0  0  0  0  0  0  0
    2.5975  -10.2466    6.1304 C   0  0  0  0  0  0  0  0  0  0  0  0
    3.6005   -9.9362    5.0648 C   0  0  2  0  0  0  0  0  0  0  0  0
    4.3806  -11.2099    4.6602 C   0  0  0  0  0  0  0  0  0  0  0  0
    2.4788   -9.5023    4.0039 C   0  0  2  0  0  0  0  0  0  0  0  0
    3.1158   -9.6472    2.7186 O   0  0  0  0  0  0  0  0  0  0  0  0
    1.1732  -10.3173    3.7054 C   0  0  0  0  0  0  0  0  0  0  0  0
    0.3397   -9.6000    2.6400 C   0  0  0  0  0  0  0  0  0  0  0  0
   -0.0861   -8.1474    2.9792 C   0  0  1  0  0  0  0  0  0  0  0  0
   -1.6236   -8.0740    3.0919 C   0  0  0  0  0  0  0  0  0  0  0  0
    4.6044   -5.3448    3.8678 C   0  0  2  0  0  0  0  0  0  0  0  0
    5.1926   -2.9117    0.5020 H   0  0  0  0  0  0  0  0  0  0  0  0
    4.4003   -4.5014    0.9941 H   0  0  0  0  0  0  0  0  0  0  0  0
    4.2640   -0.9504    3.2578 H   0  0  0  0  0  0  0  0  0  0  0  0
    5.4442   -1.1180    1.9890 H   0  0  0  0  0  0  0  0  0  0  0  0
    5.8124   -1.6792    3.6149 H   0  0  0  0  0  0  0  0  0  0  0  0
    3.4079   -3.8267    5.6340 H   0  0  0  0  0  0  0  0  0  0  0  0
    2.8759   -5.5585    2.9555 H   0  0  0  0  0  0  0  0  0  0  0  0
    2.6495   -7.3800    2.8898 H   0  0  0  0  0  0  0  0  0  0  0  0
    3.9927   -7.7707    3.5800 H   0  0  0  0  0  0  0  0  0  0  0  0
   -0.0975   -7.6747    4.9892 H   0  0  0  0  0  0  0  0  0  0  0  0
    0.6222   -5.6192    2.9740 H   0  0  0  0  0  0  0  0  0  0  0  0
   -0.5576   -5.6407    4.2010 H   0  0  0  0  0  0  0  0  0  0  0  0
    0.3634   -4.0301    5.1190 H   0  0  0  0  0  0  0  0  0  0  0  0
    1.6943   -3.7031    2.7750 H   0  0  0  0  0  0  0  0  0  0  0  0
    2.4182   -1.7485    4.9246 H   0  0  0  0  0  0  0  0  0  0  0  0
    2.1339   -1.4998    3.2204 H   0  0  0  0  0  0  0  0  0  0  0  0
   -0.1871   -2.0020    3.2971 H   0  0  0  0  0  0  0  0  0  0  0  0
   -0.1599   -0.8464    7.2768 H   0  0  0  0  0  0  0  0  0  0  0  0
    0.3458    0.6091    6.4127 H   0  0  0  0  0  0  0  0  0  0  0  0
    1.4254   -0.7636    6.5231 H   0  0  0  0  0  0  0  0  0  0  0  0
   -1.8992    0.3923    5.0582 H   0  0  0  0  0  0  0  0  0  0  0  0
   -2.2929   -1.1535    5.8349 H   0  0  0  0  0  0  0  0  0  0  0  0
   -2.1602   -1.0494    4.0803 H   0  0  0  0  0  0  0  0  0  0  0  0
    2.1325   -3.9468    8.2313 H   0  0  0  0  0  0  0  0  0  0  0  0
    0.7338   -3.4121    7.3226 H   0  0  0  0  0  0  0  0  0  0  0  0
    2.2852   -2.8569    6.9093 H   0  0  0  0  0  0  0  0  0  0  0  0
    1.0635   -5.9167    8.1310 H   0  0  0  0  0  0  0  0  0  0  0  0
    0.6510   -6.7828    6.6742 H   0  0  0  0  0  0  0  0  0  0  0  0
   -0.1422   -5.3424    7.0054 H   0  0  0  0  0  0  0  0  0  0  0  0
    3.9943   -5.0882    7.2732 H   0  0  0  0  0  0  0  0  0  0  0  0
    7.0466   -5.3533    5.3982 H   0  0  0  0  0  0  0  0  0  0  0  0
    6.4166   -5.6441    7.0314 H   0  0  0  0  0  0  0  0  0  0  0  0
    6.0535   -4.1888    6.2229 H   0  0  0  0  0  0  0  0  0  0  0  0
    5.8076   -7.7598    4.3356 H   0  0  0  0  0  0  0  0  0  0  0  0
    6.9931   -8.6564    5.7802 H   0  0  0  0  0  0  0  0  0  0  0  0
    5.3721   -9.5558    6.2023 H   0  0  0  0  0  0  0  0  0  0  0  0
    0.2385   -9.7512    6.1347 H   0  0  0  0  0  0  0  0  0  0  0  0
    3.0620  -10.6137    7.0546 H   0  0  0  0  0  0  0  0  0  0  0  0
    1.9280  -11.0613    5.8785 H   0  0  0  0  0  0  0  0  0  0  0  0
    3.7268  -11.9748    4.2400 H   0  0  0  0  0  0  0  0  0  0  0  0
    4.8776  -11.6553    5.5224 H   0  0  0  0  0  0  0  0  0  0  0  0
    5.1496  -10.9830    3.9232 H   0  0  0  0  0  0  0  0  0  0  0  0
    3.2440  -10.5659    2.5392 H   0  0  0  0  0  0  0  0  0  0  0  0
    1.3900  -11.3310    3.3686 H   0  0  0  0  0  0  0  0  0  0  0  0
    0.4855  -10.4325    4.5403 H   0  0  0  0  0  0  0  0  0  0  0  0
    0.9024   -9.5882    1.7128 H   0  0  0  0  0  0  0  0  0  0  0  0
   -0.5359  -10.2121    2.4211 H   0  0  0  0  0  0  0  0  0  0  0  0
    0.1830   -7.5792    2.0857 H   0  0  0  0  0  0  0  0  0  0  0  0
   -1.9764   -8.6577    3.9407 H   0  0  0  0  0  0  0  0  0  0  0  0
   -2.1075   -8.4687    2.2019 H   0  0  0  0  0  0  0  0  0  0  0  0
   -1.9789   -7.0561    3.2220 H   0  0  0  0  0  0  0  0  0  0  0  0
    5.1849   -5.7601    3.0481 H   0  0  0  0  0  0  0  0  0  0  0  0
  1  2  2  0
  1 43  1  0
  1 44  1  0
  2  3  1  0
  4  2  1  6
  3 45  1  0
  3 46  1  0
  3 47  1  0
  4 13  1  0
  4 42  1  0
  4  5  1  0
  5  6  1  0
  6 22  1  0
  6  7  1  0
  6 48  1  1
  7 42  1  0
  7  8  1  0
  7 49  1  6
  9  8  1  1
  8 50  1  0
  8 51  1  0
  9 31  1  0
  9 36  1  0
  9 10  1  0
 10 40  1  0
 10 11  1  0
 10 52  1  1
 11 12  1  0
 11 53  1  0
 11 54  1  0
 12 13  1  0
 12 19  1  0
 12 55  1  1
 13 14  1  0
 13 56  1  6
 14 15  1  0
 14 57  1  0
 14 58  1  0
 15 16  2  3
 15 59  1  0
 16 17  1  0
 16 18  1  0
 17 60  1  0
 17 61  1  0
 17 62  1  0
 18 63  1  0
 18 64  1  0
 18 65  1  0
 19 20  1  0
 19 21  1  0
 19 22  1  0
 20 66  1  0
 20 67  1  0
 20 68  1  0
 21 69  1  0
 21 70  1  0
 21 71  1  0
 22 23  1  0
 22 72  1  1
 23 24  1  1
 23 25  1  0
 23 42  1  0
 24 73  1  0
 24 74  1  0
 24 75  1  0
 25 26  1  0
 25 27  1  0
 25 76  1  6
 26 77  1  0
 27 34  1  0
 27 28  1  0
 27 78  1  1
 28 29  1  0
 29 30  2  0
 29 31  1  0
 31 32  1  1
 31 33  1  0
 32 79  1  0
 33 34  1  0
 33 80  1  0
 33 81  1  0
 34 35  1  6
 34 36  1  0
 35 82  1  0
 35 83  1  0
 35 84  1  0
 36 37  1  6
 36 38  1  0
 37 85  1  0
 38 39  1  0
 38 86  1  0
 38 87  1  0
 39 40  1  0
 39 88  1  0
 39 89  1  0
 40 41  1  0
 40 90  1  6
 41 91  1  0
 41 92  1  0
 41 93  1  0
 42 94  1  6
M  END
>  <i_m_ct_stereo_status>  (130) 
1

>  <s_m_source_file>  (130) 
/var/tmp/pbs.5076255.sched01/tmp2obefojl/44ql_32cm2.sdf

>  <i_m_source_file_index>  (130) 
9

>  <i_lp_mmshare_version>  (130) 
48012

>  <i_f3d_flags>  (130) 
0

>  <s_epik_input>  (130) 
W0NAXTEyM1tDQEhdNFtDSDJdW0NAQEhdNVtDQEBIXShbQ0gyXVtDSF09QyhbQ0gzXSlbQ0gzXSlbQ0BdNihDKD1bQ0gyXSlbQ0gzXSlbQ0BASF03W0NAQEhdKFtDSDJdMSlbQ0BIXShPNilbQ0BIXShDNShbQ0gzXSlbQ0gzXSlbQ0BAXTcoW0NIM10pW0NAQEhdKFtPSF0pW0NAQEhdOFtDQEBdKFtDSDNdKShbQ0gyXVtDQF0yKEMoTzgpPU8pW09IXSlbQ0BAXTMoW09IXSlbQ0gyXVtDSDJdW0NASF00W0NIM10=

>  <s_epik_cmdline>  (130) 
J2VwaWtfcHl0aG9uJywgJy1waHQnLCAnMi4wJywgJy1waCcsICc3LjAnLCAnLXRuJywgJzgnLCAnLW1hJywgJzIwMCcsICctaW1hZScsICc8aW5maWxlLm1hZT4nLCAnLW9tYWUnLCAnPG91dGZpbGUubWFlPic=

>  <r_lp_tautomer_probability>  (130) 
1

>  <r_epik_Ionization_Penalty>  (130) 
1.10732e-07

>  <r_epik_Ionization_Penalty_Charging>  (130) 
0

>  <r_epik_Ionization_Penalty_Neutral>  (130) 
1.10732e-07

>  <r_epik_State_Penalty>  (130) 
-0

>  <r_epik_Charging_Adjusted_Penalty>  (130) 
0

>  <i_epik_Tot_Q>  (130) 
0

>  <i_epik_Tot_abs_Q>  (130) 
0

>  <s_epik_Chemistry_Notes>  (130) 
This compound has an ester and may undergo hydrolysis at high or low pH.

>  <s_lp_Force_Field>  (130) 
OPLS3e

>  <r_lp_Energy>  (130) 
650.263

>  <b_lp_Chiralities_Consistent>  (130) 
1

>  <s_lp_Variant>  (130) 
31:0-1

>  <s_i_glide_gridfile>  (130) 
pfpi4k_grid

>  <i_i_glide_lignum>  (130) 
9

>  <i_i_glide_rotatable_bonds>  (130) 
6

>  <r_i_docking_score>  (130) 
-1.82256

>  <r_i_glide_ligand_efficiency>  (130) 
-0.0433943

>  <r_i_glide_ligand_efficiency_sa>  (130) 
-0.15084

>  <r_i_glide_ligand_efficiency_ln>  (130) 
-0.384696

>  <r_i_glide_gscore>  (130) 
-1.82256

>  <r_i_glide_lipo>  (130) 
-0.191495

>  <r_i_glide_hbond>  (130) 
0

>  <r_i_glide_metal>  (130) 
-0

>  <r_i_glide_rewards>  (130) 
0

>  <r_i_glide_evdw>  (130) 
-23.6512

>  <r_i_glide_ecoul>  (130) 
-3.5047

>  <r_i_glide_erotb>  (130) 
0.0857627

>  <r_i_glide_esite>  (130) 
-0.00856579

>  <r_i_glide_emodel>  (130) 
-29.5436

>  <r_i_glide_energy>  (130) 
-27.1559

>  <r_i_glide_einternal>  (130) 
1.94725

>  <r_i_glide_intrahb_reward>  (130) 
-0

>  <i_i_glide_confnum>  (130) 
2

>  <i_i_glide_posenum>  (130) 
1

>  <r_i_glide_eff_state_penalty>  (130) 
0

>  <ligand_id>  (130) 
31

>  <original_smiles>  (130) 
C=C(C)C12OC3C4CC56C7CC(C1CC=C(C)C)C(C)(C)C3C(C)(C(O)C1OC(=O)C5(O)CC1(C)C6(O)CCC7C)C42

>  <smiles>  (130) 
[H]OC1([H])C2([H])OC(=O)C3(O[H])C([H])([H])C2(C([H])([H])[H])C2(O[H])C([H])([H])C([H])([H])C([H])(C([H])([H])[H])C4([H])C([H])([H])C5([H])C([H])(C([H])([H])C([H])=C(C([H])([H])[H])C([H])([H])[H])C6(C(=C([H])[H])C([H])([H])[H])OC7([H])C([H])(C([H])([H])C342)C6([H])C1(C([H])([H])[H])C7([H])C5(C([H])([H])[H])C([H])([H])[H]

$$$$
32:0:0
     RDKit          3D

 75 80  0  0  1  0  0  0  0  0999 V2000
    0.4027   -9.8949    2.9158 C   0  0  0  0  0  0  0  0  0  0  0  0
    1.8221   -9.5031    2.4515 C   0  0  2  0  0  0  0  0  0  0  0  0
    2.7953   -9.3384    3.6281 C   0  0  0  0  0  0  0  0  0  0  0  0
    3.1494   -7.8462    3.7125 C   0  0  0  0  0  0  0  0  0  0  0  0
    2.1713   -7.1038    2.7739 C   0  0  2  0  0  0  0  0  0  0  0  0
    1.8869   -8.1755    1.6902 C   0  0  0  0  0  0  0  0  0  0  0  0
    2.8186   -5.7904    2.2960 C   0  0  0  0  0  0  0  0  0  0  0  0
    3.8536   -5.7378    1.4122 C   0  0  0  0  0  0  0  0  0  0  0  0
    4.5777   -4.5196    0.9137 C   0  0  0  0  0  0  0  0  0  0  0  0
    3.8426   -3.1693    0.9974 C   0  0  1  0  0  0  0  0  0  0  0  0
    2.6108   -3.2570    0.2872 O   0  0  0  0  0  0  0  0  0  0  0  0
    3.7135   -2.5124    2.4181 C   0  0  2  0  0  0  0  0  0  0  0  0
    3.1486   -3.4891    3.5500 C   0  0  1  0  0  0  0  0  0  0  0  0
    4.3085   -4.1570    4.3537 C   0  0  0  0  0  0  0  0  0  0  0  0
    2.3233   -2.9047    4.5829 O   0  0  0  0  0  0  0  0  0  0  0  0
    2.2598   -1.5327    4.9653 C   0  0  1  0  0  0  0  0  0  0  0  0
    1.7563   -1.5968    6.4202 C   0  0  0  0  0  0  0  0  0  0  0  0
    3.6366   -0.8625    4.9039 C   0  0  0  0  0  0  0  0  0  0  0  0
    3.8094   -0.2171    3.5337 C   0  0  2  0  0  0  0  0  0  0  0  0
    3.3437    1.1288    3.5564 O   0  0  0  0  0  0  0  0  0  0  0  0
    2.1135    1.5356    4.1089 C   0  0  0  0  0  0  0  0  0  0  0  0
    2.3929    2.2505    5.4400 C   0  0  0  0  0  0  0  0  0  0  0  0
    1.5189    2.5512    3.1215 C   0  0  0  0  0  0  0  0  0  0  0  0
    1.1306    0.5597    4.3773 O   0  0  0  0  0  0  0  0  0  0  0  0
    1.2392   -0.8242    4.0357 C   0  0  1  0  0  0  0  0  0  0  0  0
    1.6091   -1.0553    2.5544 C   0  0  1  0  0  0  0  0  0  0  0  0
    0.8379   -0.2420    1.6957 O   0  0  0  0  0  0  0  0  0  0  0  0
    3.1575   -1.0311    2.3715 C   0  0  2  0  0  0  0  0  0  0  0  0
    3.5411   -0.2701    1.0690 C   0  0  0  0  0  0  0  0  0  0  0  0
    2.1797   -4.6055    3.0130 C   0  0  2  0  0  0  0  0  0  0  0  0
    1.3075   -5.2675    4.0925 C   0  0  0  0  0  0  0  0  0  0  0  0
    0.9185   -6.6146    3.5314 C   0  0  1  0  0  0  0  0  0  0  0  0
   -0.1767   -6.4436    2.6625 O   0  0  0  0  0  0  0  0  0  0  0  0
   -0.0712   -9.1415    3.5612 H   0  0  0  0  0  0  0  0  0  0  0  0
    0.3979  -10.8287    3.4808 H   0  0  0  0  0  0  0  0  0  0  0  0
   -0.2700  -10.0479    2.0750 H   0  0  0  0  0  0  0  0  0  0  0  0
    2.2104  -10.2778    1.8007 H   0  0  0  0  0  0  0  0  0  0  0  0
    2.3718   -9.6847    4.5699 H   0  0  0  0  0  0  0  0  0  0  0  0
    3.7072   -9.9217    3.4716 H   0  0  0  0  0  0  0  0  0  0  0  0
    3.1123   -7.4897    4.7412 H   0  0  0  0  0  0  0  0  0  0  0  0
    4.1860   -7.7282    3.3915 H   0  0  0  0  0  0  0  0  0  0  0  0
    2.7091   -8.2436    0.9810 H   0  0  0  0  0  0  0  0  0  0  0  0
    1.0068   -8.0092    1.0635 H   0  0  0  0  0  0  0  0  0  0  0  0
    4.2385   -6.6627    1.0366 H   0  0  0  0  0  0  0  0  0  0  0  0
    5.5491   -4.4567    1.4125 H   0  0  0  0  0  0  0  0  0  0  0  0
    4.7990   -4.7156   -0.1383 H   0  0  0  0  0  0  0  0  0  0  0  0
    4.4739   -2.5212    0.3905 H   0  0  0  0  0  0  0  0  0  0  0  0
    2.3293   -2.3778    0.0426 H   0  0  0  0  0  0  0  0  0  0  0  0
    4.7655   -2.3759    2.6832 H   0  0  0  0  0  0  0  0  0  0  0  0
    4.8586   -4.8946    3.7724 H   0  0  0  0  0  0  0  0  0  0  0  0
    3.9348   -4.6685    5.2411 H   0  0  0  0  0  0  0  0  0  0  0  0
    5.0634   -3.4590    4.7060 H   0  0  0  0  0  0  0  0  0  0  0  0
    1.6372   -0.6021    6.8561 H   0  0  0  0  0  0  0  0  0  0  0  0
    2.4553   -2.1536    7.0502 H   0  0  0  0  0  0  0  0  0  0  0  0
    0.7913   -2.1022    6.4782 H   0  0  0  0  0  0  0  0  0  0  0  0
    3.7685   -0.1160    5.6805 H   0  0  0  0  0  0  0  0  0  0  0  0
    4.4360   -1.5599    5.1090 H   0  0  0  0  0  0  0  0  0  0  0  0
    4.8752   -0.1441    3.3395 H   0  0  0  0  0  0  0  0  0  0  0  0
    2.6055    1.5459    6.2386 H   0  0  0  0  0  0  0  0  0  0  0  0
    1.5128    2.8231    5.7455 H   0  0  0  0  0  0  0  0  0  0  0  0
    3.2377    2.9373    5.3375 H   0  0  0  0  0  0  0  0  0  0  0  0
    1.4099    2.1282    2.1264 H   0  0  0  0  0  0  0  0  0  0  0  0
    2.1762    3.4214    3.0301 H   0  0  0  0  0  0  0  0  0  0  0  0
    0.5370    2.8916    3.4603 H   0  0  0  0  0  0  0  0  0  0  0  0
    0.2585   -1.2592    4.2081 H   0  0  0  0  0  0  0  0  0  0  0  0
    1.2643   -2.0555    2.3217 H   0  0  0  0  0  0  0  0  0  0  0  0
    0.9347   -0.5122    0.7493 H   0  0  0  0  0  0  0  0  0  0  0  0
    3.2324    0.7677    1.1146 H   0  0  0  0  0  0  0  0  0  0  0  0
    3.0639   -0.6832    0.1805 H   0  0  0  0  0  0  0  0  0  0  0  0
    4.6198   -0.2706    0.9093 H   0  0  0  0  0  0  0  0  0  0  0  0
    1.4750   -4.1868    2.3041 H   0  0  0  0  0  0  0  0  0  0  0  0
    1.8863   -5.4518    4.9970 H   0  0  0  0  0  0  0  0  0  0  0  0
    0.4421   -4.6614    4.3855 H   0  0  0  0  0  0  0  0  0  0  0  0
    0.6315   -7.2635    4.3661 H   0  0  0  0  0  0  0  0  0  0  0  0
   -0.3546   -7.2905    2.2649 H   0  0  0  0  0  0  0  0  0  0  0  0
  1  2  1  0
  1 34  1  0
  1 35  1  0
  1 36  1  0
  2  6  1  0
  2  3  1  0
  2 37  1  6
  3  4  1  0
  3 38  1  0
  3 39  1  0
  5  4  1  1
  4 40  1  0
  4 41  1  0
  5 32  1  0
  5  6  1  0
  5  7  1  0
  6 42  1  0
  6 43  1  0
  7 30  1  0
  7  8  2  0
  8  9  1  0
  8 44  1  0
  9 10  1  0
  9 45  1  0
  9 46  1  0
 10 11  1  0
 10 12  1  0
 10 47  1  6
 11 48  1  0
 12 28  1  0
 12 13  1  0
 12 49  1  1
 13 14  1  1
 13 15  1  0
 13 30  1  0
 14 50  1  0
 14 51  1  0
 14 52  1  0
 15 16  1  0
 16 25  1  0
 16 17  1  1
 16 18  1  0
 17 53  1  0
 17 54  1  0
 17 55  1  0
 18 19  1  0
 18 56  1  0
 18 57  1  0
 19 28  1  0
 19 20  1  0
 19 58  1  6
 20 21  1  0
 21 22  1  0
 21 23  1  0
 21 24  1  0
 22 59  1  0
 22 60  1  0
 22 61  1  0
 23 62  1  0
 23 63  1  0
 23 64  1  0
 24 25  1  0
 25 26  1  0
 25 65  1  6
 26 27  1  0
 26 28  1  0
 26 66  1  6
 27 67  1  0
 28 29  1  6
 29 68  1  0
 29 69  1  0
 29 70  1  0
 30 31  1  0
 30 71  1  6
 31 32  1  0
 31 72  1  0
 31 73  1  0
 32 33  1  0
 32 74  1  1
 33 75  1  0
M  END
>  <i_m_ct_stereo_status>  (131) 
1

>  <s_m_source_file>  (131) 
/var/tmp/pbs.5076255.sched01/tmp2obefojl/44ql_32cm2.sdf

>  <i_m_source_file_index>  (131) 
10

>  <i_lp_mmshare_version>  (131) 
48012

>  <i_f3d_flags>  (131) 
0

>  <s_epik_input>  (131) 
W0NIM11bQ0BASF0oW0NIMl0xKVtDSDJdW0NIMl1bQ0BAXTEyQz0zW0NAQEhdKFtDSDJdW0NASF0yW09IXSlbQ0BAXTQoW0NIM10pW0NAQEhdKFtDQEhdKFtPSF0pW0NIMl1bQ0hdMylbQ0BdNShbQ0gzXSlbQ0BASF02W0NIMl1bQ0BAXShPNCkoW0NIM10pW0NASF0oW0NASF01W09IXSlPQyhPNikoW0NIM10pW0NIM10=

>  <s_epik_cmdline>  (131) 
J2VwaWtfcHl0aG9uJywgJy1waHQnLCAnMi4wJywgJy1waCcsICc3LjAnLCAnLXRuJywgJzgnLCAnLW1hJywgJzIwMCcsICctaW1hZScsICc8aW5maWxlLm1hZT4nLCAnLW9tYWUnLCAnPG91dGZpbGUubWFlPic=

>  <r_lp_tautomer_probability>  (131) 
1

>  <r_epik_Ionization_Penalty>  (131) 
8.75348e-07

>  <r_epik_Ionization_Penalty_Charging>  (131) 
0

>  <r_epik_Ionization_Penalty_Neutral>  (131) 
8.75348e-07

>  <r_epik_State_Penalty>  (131) 
-0

>  <r_epik_Charging_Adjusted_Penalty>  (131) 
0

>  <i_epik_Tot_Q>  (131) 
0

>  <i_epik_Tot_abs_Q>  (131) 
0

>  <s_lp_Force_Field>  (131) 
OPLS3e

>  <r_lp_Energy>  (131) 
69.3723

>  <b_lp_Chiralities_Consistent>  (131) 
1

>  <s_lp_Variant>  (131) 
32:0-1

>  <s_i_glide_gridfile>  (131) 
pfpi4k_grid

>  <i_i_glide_lignum>  (131) 
10

>  <i_i_glide_rotatable_bonds>  (131) 
3

>  <r_i_docking_score>  (131) 
-3.2121

>  <r_i_glide_ligand_efficiency>  (131) 
-0.0973365

>  <r_i_glide_ligand_efficiency_sa>  (131) 
-0.31221

>  <r_i_glide_ligand_efficiency_ln>  (131) 
-0.714355

>  <r_i_glide_gscore>  (131) 
-3.2121

>  <r_i_glide_lipo>  (131) 
-0.169697

>  <r_i_glide_hbond>  (131) 
-0.221115

>  <r_i_glide_metal>  (131) 
-0

>  <r_i_glide_rewards>  (131) 
-0.254872

>  <r_i_glide_evdw>  (131) 
-25.482

>  <r_i_glide_ecoul>  (131) 
-8.5924

>  <r_i_glide_erotb>  (131) 
0

>  <r_i_glide_esite>  (131) 
-0.00346254

>  <r_i_glide_emodel>  (131) 
-41.3744

>  <r_i_glide_energy>  (131) 
-34.0744

>  <r_i_glide_einternal>  (131) 
1.0754

>  <r_i_glide_intrahb_reward>  (131) 
-0

>  <i_i_glide_confnum>  (131) 
2

>  <i_i_glide_posenum>  (131) 
29

>  <r_i_glide_eff_state_penalty>  (131) 
0

>  <ligand_id>  (131) 
32

>  <original_smiles>  (131) 
CC1CCC2(C1)C1=CCC(O)C3C(C)(OC4(C)CC5OC(C)(C)OC4C(O)C53C)C1CC2O

>  <smiles>  (131) 
[H]OC1([H])C([H])([H])C([H])=C2C([H])(C([H])([H])C([H])(O[H])C23C([H])([H])C([H])([H])C([H])(C([H])([H])[H])C3([H])[H])C2(C([H])([H])[H])OC3(C([H])([H])[H])C([H])([H])C4([H])OC(C([H])([H])[H])(C([H])([H])[H])OC3([H])C([H])(O[H])C4(C([H])([H])[H])C12[H]

$$$$
32:0:1
     RDKit          3D

 75 80  0  0  1  0  0  0  0  0999 V2000
    0.2581  -10.0854    3.2655 C   0  0  0  0  0  0  0  0  0  0  0  0
    1.6714   -9.7741    2.7140 C   0  0  2  0  0  0  0  0  0  0  0  0
    2.7205   -9.6123    3.8233 C   0  0  0  0  0  0  0  0  0  0  0  0
    3.1431   -8.1367    3.8342 C   0  0  0  0  0  0  0  0  0  0  0  0
    2.1457   -7.3828    2.9283 C   0  0  2  0  0  0  0  0  0  0  0  0
    1.7541   -8.4757    1.8977 C   0  0  0  0  0  0  0  0  0  0  0  0
    2.8202   -6.1059    2.3669 C   0  0  0  0  0  0  0  0  0  0  0  0
    3.8024   -6.1409    1.4238 C   0  0  0  0  0  0  0  0  0  0  0  0
    4.5582   -4.9679    0.8420 C   0  0  0  0  0  0  0  0  0  0  0  0
    3.8864   -3.5927    0.9179 C   0  0  1  0  0  0  0  0  0  0  0  0
    2.6164   -3.6468    0.2985 O   0  0  0  0  0  0  0  0  0  0  0  0
    3.8672   -2.8834    2.3243 C   0  0  2  0  0  0  0  0  0  0  0  0
    3.3294   -3.7887    3.5188 C   0  0  1  0  0  0  0  0  0  0  0  0
    4.5005   -4.4869    4.2760 C   0  0  0  0  0  0  0  0  0  0  0  0
    2.5954   -3.1381    4.5812 O   0  0  0  0  0  0  0  0  0  0  0  0
    2.6144   -1.7554    4.9143 C   0  0  1  0  0  0  0  0  0  0  0  0
    2.1938   -1.7441    6.3981 C   0  0  0  0  0  0  0  0  0  0  0  0
    4.0102   -1.1516    4.7528 C   0  0  0  0  0  0  0  0  0  0  0  0
    4.1257   -0.5587    3.3513 C   0  0  2  0  0  0  0  0  0  0  0  0
    3.7262    0.8061    3.3533 O   0  0  0  0  0  0  0  0  0  0  0  0
    2.5497    1.2894    3.9624 C   0  0  0  0  0  0  0  0  0  0  0  0
    2.9411    2.0357    5.2482 C   0  0  0  0  0  0  0  0  0  0  0  0
    1.9444    2.3033    2.9780 C   0  0  0  0  0  0  0  0  0  0  0  0
    1.5430    0.3660    4.3230 O   0  0  0  0  0  0  0  0  0  0  0  0
    1.5715   -1.0296    4.0173 C   0  0  1  0  0  0  0  0  0  0  0  0
    1.8362   -1.3198    2.5158 C   0  0  1  0  0  0  0  0  0  0  0  0
    1.0505   -0.4711    1.6862 O   0  0  0  0  0  0  0  0  0  0  0  0
    3.3739   -1.3805    2.2541 C   0  0  2  0  0  0  0  0  0  0  0  0
    3.7126   -0.6806    0.9079 C   0  0  0  0  0  0  0  0  0  0  0  0
    2.2785   -4.8791    3.0725 C   0  0  2  0  0  0  0  0  0  0  0  0
    1.4403   -5.4545    4.2314 C   0  0  0  0  0  0  0  0  0  0  0  0
    0.9604   -6.8062    3.7448 C   0  0  1  0  0  0  0  0  0  0  0  0
   -0.1826   -6.6031    2.9439 O   0  0  0  0  0  0  0  0  0  0  0  0
   -0.1397   -9.2926    3.9172 H   0  0  0  0  0  0  0  0  0  0  0  0
    0.2512  -11.0081    3.8623 H   0  0  0  0  0  0  0  0  0  0  0  0
   -0.4589  -10.2378    2.4506 H   0  0  0  0  0  0  0  0  0  0  0  0
    1.9919  -10.6007    2.0819 H   0  0  0  0  0  0  0  0  0  0  0  0
    2.3432   -9.9100    4.8025 H   0  0  0  0  0  0  0  0  0  0  0  0
    3.5944  -10.2395    3.6342 H   0  0  0  0  0  0  0  0  0  0  0  0
    3.1859   -7.7483    4.8519 H   0  0  0  0  0  0  0  0  0  0  0  0
    4.1646   -8.0822    3.4541 H   0  0  0  0  0  0  0  0  0  0  0  0
    2.5322   -8.6138    1.1502 H   0  0  0  0  0  0  0  0  0  0  0  0
    0.8538   -8.2816    1.3042 H   0  0  0  0  0  0  0  0  0  0  0  0
    4.1224   -7.0880    1.0619 H   0  0  0  0  0  0  0  0  0  0  0  0
    5.5538   -4.9388    1.2853 H   0  0  0  0  0  0  0  0  0  0  0  0
    4.7112   -5.2152   -0.2127 H   0  0  0  0  0  0  0  0  0  0  0  0
    4.5031   -2.9829    0.2597 H   0  0  0  0  0  0  0  0  0  0  0  0
    2.7468   -3.8231   -0.6369 H   0  0  0  0  0  0  0  0  0  0  0  0
    4.9365   -2.7821    2.5242 H   0  0  0  0  0  0  0  0  0  0  0  0
    4.9846   -5.2676    3.6906 H   0  0  0  0  0  0  0  0  0  0  0  0
    4.1583   -4.9502    5.2008 H   0  0  0  0  0  0  0  0  0  0  0  0
    5.3063   -3.8123    4.5612 H   0  0  0  0  0  0  0  0  0  0  0  0
    2.1458   -0.7317    6.8045 H   0  0  0  0  0  0  0  0  0  0  0  0
    2.9039   -2.3112    7.0050 H   0  0  0  0  0  0  0  0  0  0  0  0
    1.2129   -2.2019    6.5299 H   0  0  0  0  0  0  0  0  0  0  0  0
    4.2198   -0.3838    5.4921 H   0  0  0  0  0  0  0  0  0  0  0  0
    4.7894   -1.8764    4.9354 H   0  0  0  0  0  0  0  0  0  0  0  0
    5.1827   -0.5463    3.0948 H   0  0  0  0  0  0  0  0  0  0  0  0
    3.1710    1.3500    6.0584 H   0  0  0  0  0  0  0  0  0  0  0  0
    2.1077    2.6565    5.5837 H   0  0  0  0  0  0  0  0  0  0  0  0
    3.8065    2.6791    5.0708 H   0  0  0  0  0  0  0  0  0  0  0  0
    1.7572    1.8569    2.0059 H   0  0  0  0  0  0  0  0  0  0  0  0
    2.6360    3.1349    2.8187 H   0  0  0  0  0  0  0  0  0  0  0  0
    1.0028    2.7001    3.3615 H   0  0  0  0  0  0  0  0  0  0  0  0
    0.5848   -1.4183    4.2646 H   0  0  0  0  0  0  0  0  0  0  0  0
    1.4384   -2.3167    2.3425 H   0  0  0  0  0  0  0  0  0  0  0  0
    1.0722   -0.7386    0.7303 H   0  0  0  0  0  0  0  0  0  0  0  0
    3.4513    0.3734    0.9323 H   0  0  0  0  0  0  0  0  0  0  0  0
    3.1605   -1.1063    0.0726 H   0  0  0  0  0  0  0  0  0  0  0  0
    4.7772   -0.7344    0.6893 H   0  0  0  0  0  0  0  0  0  0  0  0
    1.5495   -4.4498    2.3886 H   0  0  0  0  0  0  0  0  0  0  0  0
    2.0669   -5.6391    5.1006 H   0  0  0  0  0  0  0  0  0  0  0  0
    0.6260   -4.8002    4.5492 H   0  0  0  0  0  0  0  0  0  0  0  0
    0.7006   -7.4132    4.6199 H   0  0  0  0  0  0  0  0  0  0  0  0
   -0.4189   -7.4546    2.5774 H   0  0  0  0  0  0  0  0  0  0  0  0
  1  2  1  0
  1 34  1  0
  1 35  1  0
  1 36  1  0
  2  6  1  0
  2  3  1  0
  2 37  1  6
  3  4  1  0
  3 38  1  0
  3 39  1  0
  5  4  1  1
  4 40  1  0
  4 41  1  0
  5 32  1  0
  5  6  1  0
  5  7  1  0
  6 42  1  0
  6 43  1  0
  7 30  1  0
  7  8  2  0
  8  9  1  0
  8 44  1  0
  9 10  1  0
  9 45  1  0
  9 46  1  0
 10 11  1  0
 10 12  1  0
 10 47  1  6
 11 48  1  0
 12 28  1  0
 12 13  1  0
 12 49  1  1
 13 14  1  1
 13 15  1  0
 13 30  1  0
 14 50  1  0
 14 51  1  0
 14 52  1  0
 15 16  1  0
 16 25  1  0
 16 17  1  1
 16 18  1  0
 17 53  1  0
 17 54  1  0
 17 55  1  0
 18 19  1  0
 18 56  1  0
 18 57  1  0
 19 28  1  0
 19 20  1  0
 19 58  1  6
 20 21  1  0
 21 22  1  0
 21 23  1  0
 21 24  1  0
 22 59  1  0
 22 60  1  0
 22 61  1  0
 23 62  1  0
 23 63  1  0
 23 64  1  0
 24 25  1  0
 25 26  1  0
 25 65  1  1
 26 27  1  0
 26 28  1  0
 26 66  1  1
 27 67  1  0
 28 29  1  6
 29 68  1  0
 29 69  1  0
 29 70  1  0
 30 31  1  0
 30 71  1  6
 31 32  1  0
 31 72  1  0
 31 73  1  0
 32 33  1  0
 32 74  1  1
 33 75  1  0
M  END
>  <i_m_ct_stereo_status>  (132) 
1

>  <s_m_source_file>  (132) 
/var/tmp/pbs.5076255.sched01/tmp2obefojl/44ql_32cm2.sdf

>  <i_m_source_file_index>  (132) 
10

>  <i_lp_mmshare_version>  (132) 
48012

>  <i_f3d_flags>  (132) 
0

>  <s_epik_input>  (132) 
W0NIM11bQ0BASF0oW0NIMl0xKVtDSDJdW0NIMl1bQ0BAXTEyQz0zW0NAQEhdKFtDSDJdW0NASF0yW09IXSlbQ0BAXTQoW0NIM10pW0NAQEhdKFtDQEhdKFtPSF0pW0NIMl1bQ0hdMylbQ0BdNShbQ0gzXSlbQ0BASF02W0NIMl1bQ0BAXShPNCkoW0NIM10pW0NASF0oW0NASF01W09IXSlPQyhPNikoW0NIM10pW0NIM10=

>  <s_epik_cmdline>  (132) 
J2VwaWtfcHl0aG9uJywgJy1waHQnLCAnMi4wJywgJy1waCcsICc3LjAnLCAnLXRuJywgJzgnLCAnLW1hJywgJzIwMCcsICctaW1hZScsICc8aW5maWxlLm1hZT4nLCAnLW9tYWUnLCAnPG91dGZpbGUubWFlPic=

>  <r_lp_tautomer_probability>  (132) 
1

>  <r_epik_Ionization_Penalty>  (132) 
8.75348e-07

>  <r_epik_Ionization_Penalty_Charging>  (132) 
0

>  <r_epik_Ionization_Penalty_Neutral>  (132) 
8.75348e-07

>  <r_epik_State_Penalty>  (132) 
-0

>  <r_epik_Charging_Adjusted_Penalty>  (132) 
0

>  <i_epik_Tot_Q>  (132) 
0

>  <i_epik_Tot_abs_Q>  (132) 
0

>  <s_lp_Force_Field>  (132) 
OPLS3e

>  <r_lp_Energy>  (132) 
69.3723

>  <b_lp_Chiralities_Consistent>  (132) 
1

>  <s_lp_Variant>  (132) 
32:0-1

>  <s_i_glide_gridfile>  (132) 
pfpi4k_grid

>  <i_i_glide_lignum>  (132) 
10

>  <i_i_glide_rotatable_bonds>  (132) 
3

>  <r_i_docking_score>  (132) 
-3.05861

>  <r_i_glide_ligand_efficiency>  (132) 
-0.0926852

>  <r_i_glide_ligand_efficiency_sa>  (132) 
-0.297291

>  <r_i_glide_ligand_efficiency_ln>  (132) 
-0.680219

>  <r_i_glide_gscore>  (132) 
-3.05861

>  <r_i_glide_lipo>  (132) 
-0.20517

>  <r_i_glide_hbond>  (132) 
-0.16

>  <r_i_glide_metal>  (132) 
-0

>  <r_i_glide_rewards>  (132) 
-0.254872

>  <r_i_glide_evdw>  (132) 
-26.5182

>  <r_i_glide_ecoul>  (132) 
-7.38584

>  <r_i_glide_erotb>  (132) 
0

>  <r_i_glide_esite>  (132) 
-0.00478138

>  <r_i_glide_emodel>  (132) 
-40.7839

>  <r_i_glide_energy>  (132) 
-33.9041

>  <r_i_glide_einternal>  (132) 
1.06591

>  <r_i_glide_intrahb_reward>  (132) 
-0

>  <i_i_glide_confnum>  (132) 
2

>  <i_i_glide_posenum>  (132) 
35

>  <r_i_glide_eff_state_penalty>  (132) 
0

>  <ligand_id>  (132) 
32

>  <original_smiles>  (132) 
CC1CCC2(C1)C1=CCC(O)C3C(C)(OC4(C)CC5OC(C)(C)OC4C(O)C53C)C1CC2O

>  <smiles>  (132) 
[H]OC1([H])C([H])([H])C([H])=C2C([H])(C([H])([H])C([H])(O[H])C23C([H])([H])C([H])([H])C([H])(C([H])([H])[H])C3([H])[H])C2(C([H])([H])[H])OC3(C([H])([H])[H])C([H])([H])C4([H])OC(C([H])([H])[H])(C([H])([H])[H])OC3([H])C([H])(O[H])C4(C([H])([H])[H])C12[H]

$$$$
32:0:2
     RDKit          3D

 75 80  0  0  1  0  0  0  0  0999 V2000
    0.6395  -10.0211    2.8904 C   0  0  0  0  0  0  0  0  0  0  0  0
    2.0555   -9.5976    2.4446 C   0  0  2  0  0  0  0  0  0  0  0  0
    3.0062   -9.4095    3.6362 C   0  0  0  0  0  0  0  0  0  0  0  0
    3.3188   -7.9097    3.7313 C   0  0  0  0  0  0  0  0  0  0  0  0
    2.3398   -7.1874    2.7762 C   0  0  2  0  0  0  0  0  0  0  0  0
    2.1001   -8.2655    1.6890 C   0  0  0  0  0  0  0  0  0  0  0  0
    2.9648   -5.8570    2.3114 C   0  0  0  0  0  0  0  0  0  0  0  0
    4.0106   -5.7786    1.4522 C   0  0  0  0  0  0  0  0  0  0  0  0
    4.7234   -4.5430    0.9684 C   0  0  0  0  0  0  0  0  0  0  0  0
    3.9513   -3.2141    1.0427 C   0  0  1  0  0  0  0  0  0  0  0  0
    2.7414   -3.3403    0.3178 O   0  0  0  0  0  0  0  0  0  0  0  0
    3.7793   -2.5624    2.4628 C   0  0  2  0  0  0  0  0  0  0  0  0
    3.2185   -3.5543    3.5816 C   0  0  1  0  0  0  0  0  0  0  0  0
    4.3797   -4.1966    4.4038 C   0  0  0  0  0  0  0  0  0  0  0  0
    2.3599   -2.9912    4.6003 O   0  0  0  0  0  0  0  0  0  0  0  0
    2.2591   -1.6220    4.9834 C   0  0  1  0  0  0  0  0  0  0  0  0
    1.7325   -1.7041    6.4304 C   0  0  0  0  0  0  0  0  0  0  0  0
    3.6210   -0.9200    4.9496 C   0  0  0  0  0  0  0  0  0  0  0  0
    3.8021   -0.2646    3.5848 C   0  0  2  0  0  0  0  0  0  0  0  0
    3.3060    1.0698    3.6044 O   0  0  0  0  0  0  0  0  0  0  0  0
    2.0560    1.4451    4.1359 C   0  0  0  0  0  0  0  0  0  0  0  0
    2.2946    2.1610    5.4750 C   0  0  0  0  0  0  0  0  0  0  0  0
    1.4539    2.4515    3.1423 C   0  0  0  0  0  0  0  0  0  0  0  0
    1.0921    0.4449    4.3839 O   0  0  0  0  0  0  0  0  0  0  0  0
    1.2394   -0.9328    4.0363 C   0  0  1  0  0  0  0  0  0  0  0  0
    1.6436   -1.1477    2.5605 C   0  0  1  0  0  0  0  0  0  0  0  0
    0.8787   -0.3438    1.6868 O   0  0  0  0  0  0  0  0  0  0  0  0
    3.1924   -1.0915    2.4092 C   0  0  2  0  0  0  0  0  0  0  0  0
    3.5796   -0.3210    1.1156 C   0  0  0  0  0  0  0  0  0  0  0  0
    2.2837   -4.6908    3.0252 C   0  0  2  0  0  0  0  0  0  0  0  0
    1.4084   -5.3770    4.0878 C   0  0  0  0  0  0  0  0  0  0  0  0
    1.0575   -6.7286    3.5101 C   0  0  1  0  0  0  0  0  0  0  0  0
   -0.0349   -6.5678    2.6224 O   0  0  0  0  0  0  0  0  0  0  0  0
    0.1445   -9.2801    3.5293 H   0  0  0  0  0  0  0  0  0  0  0  0
    0.6501  -10.9529    3.4563 H   0  0  0  0  0  0  0  0  0  0  0  0
   -0.0222  -10.1851    2.0428 H   0  0  0  0  0  0  0  0  0  0  0  0
    2.4715  -10.3680    1.8024 H   0  0  0  0  0  0  0  0  0  0  0  0
    2.5746   -9.7688    4.5691 H   0  0  0  0  0  0  0  0  0  0  0  0
    3.9343   -9.9690    3.4946 H   0  0  0  0  0  0  0  0  0  0  0  0
    3.2557   -7.5562    4.7597 H   0  0  0  0  0  0  0  0  0  0  0  0
    4.3548   -7.7631    3.4276 H   0  0  0  0  0  0  0  0  0  0  0  0
    2.9336   -8.3095    0.9931 H   0  0  0  0  0  0  0  0  0  0  0  0
    1.2224   -8.1191    1.0519 H   0  0  0  0  0  0  0  0  0  0  0  0
    4.4285   -6.6935    1.0793 H   0  0  0  0  0  0  0  0  0  0  0  0
    5.6826   -4.4569    1.4839 H   0  0  0  0  0  0  0  0  0  0  0  0
    4.9680   -4.7276   -0.0810 H   0  0  0  0  0  0  0  0  0  0  0  0
    4.5651   -2.5400    0.4463 H   0  0  0  0  0  0  0  0  0  0  0  0
    2.2484   -4.0654    0.6961 H   0  0  0  0  0  0  0  0  0  0  0  0
    4.8218   -2.4003    2.7451 H   0  0  0  0  0  0  0  0  0  0  0  0
    4.9584   -4.9186    3.8299 H   0  0  0  0  0  0  0  0  0  0  0  0
    4.0044   -4.7196    5.2833 H   0  0  0  0  0  0  0  0  0  0  0  0
    5.1124   -3.4816    4.7708 H   0  0  0  0  0  0  0  0  0  0  0  0
    1.5825   -0.7150    6.8687 H   0  0  0  0  0  0  0  0  0  0  0  0
    2.4331   -2.2463    7.0716 H   0  0  0  0  0  0  0  0  0  0  0  0
    0.7791   -2.2325    6.4714 H   0  0  0  0  0  0  0  0  0  0  0  0
    3.7216   -0.1736    5.7318 H   0  0  0  0  0  0  0  0  0  0  0  0
    4.4334   -1.5988    5.1677 H   0  0  0  0  0  0  0  0  0  0  0  0
    4.8704   -0.1662    3.4105 H   0  0  0  0  0  0  0  0  0  0  0  0
    2.5097    1.4580    6.2744 H   0  0  0  0  0  0  0  0  0  0  0  0
    1.3962    2.7111    5.7666 H   0  0  0  0  0  0  0  0  0  0  0  0
    3.1244    2.8675    5.3897 H   0  0  0  0  0  0  0  0  0  0  0  0
    1.3731    2.0301    2.1441 H   0  0  0  0  0  0  0  0  0  0  0  0
    2.0917    3.3369    3.0652 H   0  0  0  0  0  0  0  0  0  0  0  0
    0.4582    2.7656    3.4650 H   0  0  0  0  0  0  0  0  0  0  0  0
    0.2664   -1.3930    4.1911 H   0  0  0  0  0  0  0  0  0  0  0  0
    1.3234   -2.1524    2.3129 H   0  0  0  0  0  0  0  0  0  0  0  0
    1.0127   -0.6026    0.7401 H   0  0  0  0  0  0  0  0  0  0  0  0
    3.2436    0.7114    1.1553 H   0  0  0  0  0  0  0  0  0  0  0  0
    3.1245   -0.7503    0.2230 H   0  0  0  0  0  0  0  0  0  0  0  0
    4.6603   -0.2924    0.9735 H   0  0  0  0  0  0  0  0  0  0  0  0
    1.5735   -4.2829    2.3157 H   0  0  0  0  0  0  0  0  0  0  0  0
    1.9771   -5.5546    4.9995 H   0  0  0  0  0  0  0  0  0  0  0  0
    0.5267   -4.7910    4.3695 H   0  0  0  0  0  0  0  0  0  0  0  0
    0.7705   -7.3872    4.3384 H   0  0  0  0  0  0  0  0  0  0  0  0
   -0.1840   -7.4125    2.2099 H   0  0  0  0  0  0  0  0  0  0  0  0
  1  2  1  0
  1 34  1  0
  1 35  1  0
  1 36  1  0
  2  6  1  0
  2  3  1  0
  2 37  1  6
  3  4  1  0
  3 38  1  0
  3 39  1  0
  5  4  1  1
  4 40  1  0
  4 41  1  0
  5 32  1  0
  5  6  1  0
  5  7  1  0
  6 42  1  0
  6 43  1  0
  7 30  1  0
  7  8  2  0
  8  9  1  0
  8 44  1  0
  9 10  1  0
  9 45  1  0
  9 46  1  0
 10 11  1  0
 10 12  1  0
 10 47  1  6
 11 48  1  0
 12 28  1  0
 12 13  1  0
 12 49  1  1
 13 14  1  1
 13 15  1  0
 13 30  1  0
 14 50  1  0
 14 51  1  0
 14 52  1  0
 15 16  1  0
 16 25  1  0
 16 17  1  1
 16 18  1  0
 17 53  1  0
 17 54  1  0
 17 55  1  0
 18 19  1  0
 18 56  1  0
 18 57  1  0
 19 28  1  0
 19 20  1  0
 19 58  1  6
 20 21  1  0
 21 22  1  0
 21 23  1  0
 21 24  1  0
 22 59  1  0
 22 60  1  0
 22 61  1  0
 23 62  1  0
 23 63  1  0
 23 64  1  0
 24 25  1  0
 25 26  1  0
 25 65  1  6
 26 27  1  0
 26 28  1  0
 26 66  1  6
 27 67  1  0
 28 29  1  6
 29 68  1  0
 29 69  1  0
 29 70  1  0
 30 31  1  0
 30 71  1  6
 31 32  1  0
 31 72  1  0
 31 73  1  0
 32 33  1  0
 32 74  1  1
 33 75  1  0
M  END
>  <i_m_ct_stereo_status>  (133) 
1

>  <s_m_source_file>  (133) 
/var/tmp/pbs.5076255.sched01/tmp2obefojl/44ql_32cm2.sdf

>  <i_m_source_file_index>  (133) 
10

>  <i_lp_mmshare_version>  (133) 
48012

>  <i_f3d_flags>  (133) 
0

>  <s_epik_input>  (133) 
W0NIM11bQ0BASF0oW0NIMl0xKVtDSDJdW0NIMl1bQ0BAXTEyQz0zW0NAQEhdKFtDSDJdW0NASF0yW09IXSlbQ0BAXTQoW0NIM10pW0NAQEhdKFtDQEhdKFtPSF0pW0NIMl1bQ0hdMylbQ0BdNShbQ0gzXSlbQ0BASF02W0NIMl1bQ0BAXShPNCkoW0NIM10pW0NASF0oW0NASF01W09IXSlPQyhPNikoW0NIM10pW0NIM10=

>  <s_epik_cmdline>  (133) 
J2VwaWtfcHl0aG9uJywgJy1waHQnLCAnMi4wJywgJy1waCcsICc3LjAnLCAnLXRuJywgJzgnLCAnLW1hJywgJzIwMCcsICctaW1hZScsICc8aW5maWxlLm1hZT4nLCAnLW9tYWUnLCAnPG91dGZpbGUubWFlPic=

>  <r_lp_tautomer_probability>  (133) 
1

>  <r_epik_Ionization_Penalty>  (133) 
8.75348e-07

>  <r_epik_Ionization_Penalty_Charging>  (133) 
0

>  <r_epik_Ionization_Penalty_Neutral>  (133) 
8.75348e-07

>  <r_epik_State_Penalty>  (133) 
-0

>  <r_epik_Charging_Adjusted_Penalty>  (133) 
0

>  <i_epik_Tot_Q>  (133) 
0

>  <i_epik_Tot_abs_Q>  (133) 
0

>  <s_lp_Force_Field>  (133) 
OPLS3e

>  <r_lp_Energy>  (133) 
69.3723

>  <b_lp_Chiralities_Consistent>  (133) 
1

>  <s_lp_Variant>  (133) 
32:0-1

>  <s_i_glide_gridfile>  (133) 
pfpi4k_grid

>  <i_i_glide_lignum>  (133) 
10

>  <i_i_glide_rotatable_bonds>  (133) 
3

>  <r_i_docking_score>  (133) 
-2.93249

>  <r_i_glide_ligand_efficiency>  (133) 
-0.0888633

>  <r_i_glide_ligand_efficiency_sa>  (133) 
-0.285032

>  <r_i_glide_ligand_efficiency_ln>  (133) 
-0.65217

>  <r_i_glide_gscore>  (133) 
-2.93249

>  <r_i_glide_lipo>  (133) 
-0.229815

>  <r_i_glide_hbond>  (133) 
-0.16

>  <r_i_glide_metal>  (133) 
-0

>  <r_i_glide_rewards>  (133) 
-0.254872

>  <r_i_glide_evdw>  (133) 
-25.8146

>  <r_i_glide_ecoul>  (133) 
-6.62457

>  <r_i_glide_erotb>  (133) 
0

>  <r_i_glide_esite>  (133) 
-0.00338668

>  <r_i_glide_emodel>  (133) 
-39.2124

>  <r_i_glide_energy>  (133) 
-32.4391

>  <r_i_glide_einternal>  (133) 
0.71248

>  <r_i_glide_intrahb_reward>  (133) 
-0

>  <i_i_glide_confnum>  (133) 
2

>  <i_i_glide_posenum>  (133) 
22

>  <r_i_glide_eff_state_penalty>  (133) 
0

>  <ligand_id>  (133) 
32

>  <original_smiles>  (133) 
CC1CCC2(C1)C1=CCC(O)C3C(C)(OC4(C)CC5OC(C)(C)OC4C(O)C53C)C1CC2O

>  <smiles>  (133) 
[H]OC1([H])C([H])([H])C([H])=C2C([H])(C([H])([H])C([H])(O[H])C23C([H])([H])C([H])([H])C([H])(C([H])([H])[H])C3([H])[H])C2(C([H])([H])[H])OC3(C([H])([H])[H])C([H])([H])C4([H])OC(C([H])([H])[H])(C([H])([H])[H])OC3([H])C([H])(O[H])C4(C([H])([H])[H])C12[H]

$$$$
33:0:0
     RDKit          3D

 16 17  0  0  1  0  0  0  0  0999 V2000
    3.0213   -4.3071    1.7946 C   0  0  0  0  0  0  0  0  0  0  0  0
    2.4558   -5.9935    1.2926 S   0  0  0  0  0  0  0  0  0  0  0  0
    1.3276   -5.8582    0.3548 O   0  0  0  0  0  0  0  0  0  0  0  0
    3.6439   -6.7643    0.9108 O   0  0  0  0  0  0  0  0  0  0  0  0
    1.8522   -6.7112    2.8051 C   0  0  0  0  0  0  0  0  0  0  0  0
    2.5923   -6.9463    3.9544 C   0  0  0  0  0  0  0  0  0  0  0  0
    1.6700   -7.7194    5.2962 S   0  0  0  0  0  0  0  0  0  0  0  0
    0.2382   -7.7365    4.2753 C   0  0  0  0  0  0  0  0  0  0  0  0
   -0.9765   -8.1530    4.5044 N   0  0  0  0  0  0  0  0  0  0  0  0
   -1.7346   -7.8572    3.0293 S   0  0  0  0  0  0  0  0  0  0  0  0
   -0.4612   -7.1126    2.2018 N   0  0  0  0  0  0  0  0  0  0  0  0
    0.5374   -7.1739    3.0501 C   0  0  0  0  0  0  0  0  0  0  0  0
    3.4218   -3.7915    0.9211 H   0  0  0  0  0  0  0  0  0  0  0  0
    3.8154   -4.3886    2.5387 H   0  0  0  0  0  0  0  0  0  0  0  0
    2.1961   -3.7283    2.2064 H   0  0  0  0  0  0  0  0  0  0  0  0
    3.6364   -6.7192    4.0922 H   0  0  0  0  0  0  0  0  0  0  0  0
  1  2  1  0
  1 13  1  0
  1 14  1  0
  1 15  1  0
  2  3  2  0
  2  4  2  0
  2  5  1  0
  5 12  1  0
  5  6  2  0
  6  7  1  0
  6 16  1  0
  7  8  1  0
  8 12  1  0
  8  9  2  0
  9 10  1  0
 10 11  1  0
 11 12  2  0
M  END
>  <i_m_ct_stereo_status>  (134) 
1

>  <s_m_source_file>  (134) 
/var/tmp/pbs.5076255.sched01/tmp2obefojl/44ql_32cm2.sdf

>  <i_m_source_file_index>  (134) 
11

>  <i_lp_mmshare_version>  (134) 
48012

>  <i_f3d_flags>  (134) 
0

>  <s_epik_input>  (134) 
W0NIM11TKD1PKSg9TyljKFtjSF1zMSljKGMxMiluc24y

>  <s_epik_cmdline>  (134) 
J2VwaWtfcHl0aG9uJywgJy1waHQnLCAnMi4wJywgJy1waCcsICc3LjAnLCAnLXRuJywgJzgnLCAnLW1hJywgJzIwMCcsICctaW1hZScsICc8aW5maWxlLm1hZT4nLCAnLW9tYWUnLCAnPG91dGZpbGUubWFlPic=

>  <r_lp_tautomer_probability>  (134) 
1

>  <r_epik_Ionization_Penalty>  (134) 
5.52545e-15

>  <r_epik_Ionization_Penalty_Charging>  (134) 
0

>  <r_epik_Ionization_Penalty_Neutral>  (134) 
5.52545e-15

>  <r_epik_State_Penalty>  (134) 
-0

>  <r_epik_Charging_Adjusted_Penalty>  (134) 
0

>  <i_epik_Tot_Q>  (134) 
0

>  <i_epik_Tot_abs_Q>  (134) 
0

>  <s_lp_Force_Field>  (134) 
OPLS3e

>  <r_lp_Energy>  (134) 
-5.21914

>  <b_lp_Chiralities_Consistent>  (134) 
1

>  <s_lp_Variant>  (134) 
33:0-1

>  <s_i_glide_gridfile>  (134) 
pfpi4k_grid

>  <i_i_glide_lignum>  (134) 
11

>  <i_i_glide_rotatable_bonds>  (134) 
1

>  <r_i_docking_score>  (134) 
-3.67569

>  <r_i_glide_ligand_efficiency>  (134) 
-0.306308

>  <r_i_glide_ligand_efficiency_sa>  (134) 
-0.701269

>  <r_i_glide_ligand_efficiency_ln>  (134) 
-1.05475

>  <r_i_glide_gscore>  (134) 
-3.67569

>  <r_i_glide_lipo>  (134) 
0

>  <r_i_glide_hbond>  (134) 
-0.100466

>  <r_i_glide_metal>  (134) 
-0

>  <r_i_glide_rewards>  (134) 
-1.90708

>  <r_i_glide_evdw>  (134) 
-18.1898

>  <r_i_glide_ecoul>  (134) 
-4.26884

>  <r_i_glide_erotb>  (134) 
0

>  <r_i_glide_esite>  (134) 
-0.118334

>  <r_i_glide_emodel>  (134) 
-27.3261

>  <r_i_glide_energy>  (134) 
-22.4586

>  <r_i_glide_einternal>  (134) 
0.947011

>  <r_i_glide_intrahb_reward>  (134) 
-0

>  <i_i_glide_confnum>  (134) 
2

>  <i_i_glide_posenum>  (134) 
26

>  <r_i_glide_eff_state_penalty>  (134) 
0

>  <ligand_id>  (134) 
33

>  <original_smiles>  (134) 
CS(=O)(=O)c1csc2nsnc12

>  <smiles>  (134) 
[H]c1sc2nsnc2c1S(=O)(=O)C([H])([H])[H]

$$$$
33:0:1
     RDKit          3D

 16 17  0  0  1  0  0  0  0  0999 V2000
    3.5545   -7.1816    1.3480 C   0  0  0  0  0  0  0  0  0  0  0  0
    2.3266   -5.8251    1.5493 S   0  0  0  0  0  0  0  0  0  0  0  0
    3.0698   -4.5875    1.8346 O   0  0  0  0  0  0  0  0  0  0  0  0
    1.3627   -5.8603    0.4358 O   0  0  0  0  0  0  0  0  0  0  0  0
    1.4622   -6.2200    3.0443 C   0  0  0  0  0  0  0  0  0  0  0  0
    1.8276   -5.8610    4.3344 C   0  0  0  0  0  0  0  0  0  0  0  0
    0.6992   -6.4245    5.6183 S   0  0  0  0  0  0  0  0  0  0  0  0
   -0.2856   -7.1873    4.3818 C   0  0  0  0  0  0  0  0  0  0  0  0
   -1.4030   -7.8555    4.4663 N   0  0  0  0  0  0  0  0  0  0  0  0
   -1.7033   -8.2507    2.8535 S   0  0  0  0  0  0  0  0  0  0  0  0
   -0.4011   -7.4564    2.1211 N   0  0  0  0  0  0  0  0  0  0  0  0
    0.2698   -6.9682    3.1358 C   0  0  0  0  0  0  0  0  0  0  0  0
    4.1462   -6.9963    0.4485 H   0  0  0  0  0  0  0  0  0  0  0  0
    3.0387   -8.1394    1.2683 H   0  0  0  0  0  0  0  0  0  0  0  0
    4.2239   -7.2056    2.2090 H   0  0  0  0  0  0  0  0  0  0  0  0
    2.6936   -5.2748    4.6032 H   0  0  0  0  0  0  0  0  0  0  0  0
  1  2  1  0
  1 13  1  0
  1 14  1  0
  1 15  1  0
  2  3  2  0
  2  4  2  0
  2  5  1  0
  5 12  1  0
  5  6  2  0
  6  7  1  0
  6 16  1  0
  7  8  1  0
  8 12  1  0
  8  9  2  0
  9 10  1  0
 10 11  1  0
 11 12  2  0
M  END
>  <i_m_ct_stereo_status>  (135) 
1

>  <s_m_source_file>  (135) 
/var/tmp/pbs.5076255.sched01/tmp2obefojl/44ql_32cm2.sdf

>  <i_m_source_file_index>  (135) 
11

>  <i_lp_mmshare_version>  (135) 
48012

>  <i_f3d_flags>  (135) 
0

>  <s_epik_input>  (135) 
W0NIM11TKD1PKSg9TyljKFtjSF1zMSljKGMxMiluc24y

>  <s_epik_cmdline>  (135) 
J2VwaWtfcHl0aG9uJywgJy1waHQnLCAnMi4wJywgJy1waCcsICc3LjAnLCAnLXRuJywgJzgnLCAnLW1hJywgJzIwMCcsICctaW1hZScsICc8aW5maWxlLm1hZT4nLCAnLW9tYWUnLCAnPG91dGZpbGUubWFlPic=

>  <r_lp_tautomer_probability>  (135) 
1

>  <r_epik_Ionization_Penalty>  (135) 
5.52545e-15

>  <r_epik_Ionization_Penalty_Charging>  (135) 
0

>  <r_epik_Ionization_Penalty_Neutral>  (135) 
5.52545e-15

>  <r_epik_State_Penalty>  (135) 
-0

>  <r_epik_Charging_Adjusted_Penalty>  (135) 
0

>  <i_epik_Tot_Q>  (135) 
0

>  <i_epik_Tot_abs_Q>  (135) 
0

>  <s_lp_Force_Field>  (135) 
OPLS3e

>  <r_lp_Energy>  (135) 
-5.21914

>  <b_lp_Chiralities_Consistent>  (135) 
1

>  <s_lp_Variant>  (135) 
33:0-1

>  <s_i_glide_gridfile>  (135) 
pfpi4k_grid

>  <i_i_glide_lignum>  (135) 
11

>  <i_i_glide_rotatable_bonds>  (135) 
1

>  <r_i_docking_score>  (135) 
-3.44262

>  <r_i_glide_ligand_efficiency>  (135) 
-0.286885

>  <r_i_glide_ligand_efficiency_sa>  (135) 
-0.656803

>  <r_i_glide_ligand_efficiency_ln>  (135) 
-0.987866

>  <r_i_glide_gscore>  (135) 
-3.44262

>  <r_i_glide_lipo>  (135) 
-0.0758229

>  <r_i_glide_hbond>  (135) 
0

>  <r_i_glide_metal>  (135) 
-0

>  <r_i_glide_rewards>  (135) 
-1.90708

>  <r_i_glide_evdw>  (135) 
-19.3848

>  <r_i_glide_ecoul>  (135) 
-2.44704

>  <r_i_glide_erotb>  (135) 
0

>  <r_i_glide_esite>  (135) 
-0.123424

>  <r_i_glide_emodel>  (135) 
-26.7495

>  <r_i_glide_energy>  (135) 
-21.8319

>  <r_i_glide_einternal>  (135) 
0.0606627

>  <r_i_glide_intrahb_reward>  (135) 
-0

>  <i_i_glide_confnum>  (135) 
1

>  <i_i_glide_posenum>  (135) 
2

>  <r_i_glide_eff_state_penalty>  (135) 
0

>  <ligand_id>  (135) 
33

>  <original_smiles>  (135) 
CS(=O)(=O)c1csc2nsnc12

>  <smiles>  (135) 
[H]c1sc2nsnc2c1S(=O)(=O)C([H])([H])[H]

$$$$
33:0:2
     RDKit          3D

 16 17  0  0  1  0  0  0  0  0999 V2000
    2.3472  -11.4264    4.1104 C   0  0  0  0  0  0  0  0  0  0  0  0
    2.8940   -9.7314    3.6543 S   0  0  0  0  0  0  0  0  0  0  0  0
    4.0814   -9.4064    4.4630 O   0  0  0  0  0  0  0  0  0  0  0  0
    2.9523   -9.6090    2.1894 O   0  0  0  0  0  0  0  0  0  0  0  0
    1.6114   -8.6588    4.2338 C   0  0  0  0  0  0  0  0  0  0  0  0
    1.6924   -7.7635    5.2925 C   0  0  0  0  0  0  0  0  0  0  0  0
    0.2006   -6.8030    5.5731 S   0  0  0  0  0  0  0  0  0  0  0  0
   -0.5787   -7.6486    4.2411 C   0  0  0  0  0  0  0  0  0  0  0  0
   -1.7653   -7.5317    3.7119 N   0  0  0  0  0  0  0  0  0  0  0  0
   -1.7206   -8.6921    2.4847 S   0  0  0  0  0  0  0  0  0  0  0  0
   -0.1387   -9.2494    2.6739 N   0  0  0  0  0  0  0  0  0  0  0  0
    0.3129   -8.5561    3.6906 C   0  0  0  0  0  0  0  0  0  0  0  0
    3.1126  -12.1403    3.8051 H   0  0  0  0  0  0  0  0  0  0  0  0
    1.4143  -11.6594    3.6016 H   0  0  0  0  0  0  0  0  0  0  0  0
    2.2107  -11.4905    5.1901 H   0  0  0  0  0  0  0  0  0  0  0  0
    2.5654   -7.6027    5.9040 H   0  0  0  0  0  0  0  0  0  0  0  0
  1  2  1  0
  1 13  1  0
  1 14  1  0
  1 15  1  0
  2  3  2  0
  2  4  2  0
  2  5  1  0
  5 12  1  0
  5  6  2  0
  6  7  1  0
  6 16  1  0
  7  8  1  0
  8 12  1  0
  8  9  2  0
  9 10  1  0
 10 11  1  0
 11 12  2  0
M  END
>  <i_m_ct_stereo_status>  (136) 
1

>  <s_m_source_file>  (136) 
/var/tmp/pbs.5076255.sched01/tmp2obefojl/44ql_32cm2.sdf

>  <i_m_source_file_index>  (136) 
11

>  <i_lp_mmshare_version>  (136) 
48012

>  <i_f3d_flags>  (136) 
0

>  <s_epik_input>  (136) 
W0NIM11TKD1PKSg9TyljKFtjSF1zMSljKGMxMiluc24y

>  <s_epik_cmdline>  (136) 
J2VwaWtfcHl0aG9uJywgJy1waHQnLCAnMi4wJywgJy1waCcsICc3LjAnLCAnLXRuJywgJzgnLCAnLW1hJywgJzIwMCcsICctaW1hZScsICc8aW5maWxlLm1hZT4nLCAnLW9tYWUnLCAnPG91dGZpbGUubWFlPic=

>  <r_lp_tautomer_probability>  (136) 
1

>  <r_epik_Ionization_Penalty>  (136) 
5.52545e-15

>  <r_epik_Ionization_Penalty_Charging>  (136) 
0

>  <r_epik_Ionization_Penalty_Neutral>  (136) 
5.52545e-15

>  <r_epik_State_Penalty>  (136) 
-0

>  <r_epik_Charging_Adjusted_Penalty>  (136) 
0

>  <i_epik_Tot_Q>  (136) 
0

>  <i_epik_Tot_abs_Q>  (136) 
0

>  <s_lp_Force_Field>  (136) 
OPLS3e

>  <r_lp_Energy>  (136) 
-5.21914

>  <b_lp_Chiralities_Consistent>  (136) 
1

>  <s_lp_Variant>  (136) 
33:0-1

>  <s_i_glide_gridfile>  (136) 
pfpi4k_grid

>  <i_i_glide_lignum>  (136) 
11

>  <i_i_glide_rotatable_bonds>  (136) 
1

>  <r_i_docking_score>  (136) 
-3.3091

>  <r_i_glide_ligand_efficiency>  (136) 
-0.275759

>  <r_i_glide_ligand_efficiency_sa>  (136) 
-0.63133

>  <r_i_glide_ligand_efficiency_ln>  (136) 
-0.949553

>  <r_i_glide_gscore>  (136) 
-3.3091

>  <r_i_glide_lipo>  (136) 
-0.169921

>  <r_i_glide_hbond>  (136) 
0

>  <r_i_glide_metal>  (136) 
-0

>  <r_i_glide_rewards>  (136) 
-1.90708

>  <r_i_glide_evdw>  (136) 
-20.4195

>  <r_i_glide_ecoul>  (136) 
-1.1266

>  <r_i_glide_erotb>  (136) 
0

>  <r_i_glide_esite>  (136) 
-0.0421392

>  <r_i_glide_emodel>  (136) 
-26.1569

>  <r_i_glide_energy>  (136) 
-21.5461

>  <r_i_glide_einternal>  (136) 
0.229762

>  <r_i_glide_intrahb_reward>  (136) 
-0

>  <i_i_glide_confnum>  (136) 
2

>  <i_i_glide_posenum>  (136) 
3

>  <r_i_glide_eff_state_penalty>  (136) 
0

>  <ligand_id>  (136) 
33

>  <original_smiles>  (136) 
CS(=O)(=O)c1csc2nsnc12

>  <smiles>  (136) 
[H]c1sc2nsnc2c1S(=O)(=O)C([H])([H])[H]

$$$$
34:0:0
     RDKit          3D

 73 79  0  0  1  0  0  0  0  0999 V2000
    5.1188   -3.1733   -3.1809 C   0  0  0  0  0  0  0  0  0  0  0  0
    4.2786   -3.2225   -1.8758 C   0  0  0  0  0  0  0  0  0  0  0  0
    2.8270   -3.2711   -2.4733 C   0  0  0  0  0  0  0  0  0  0  0  0
    4.6422   -4.4715   -0.9435 C   0  0  0  0  0  0  0  0  0  0  0  0
    4.7563   -3.8644    0.4725 C   0  0  2  0  0  0  0  0  0  0  0  0
    3.2245   -3.7944    0.6273 C   0  0  0  0  0  0  0  0  0  0  0  0
    2.5864   -2.6770    0.4219 C   0  0  0  0  0  0  0  0  0  0  0  0
    3.4132   -1.5415    0.0835 C   0  0  1  0  0  0  0  0  0  0  0  0
    3.5940   -1.0527    1.5605 C   0  0  0  0  0  0  0  0  0  0  0  0
    4.4943   -1.8597    2.5899 C   0  0  2  0  0  0  0  0  0  0  0  0
    5.8544   -1.3196    2.3414 C   0  0  0  0  0  0  0  0  0  0  0  0
    6.1851   -1.3499    0.8724 C   0  0  1  0  0  0  0  0  0  0  0  0
    7.5799   -1.0883    0.8418 O   0  0  0  0  0  0  0  0  0  0  0  0
    5.6691   -2.5801    0.0038 C   0  0  1  0  0  0  0  0  0  0  0  0
    6.9859   -2.9888   -0.7849 C   0  0  0  0  0  0  0  0  0  0  0  0
    4.5899   -1.9979   -0.9017 C   0  0  1  0  0  0  0  0  0  0  0  0
    4.5162   -3.4521    2.9511 C   0  0  2  0  0  0  0  0  0  0  0  0
    5.0410   -3.5465    4.4466 C   0  0  0  0  0  0  0  0  0  0  0  0
    4.7549   -4.7341    5.4129 C   0  0  2  0  0  0  0  0  0  0  0  0
    5.8057   -5.8220    5.2949 C   0  0  0  0  0  0  0  0  0  0  0  0
    6.8059   -5.7833    6.0030 O   0  0  0  0  0  0  0  0  0  0  0  0
    5.5429   -6.8555    4.2136 C   0  0  0  0  0  0  0  0  0  0  0  0
    6.2316   -7.8572    4.0663 O   0  0  0  0  0  0  0  0  0  0  0  0
    4.3226   -6.5776    3.3895 C   0  0  1  0  0  0  0  0  0  0  0  0
    3.1738   -7.4957    3.7139 C   0  0  0  0  0  0  0  0  0  0  0  0
    3.0579   -6.0251    4.0592 C   0  0  1  0  0  0  0  0  0  0  0  0
    3.3150   -5.3237    5.3996 C   0  0  0  0  0  0  0  0  0  0  0  0
    3.0923   -6.3350    6.5570 C   0  0  0  0  0  0  0  0  0  0  0  0
    2.2573   -4.2192    5.6202 C   0  0  0  0  0  0  0  0  0  0  0  0
    4.7159   -6.0662    1.9949 C   0  0  1  0  0  0  0  0  0  0  0  0
    3.7745   -6.5842    1.0839 O   0  0  0  0  0  0  0  0  0  0  0  0
    5.1448   -4.5097    1.8538 C   0  0  1  0  0  0  0  0  0  0  0  0
    6.6757   -4.6037    1.9394 C   0  0  0  0  0  0  0  0  0  0  0  0
    5.3837   -4.1726   -3.5314 H   0  0  0  0  0  0  0  0  0  0  0  0
    6.0420   -2.6114   -3.0967 H   0  0  0  0  0  0  0  0  0  0  0  0
    4.5877   -2.6883   -4.0046 H   0  0  0  0  0  0  0  0  0  0  0  0
    2.0971   -3.7575   -1.8307 H   0  0  0  0  0  0  0  0  0  0  0  0
    2.7856   -3.8564   -3.3948 H   0  0  0  0  0  0  0  0  0  0  0  0
    2.4463   -2.2842   -2.7371 H   0  0  0  0  0  0  0  0  0  0  0  0
    3.8620   -5.2031   -1.0041 H   0  0  0  0  0  0  0  0  0  0  0  0
    5.4874   -5.0650   -1.2579 H   0  0  0  0  0  0  0  0  0  0  0  0
    2.6289   -4.6402    0.8918 H   0  0  0  0  0  0  0  0  0  0  0  0
    1.5317   -2.5581    0.5339 H   0  0  0  0  0  0  0  0  0  0  0  0
    2.8109   -0.8071   -0.4405 H   0  0  0  0  0  0  0  0  0  0  0  0
    3.9039   -0.0052    1.5366 H   0  0  0  0  0  0  0  0  0  0  0  0
    2.6017   -0.9683    2.0156 H   0  0  0  0  0  0  0  0  0  0  0  0
    4.1761   -1.3796    3.5150 H   0  0  0  0  0  0  0  0  0  0  0  0
    5.9297   -0.2970    2.7166 H   0  0  0  0  0  0  0  0  0  0  0  0
    6.5801   -1.8822    2.8806 H   0  0  0  0  0  0  0  0  0  0  0  0
    5.8145   -0.4212    0.4318 H   0  0  0  0  0  0  0  0  0  0  0  0
    7.7379   -0.2292    1.2360 H   0  0  0  0  0  0  0  0  0  0  0  0
    7.3668   -2.1397   -1.3478 H   0  0  0  0  0  0  0  0  0  0  0  0
    6.9539   -3.7696   -1.5256 H   0  0  0  0  0  0  0  0  0  0  0  0
    7.7867   -3.3130   -0.1269 H   0  0  0  0  0  0  0  0  0  0  0  0
    4.9324   -1.1348   -1.4787 H   0  0  0  0  0  0  0  0  0  0  0  0
    3.4594   -3.6679    3.0486 H   0  0  0  0  0  0  0  0  0  0  0  0
    6.1136   -3.4071    4.4620 H   0  0  0  0  0  0  0  0  0  0  0  0
    4.6880   -2.6821    5.0072 H   0  0  0  0  0  0  0  0  0  0  0  0
    4.8806   -4.3276    6.4222 H   0  0  0  0  0  0  0  0  0  0  0  0
    2.5429   -7.8366    2.8974 H   0  0  0  0  0  0  0  0  0  0  0  0
    3.2649   -8.1896    4.5445 H   0  0  0  0  0  0  0  0  0  0  0  0
    2.3875   -5.4925    3.3954 H   0  0  0  0  0  0  0  0  0  0  0  0
    2.0787   -6.7521    6.5526 H   0  0  0  0  0  0  0  0  0  0  0  0
    3.2377   -5.8559    7.5286 H   0  0  0  0  0  0  0  0  0  0  0  0
    3.7751   -7.1874    6.5335 H   0  0  0  0  0  0  0  0  0  0  0  0
    1.2380   -4.6169    5.6214 H   0  0  0  0  0  0  0  0  0  0  0  0
    2.2965   -3.4381    4.8647 H   0  0  0  0  0  0  0  0  0  0  0  0
    2.4178   -3.7291    6.5827 H   0  0  0  0  0  0  0  0  0  0  0  0
    5.5789   -6.6602    1.6816 H   0  0  0  0  0  0  0  0  0  0  0  0
    3.7815   -7.5339    1.1314 H   0  0  0  0  0  0  0  0  0  0  0  0
    7.0165   -5.0827    2.8525 H   0  0  0  0  0  0  0  0  0  0  0  0
    7.1467   -3.6361    1.9241 H   0  0  0  0  0  0  0  0  0  0  0  0
    7.1018   -5.1622    1.1062 H   0  0  0  0  0  0  0  0  0  0  0  0
  1  2  1  0
  1 34  1  0
  1 35  1  0
  1 36  1  0
  2 16  1  0
  2  3  1  0
  2  4  1  0
  3 37  1  0
  3 38  1  0
  3 39  1  0
  5  4  1  6
  4 40  1  0
  4 41  1  0
  5 14  1  0
  5 32  1  0
  5  6  1  0
  6  7  2  0
  6 42  1  0
  7  8  1  0
  7 43  1  0
  8 16  1  0
  8  9  1  0
  8 44  1  6
  9 10  1  0
  9 45  1  0
  9 46  1  0
 10 11  1  0
 10 17  1  0
 10 47  1  1
 11 12  1  0
 11 48  1  0
 11 49  1  0
 12 13  1  0
 12 14  1  0
 12 50  1  6
 13 51  1  0
 14 15  1  6
 14 16  1  0
 15 52  1  0
 15 53  1  0
 15 54  1  0
 16 55  1  6
 17 32  1  0
 17 18  1  0
 17 56  1  1
 18 19  1  0
 18 57  1  0
 18 58  1  0
 19 27  1  0
 19 20  1  0
 19 59  1  1
 20 21  2  0
 20 22  1  0
 22 23  2  0
 22 24  1  0
 24 26  1  0
 24 25  1  6
 24 30  1  0
 25 26  1  0
 25 60  1  0
 25 61  1  0
 26 27  1  0
 26 62  1  6
 27 28  1  0
 27 29  1  0
 28 63  1  0
 28 64  1  0
 28 65  1  0
 29 66  1  0
 29 67  1  0
 29 68  1  0
 30 31  1  0
 30 32  1  0
 30 69  1  6
 31 70  1  0
 32 33  1  6
 33 71  1  0
 33 72  1  0
 33 73  1  0
M  END
>  <i_m_ct_stereo_status>  (137) 
1

>  <s_m_source_file>  (137) 
/var/tmp/pbs.5076255.sched01/tmp2obefojl/44ql_32cm2.sdf

>  <i_m_source_file_index>  (137) 
12

>  <i_lp_mmshare_version>  (137) 
48012

>  <i_f3d_flags>  (137) 
0

>  <s_epik_input>  (137) 
W0NIM11DKFtDSDNdKShbQ0gyXTEpW0NASF0oW0NAQF0yKFtDQF0xMzQpW0NIM10pW0NAQEhdKFtDSF09W0NIXTMpW0NIMl1bQ0BIXShbQ0gyXVtDQEhdMltPSF0pW0NASF01W0NAQF00KFtDSDNdKVtDQEhdKFtPSF0pW0NAXTY3W0NAQEhdKFtDSDJdNylDKFtDSDNdKShbQ0gzXSlbQ0BIXShbQ0gyXTUpQyg9TylDNj1P

>  <s_epik_cmdline>  (137) 
J2VwaWtfcHl0aG9uJywgJy1waHQnLCAnMi4wJywgJy1waCcsICc3LjAnLCAnLXRuJywgJzgnLCAnLW1hJywgJzIwMCcsICctaW1hZScsICc8aW5maWxlLm1hZT4nLCAnLW9tYWUnLCAnPG91dGZpbGUubWFlPic=

>  <r_lp_tautomer_probability>  (137) 
1

>  <r_epik_Ionization_Penalty>  (137) 
1.8815e-06

>  <r_epik_Ionization_Penalty_Charging>  (137) 
0

>  <r_epik_Ionization_Penalty_Neutral>  (137) 
1.8815e-06

>  <r_epik_State_Penalty>  (137) 
-0

>  <r_epik_Charging_Adjusted_Penalty>  (137) 
0

>  <i_epik_Tot_Q>  (137) 
0

>  <i_epik_Tot_abs_Q>  (137) 
0

>  <s_lp_Force_Field>  (137) 
OPLS3e

>  <r_lp_Energy>  (137) 
219.624

>  <b_lp_Chiralities_Consistent>  (137) 
1

>  <s_lp_Variant>  (137) 
34:0-1

>  <s_i_glide_gridfile>  (137) 
pfpi4k_grid

>  <i_i_glide_lignum>  (137) 
12

>  <i_i_glide_rotatable_bonds>  (137) 
2

>  <r_i_docking_score>  (137) 
-2.99825

>  <r_i_glide_ligand_efficiency>  (137) 
-0.0908561

>  <r_i_glide_ligand_efficiency_sa>  (137) 
-0.291424

>  <r_i_glide_ligand_efficiency_ln>  (137) 
-0.666795

>  <r_i_glide_gscore>  (137) 
-2.99825

>  <r_i_glide_lipo>  (137) 
-0.777117

>  <r_i_glide_hbond>  (137) 
-0.32

>  <r_i_glide_metal>  (137) 
-0

>  <r_i_glide_rewards>  (137) 
-0.323008

>  <r_i_glide_evdw>  (137) 
-16.9285

>  <r_i_glide_ecoul>  (137) 
-4.87801

>  <r_i_glide_erotb>  (137) 
0

>  <r_i_glide_esite>  (137) 
0

>  <r_i_glide_emodel>  (137) 
-23.2099

>  <r_i_glide_energy>  (137) 
-21.8065

>  <r_i_glide_einternal>  (137) 
0.70175

>  <r_i_glide_intrahb_reward>  (137) 
-0

>  <i_i_glide_confnum>  (137) 
1

>  <i_i_glide_posenum>  (137) 
36

>  <r_i_glide_eff_state_penalty>  (137) 
0

>  <ligand_id>  (137) 
34

>  <original_smiles>  (137) 
CC1(C)CC23C=CC4CC(CC(O)C2(C)C41)C1CC2C(=O)C(=O)C4(CC4C2(C)C)C(O)C13C

>  <smiles>  (137) 
[H]OC1([H])C23C(=O)C(=O)C([H])(C([H])([H])C4([H])C5([H])C([H])([H])C([H])(O[H])C6(C([H])([H])[H])C7([H])C([H])(C([H])=C([H])C6(C([H])([H])C7(C([H])([H])[H])C([H])([H])[H])C14C([H])([H])[H])C5([H])[H])C(C([H])([H])[H])(C([H])([H])[H])C2([H])C3([H])[H]

$$$$
34:0:1
     RDKit          3D

 73 79  0  0  1  0  0  0  0  0999 V2000
    4.7574   -2.2001   -3.0641 C   0  0  0  0  0  0  0  0  0  0  0  0
    3.9880   -2.5253   -1.7708 C   0  0  0  0  0  0  0  0  0  0  0  0
    2.5443   -2.4635   -2.3197 C   0  0  0  0  0  0  0  0  0  0  0  0
    4.3385   -3.9477   -1.1475 C   0  0  0  0  0  0  0  0  0  0  0  0
    4.5419   -3.6468    0.3681 C   0  0  2  0  0  0  0  0  0  0  0  0
    3.0139   -3.5503    0.6462 C   0  0  0  0  0  0  0  0  0  0  0  0
    2.4136   -2.3972    0.7384 C   0  0  0  0  0  0  0  0  0  0  0  0
    3.2497   -1.2267    0.5821 C   0  0  1  0  0  0  0  0  0  0  0  0
    3.5184   -1.0891    2.1228 C   0  0  0  0  0  0  0  0  0  0  0  0
    4.4498   -2.1254    2.8999 C   0  0  2  0  0  0  0  0  0  0  0  0
    5.8094   -1.5808    2.6705 C   0  0  0  0  0  0  0  0  0  0  0  0
    6.0648   -1.3092    1.2027 C   0  0  1  0  0  0  0  0  0  0  0  0
    7.4415   -1.0760    1.1023 O   0  0  0  0  0  0  0  0  0  0  0  0
    5.4614   -2.3153    0.1198 C   0  0  1  0  0  0  0  0  0  0  0  0
    6.7285   -2.6015   -0.7964 C   0  0  0  0  0  0  0  0  0  0  0  0
    4.3540   -1.5249   -0.5710 C   0  0  1  0  0  0  0  0  0  0  0  0
    4.4562   -3.7619    2.9035 C   0  0  2  0  0  0  0  0  0  0  0  0
    5.0749   -4.2042    4.2999 C   0  0  0  0  0  0  0  0  0  0  0  0
    4.7706   -5.5608    5.0143 C   0  0  2  0  0  0  0  0  0  0  0  0
    5.7963   -6.6104    4.6123 C   0  0  0  0  0  0  0  0  0  0  0  0
    6.8317   -6.7808    5.2355 O   0  0  0  0  0  0  0  0  0  0  0  0
    5.4378   -7.4031    3.3460 C   0  0  0  0  0  0  0  0  0  0  0  0
    6.0952   -8.3585    2.9585 O   0  0  0  0  0  0  0  0  0  0  0  0
    4.1974   -6.9121    2.6581 C   0  0  1  0  0  0  0  0  0  0  0  0
    3.0208   -7.8458    2.8440 C   0  0  0  0  0  0  0  0  0  0  0  0
    2.9878   -6.4827    3.4911 C   0  0  1  0  0  0  0  0  0  0  0  0
    3.3064   -6.1116    4.9521 C   0  0  0  0  0  0  0  0  0  0  0  0
    3.1289   -7.3389    5.8821 C   0  0  0  0  0  0  0  0  0  0  0  0
    2.3220   -5.0404    5.4719 C   0  0  0  0  0  0  0  0  0  0  0  0
    4.5355   -6.1027    1.4002 C   0  0  1  0  0  0  0  0  0  0  0  0
    3.5107   -6.3711    0.4826 O   0  0  0  0  0  0  0  0  0  0  0  0
    5.0057   -4.5641    1.5697 C   0  0  1  0  0  0  0  0  0  0  0  0
    6.5525   -4.6910    1.5658 C   0  0  0  0  0  0  0  0  0  0  0  0
    4.9995   -3.0946   -3.6403 H   0  0  0  0  0  0  0  0  0  0  0  0
    5.6602   -1.6758   -2.8120 H   0  0  0  0  0  0  0  0  0  0  0  0
    4.2218   -1.5201   -3.7355 H   0  0  0  0  0  0  0  0  0  0  0  0
    1.8173   -2.9822   -1.7108 H   0  0  0  0  0  0  0  0  0  0  0  0
    2.4275   -2.8840   -3.3318 H   0  0  0  0  0  0  0  0  0  0  0  0
    2.2417   -1.4236   -2.3679 H   0  0  0  0  0  0  0  0  0  0  0  0
    3.4832   -4.5662   -1.3429 H   0  0  0  0  0  0  0  0  0  0  0  0
    5.1508   -4.4826   -1.6299 H   0  0  0  0  0  0  0  0  0  0  0  0
    2.3951   -4.4134    0.7517 H   0  0  0  0  0  0  0  0  0  0  0  0
    1.3869   -2.2261    0.9511 H   0  0  0  0  0  0  0  0  0  0  0  0
    2.6138   -0.4110    0.2552 H   0  0  0  0  0  0  0  0  0  0  0  0
    3.8846   -0.0742    2.2993 H   0  0  0  0  0  0  0  0  0  0  0  0
    2.5697   -1.0755    2.6526 H   0  0  0  0  0  0  0  0  0  0  0  0
    4.2036   -1.8592    3.9240 H   0  0  0  0  0  0  0  0  0  0  0  0
    5.9474   -0.6623    3.2584 H   0  0  0  0  0  0  0  0  0  0  0  0
    6.4848   -2.3002    3.0197 H   0  0  0  0  0  0  0  0  0  0  0  0
    5.6976   -0.2998    0.9986 H   0  0  0  0  0  0  0  0  0  0  0  0
    7.6275   -0.1985    1.4832 H   0  0  0  0  0  0  0  0  0  0  0  0
    7.0947   -1.6531   -1.1785 H   0  0  0  0  0  0  0  0  0  0  0  0
    6.6507   -3.1974   -1.6927 H   0  0  0  0  0  0  0  0  0  0  0  0
    7.5601   -3.0606   -0.2695 H   0  0  0  0  0  0  0  0  0  0  0  0
    4.7117   -0.5682   -0.9537 H   0  0  0  0  0  0  0  0  0  0  0  0
    3.4025   -3.9888    3.0114 H   0  0  0  0  0  0  0  0  0  0  0  0
    6.1515   -4.1017    4.2647 H   0  0  0  0  0  0  0  0  0  0  0  0
    4.7838   -3.4710    5.0568 H   0  0  0  0  0  0  0  0  0  0  0  0
    4.9767   -5.3885    6.0706 H   0  0  0  0  0  0  0  0  0  0  0  0
    2.3401   -7.9956    2.0083 H   0  0  0  0  0  0  0  0  0  0  0  0
    3.1142   -8.7109    3.4983 H   0  0  0  0  0  0  0  0  0  0  0  0
    2.2872   -5.8050    3.0143 H   0  0  0  0  0  0  0  0  0  0  0  0
    2.1024   -7.7198    5.8443 H   0  0  0  0  0  0  0  0  0  0  0  0
    3.3410   -7.0834    6.9189 H   0  0  0  0  0  0  0  0  0  0  0  0
    3.7784   -8.1798    5.6293 H   0  0  0  0  0  0  0  0  0  0  0  0
    1.2906   -5.4061    5.4449 H   0  0  0  0  0  0  0  0  0  0  0  0
    2.3489   -4.1195    4.8975 H   0  0  0  0  0  0  0  0  0  0  0  0
    2.5484   -4.7787    6.5016 H   0  0  0  0  0  0  0  0  0  0  0  0
    5.3488   -6.6430    0.8979 H   0  0  0  0  0  0  0  0  0  0  0  0
    3.7814   -6.0674   -0.3800 H   0  0  0  0  0  0  0  0  0  0  0  0
    6.9147   -5.3719    2.3321 H   0  0  0  0  0  0  0  0  0  0  0  0
    7.0756   -3.7624    1.7308 H   0  0  0  0  0  0  0  0  0  0  0  0
    6.9071   -5.0815    0.6103 H   0  0  0  0  0  0  0  0  0  0  0  0
  1  2  1  0
  1 34  1  0
  1 35  1  0
  1 36  1  0
  2 16  1  0
  2  3  1  0
  2  4  1  0
  3 37  1  0
  3 38  1  0
  3 39  1  0
  5  4  1  6
  4 40  1  0
  4 41  1  0
  5 14  1  0
  5 32  1  0
  5  6  1  0
  6  7  2  0
  6 42  1  0
  7  8  1  0
  7 43  1  0
  8 16  1  0
  8  9  1  0
  8 44  1  6
  9 10  1  0
  9 45  1  0
  9 46  1  0
 10 11  1  0
 10 17  1  0
 10 47  1  1
 11 12  1  0
 11 48  1  0
 11 49  1  0
 12 13  1  0
 12 14  1  0
 12 50  1  6
 13 51  1  0
 14 15  1  6
 14 16  1  0
 15 52  1  0
 15 53  1  0
 15 54  1  0
 16 55  1  6
 17 32  1  0
 17 18  1  0
 17 56  1  1
 18 19  1  0
 18 57  1  0
 18 58  1  0
 19 27  1  0
 19 20  1  0
 19 59  1  1
 20 21  2  0
 20 22  1  0
 22 23  2  0
 22 24  1  0
 24 26  1  0
 24 25  1  6
 24 30  1  0
 25 26  1  0
 25 60  1  0
 25 61  1  0
 26 27  1  0
 26 62  1  6
 27 28  1  0
 27 29  1  0
 28 63  1  0
 28 64  1  0
 28 65  1  0
 29 66  1  0
 29 67  1  0
 29 68  1  0
 30 31  1  0
 30 32  1  0
 30 69  1  6
 31 70  1  0
 32 33  1  1
 33 71  1  0
 33 72  1  0
 33 73  1  0
M  END
>  <i_m_ct_stereo_status>  (138) 
1

>  <s_m_source_file>  (138) 
/var/tmp/pbs.5076255.sched01/tmp2obefojl/44ql_32cm2.sdf

>  <i_m_source_file_index>  (138) 
12

>  <i_lp_mmshare_version>  (138) 
48012

>  <i_f3d_flags>  (138) 
0

>  <s_epik_input>  (138) 
W0NIM11DKFtDSDNdKShbQ0gyXTEpW0NASF0oW0NAQF0yKFtDQF0xMzQpW0NIM10pW0NAQEhdKFtDSF09W0NIXTMpW0NIMl1bQ0BIXShbQ0gyXVtDQEhdMltPSF0pW0NASF01W0NAQF00KFtDSDNdKVtDQEhdKFtPSF0pW0NAXTY3W0NAQEhdKFtDSDJdNylDKFtDSDNdKShbQ0gzXSlbQ0BIXShbQ0gyXTUpQyg9TylDNj1P

>  <s_epik_cmdline>  (138) 
J2VwaWtfcHl0aG9uJywgJy1waHQnLCAnMi4wJywgJy1waCcsICc3LjAnLCAnLXRuJywgJzgnLCAnLW1hJywgJzIwMCcsICctaW1hZScsICc8aW5maWxlLm1hZT4nLCAnLW9tYWUnLCAnPG91dGZpbGUubWFlPic=

>  <r_lp_tautomer_probability>  (138) 
1

>  <r_epik_Ionization_Penalty>  (138) 
1.8815e-06

>  <r_epik_Ionization_Penalty_Charging>  (138) 
0

>  <r_epik_Ionization_Penalty_Neutral>  (138) 
1.8815e-06

>  <r_epik_State_Penalty>  (138) 
-0

>  <r_epik_Charging_Adjusted_Penalty>  (138) 
0

>  <i_epik_Tot_Q>  (138) 
0

>  <i_epik_Tot_abs_Q>  (138) 
0

>  <s_lp_Force_Field>  (138) 
OPLS3e

>  <r_lp_Energy>  (138) 
219.624

>  <b_lp_Chiralities_Consistent>  (138) 
1

>  <s_lp_Variant>  (138) 
34:0-1

>  <s_i_glide_gridfile>  (138) 
pfpi4k_grid

>  <i_i_glide_lignum>  (138) 
12

>  <i_i_glide_rotatable_bonds>  (138) 
2

>  <r_i_docking_score>  (138) 
-2.89393

>  <r_i_glide_ligand_efficiency>  (138) 
-0.0876948

>  <r_i_glide_ligand_efficiency_sa>  (138) 
-0.281284

>  <r_i_glide_ligand_efficiency_ln>  (138) 
-0.643594

>  <r_i_glide_gscore>  (138) 
-2.89393

>  <r_i_glide_lipo>  (138) 
-0.607066

>  <r_i_glide_hbond>  (138) 
-0.370317

>  <r_i_glide_metal>  (138) 
-0

>  <r_i_glide_rewards>  (138) 
-0.323408

>  <r_i_glide_evdw>  (138) 
-10.4047

>  <r_i_glide_ecoul>  (138) 
-7.15269

>  <r_i_glide_erotb>  (138) 
0

>  <r_i_glide_esite>  (138) 
0

>  <r_i_glide_emodel>  (138) 
-17.9563

>  <r_i_glide_energy>  (138) 
-17.5574

>  <r_i_glide_einternal>  (138) 
1.01839

>  <r_i_glide_intrahb_reward>  (138) 
-0

>  <i_i_glide_confnum>  (138) 
1

>  <i_i_glide_posenum>  (138) 
5

>  <r_i_glide_eff_state_penalty>  (138) 
0

>  <ligand_id>  (138) 
34

>  <original_smiles>  (138) 
CC1(C)CC23C=CC4CC(CC(O)C2(C)C41)C1CC2C(=O)C(=O)C4(CC4C2(C)C)C(O)C13C

>  <smiles>  (138) 
[H]OC1([H])C23C(=O)C(=O)C([H])(C([H])([H])C4([H])C5([H])C([H])([H])C([H])(O[H])C6(C([H])([H])[H])C7([H])C([H])(C([H])=C([H])C6(C([H])([H])C7(C([H])([H])[H])C([H])([H])[H])C14C([H])([H])[H])C5([H])[H])C(C([H])([H])[H])(C([H])([H])[H])C2([H])C3([H])[H]

$$$$
34:0:2
     RDKit          3D

 73 79  0  0  1  0  0  0  0  0999 V2000
    4.9543   -2.6517   -3.2237 C   0  0  0  0  0  0  0  0  0  0  0  0
    4.1663   -2.9099   -1.9238 C   0  0  0  0  0  0  0  0  0  0  0  0
    2.7067   -2.9339   -2.4846 C   0  0  0  0  0  0  0  0  0  0  0  0
    4.6171   -4.2547   -1.1754 C   0  0  0  0  0  0  0  0  0  0  0  0
    4.7369   -3.8350    0.3037 C   0  0  2  0  0  0  0  0  0  0  0  0
    3.2032   -3.8031    0.5094 C   0  0  0  0  0  0  0  0  0  0  0  0
    2.5412   -2.6832    0.4679 C   0  0  0  0  0  0  0  0  0  0  0  0
    3.3275   -1.4927    0.2799 C   0  0  1  0  0  0  0  0  0  0  0  0
    3.5360   -1.2286    1.8154 C   0  0  0  0  0  0  0  0  0  0  0  0
    4.4831   -2.1559    2.6935 C   0  0  2  0  0  0  0  0  0  0  0  0
    5.8229   -1.5622    2.4631 C   0  0  0  0  0  0  0  0  0  0  0  0
    6.1221   -1.3846    0.9930 C   0  0  1  0  0  0  0  0  0  0  0  0
    7.4927   -1.0504    0.8783 O   0  0  0  0  0  0  0  0  0  0  0  0
    5.6089   -2.4867   -0.0258 C   0  0  1  0  0  0  0  0  0  0  0  0
    6.9175   -2.7841   -0.8895 C   0  0  0  0  0  0  0  0  0  0  0  0
    4.4812   -1.7992   -0.8051 C   0  0  1  0  0  0  0  0  0  0  0  0
    4.5483   -3.7848    2.8280 C   0  0  2  0  0  0  0  0  0  0  0  0
    5.1177   -4.0880    4.2780 C   0  0  0  0  0  0  0  0  0  0  0  0
    4.8541   -5.4037    5.0744 C   0  0  2  0  0  0  0  0  0  0  0  0
    5.9405   -6.4357    4.7786 C   0  0  0  0  0  0  0  0  0  0  0  0
    6.9623   -6.4982    5.4490 O   0  0  0  0  0  0  0  0  0  0  0  0
    5.6685   -7.3246    3.5670 C   0  0  0  0  0  0  0  0  0  0  0  0
    6.3799   -8.2740    3.2703 O   0  0  0  0  0  0  0  0  0  0  0  0
    4.4290   -6.9520    2.8016 C   0  0  1  0  0  0  0  0  0  0  0  0
    3.2961   -7.9248    3.0209 C   0  0  0  0  0  0  0  0  0  0  0  0
    3.1731   -6.5184    3.5686 C   0  0  1  0  0  0  0  0  0  0  0  0
    3.4247   -6.0252    5.0009 C   0  0  0  0  0  0  0  0  0  0  0  0
    3.2652   -7.1940    6.0148 C   0  0  0  0  0  0  0  0  0  0  0  0
    2.3667   -4.9764    5.4065 C   0  0  0  0  0  0  0  0  0  0  0  0
    4.7802   -6.2222    1.4949 C   0  0  1  0  0  0  0  0  0  0  0  0
    3.8306   -6.6347    0.5352 O   0  0  0  0  0  0  0  0  0  0  0  0
    5.1862   -4.6528    1.5793 C   0  0  1  0  0  0  0  0  0  0  0  0
    6.7303   -4.7100    1.6357 C   0  0  0  0  0  0  0  0  0  0  0  0
    5.2711   -3.5770   -3.7071 H   0  0  0  0  0  0  0  0  0  0  0  0
    5.8116   -2.0529   -3.0101 H   0  0  0  0  0  0  0  0  0  0  0  0
    4.4044   -2.0637   -3.9629 H   0  0  0  0  0  0  0  0  0  0  0  0
    1.9959   -3.4978   -1.8843 H   0  0  0  0  0  0  0  0  0  0  0  0
    2.6575   -3.4033   -3.4707 H   0  0  0  0  0  0  0  0  0  0  0  0
    2.3137   -1.9220   -2.6094 H   0  0  0  0  0  0  0  0  0  0  0  0
    3.8931   -5.0253   -1.2602 H   0  0  0  0  0  0  0  0  0  0  0  0
    5.4774   -4.7538   -1.6013 H   0  0  0  0  0  0  0  0  0  0  0  0
    2.6303   -4.6925    0.6553 H   0  0  0  0  0  0  0  0  0  0  0  0
    1.4943   -2.5902    0.6038 H   0  0  0  0  0  0  0  0  0  0  0  0
    2.6756   -0.7152   -0.1120 H   0  0  0  0  0  0  0  0  0  0  0  0
    3.8317   -0.1840    1.9363 H   0  0  0  0  0  0  0  0  0  0  0  0
    2.5537   -1.2314    2.3025 H   0  0  0  0  0  0  0  0  0  0  0  0
    4.1791   -1.8222    3.6868 H   0  0  0  0  0  0  0  0  0  0  0  0
    5.8995   -0.6051    2.9859 H   0  0  0  0  0  0  0  0  0  0  0  0
    6.5565   -2.2136    2.8843 H   0  0  0  0  0  0  0  0  0  0  0  0
    5.7106   -0.4104    0.7152 H   0  0  0  0  0  0  0  0  0  0  0  0
    7.9887   -1.7916    1.2348 H   0  0  0  0  0  0  0  0  0  0  0  0
    7.2627   -1.8643   -1.3508 H   0  0  0  0  0  0  0  0  0  0  0  0
    6.8943   -3.4451   -1.7412 H   0  0  0  0  0  0  0  0  0  0  0  0
    7.7369   -3.1853   -0.2920 H   0  0  0  0  0  0  0  0  0  0  0  0
    4.8060   -0.8544   -1.2526 H   0  0  0  0  0  0  0  0  0  0  0  0
    3.4997   -4.0458    2.9122 H   0  0  0  0  0  0  0  0  0  0  0  0
    6.1916   -3.9365    4.2730 H   0  0  0  0  0  0  0  0  0  0  0  0
    4.7648   -3.3180    4.9638 H   0  0  0  0  0  0  0  0  0  0  0  0
    5.0141   -5.1454    6.1231 H   0  0  0  0  0  0  0  0  0  0  0  0
    2.6579   -8.1673    2.1757 H   0  0  0  0  0  0  0  0  0  0  0  0
    3.4128   -8.7331    3.7381 H   0  0  0  0  0  0  0  0  0  0  0  0
    2.4586   -5.9154    3.0145 H   0  0  0  0  0  0  0  0  0  0  0  0
    2.2601   -7.6221    5.9715 H   0  0  0  0  0  0  0  0  0  0  0  0
    3.4281   -6.8501    7.0393 H   0  0  0  0  0  0  0  0  0  0  0  0
    3.9639   -8.0186    5.8488 H   0  0  0  0  0  0  0  0  0  0  0  0
    1.3588   -5.3930    5.3715 H   0  0  0  0  0  0  0  0  0  0  0  0
    2.3727   -4.0978    4.7680 H   0  0  0  0  0  0  0  0  0  0  0  0
    2.5449   -4.6280    6.4244 H   0  0  0  0  0  0  0  0  0  0  0  0
    5.6417   -6.7532    1.0828 H   0  0  0  0  0  0  0  0  0  0  0  0
    4.0674   -6.2717   -0.3080 H   0  0  0  0  0  0  0  0  0  0  0  0
    7.0967   -5.3108    2.4653 H   0  0  0  0  0  0  0  0  0  0  0  0
    7.2003   -3.7468    1.7345 H   0  0  0  0  0  0  0  0  0  0  0  0
    7.1292   -5.1519    0.7220 H   0  0  0  0  0  0  0  0  0  0  0  0
  1  2  1  0
  1 34  1  0
  1 35  1  0
  1 36  1  0
  2 16  1  0
  2  3  1  0
  2  4  1  0
  3 37  1  0
  3 38  1  0
  3 39  1  0
  5  4  1  6
  4 40  1  0
  4 41  1  0
  5 14  1  0
  5 32  1  0
  5  6  1  0
  6  7  2  0
  6 42  1  0
  7  8  1  0
  7 43  1  0
  8 16  1  0
  8  9  1  0
  8 44  1  6
  9 10  1  0
  9 45  1  0
  9 46  1  0
 10 11  1  0
 10 17  1  0
 10 47  1  1
 11 12  1  0
 11 48  1  0
 11 49  1  0
 12 13  1  0
 12 14  1  0
 12 50  1  6
 13 51  1  0
 14 15  1  6
 14 16  1  0
 15 52  1  0
 15 53  1  0
 15 54  1  0
 16 55  1  6
 17 32  1  0
 17 18  1  0
 17 56  1  1
 18 19  1  0
 18 57  1  0
 18 58  1  0
 19 27  1  0
 19 20  1  0
 19 59  1  1
 20 21  2  0
 20 22  1  0
 22 23  2  0
 22 24  1  0
 24 26  1  0
 24 25  1  6
 24 30  1  0
 25 26  1  0
 25 60  1  0
 25 61  1  0
 26 27  1  0
 26 62  1  6
 27 28  1  0
 27 29  1  0
 28 63  1  0
 28 64  1  0
 28 65  1  0
 29 66  1  0
 29 67  1  0
 29 68  1  0
 30 31  1  0
 30 32  1  0
 30 69  1  6
 31 70  1  0
 32 33  1  1
 33 71  1  0
 33 72  1  0
 33 73  1  0
M  END
>  <i_m_ct_stereo_status>  (139) 
1

>  <s_m_source_file>  (139) 
/var/tmp/pbs.5076255.sched01/tmp2obefojl/44ql_32cm2.sdf

>  <i_m_source_file_index>  (139) 
12

>  <i_lp_mmshare_version>  (139) 
48012

>  <i_f3d_flags>  (139) 
0

>  <s_epik_input>  (139) 
W0NIM11DKFtDSDNdKShbQ0gyXTEpW0NASF0oW0NAQF0yKFtDQF0xMzQpW0NIM10pW0NAQEhdKFtDSF09W0NIXTMpW0NIMl1bQ0BIXShbQ0gyXVtDQEhdMltPSF0pW0NASF01W0NAQF00KFtDSDNdKVtDQEhdKFtPSF0pW0NAXTY3W0NAQEhdKFtDSDJdNylDKFtDSDNdKShbQ0gzXSlbQ0BIXShbQ0gyXTUpQyg9TylDNj1P

>  <s_epik_cmdline>  (139) 
J2VwaWtfcHl0aG9uJywgJy1waHQnLCAnMi4wJywgJy1waCcsICc3LjAnLCAnLXRuJywgJzgnLCAnLW1hJywgJzIwMCcsICctaW1hZScsICc8aW5maWxlLm1hZT4nLCAnLW9tYWUnLCAnPG91dGZpbGUubWFlPic=

>  <r_lp_tautomer_probability>  (139) 
1

>  <r_epik_Ionization_Penalty>  (139) 
1.8815e-06

>  <r_epik_Ionization_Penalty_Charging>  (139) 
0

>  <r_epik_Ionization_Penalty_Neutral>  (139) 
1.8815e-06

>  <r_epik_State_Penalty>  (139) 
-0

>  <r_epik_Charging_Adjusted_Penalty>  (139) 
0

>  <i_epik_Tot_Q>  (139) 
0

>  <i_epik_Tot_abs_Q>  (139) 
0

>  <s_lp_Force_Field>  (139) 
OPLS3e

>  <r_lp_Energy>  (139) 
219.624

>  <b_lp_Chiralities_Consistent>  (139) 
1

>  <s_lp_Variant>  (139) 
34:0-1

>  <s_i_glide_gridfile>  (139) 
pfpi4k_grid

>  <i_i_glide_lignum>  (139) 
12

>  <i_i_glide_rotatable_bonds>  (139) 
2

>  <r_i_docking_score>  (139) 
-1.76985

>  <r_i_glide_ligand_efficiency>  (139) 
-0.0536317

>  <r_i_glide_ligand_efficiency_sa>  (139) 
-0.172025

>  <r_i_glide_ligand_efficiency_ln>  (139) 
-0.393604

>  <r_i_glide_gscore>  (139) 
-1.76985

>  <r_i_glide_lipo>  (139) 
-0.653374

>  <r_i_glide_hbond>  (139) 
0

>  <r_i_glide_metal>  (139) 
-0

>  <r_i_glide_rewards>  (139) 
-0.323008

>  <r_i_glide_evdw>  (139) 
-16.3477

>  <r_i_glide_ecoul>  (139) 
0.159493

>  <r_i_glide_erotb>  (139) 
0

>  <r_i_glide_esite>  (139) 
0

>  <r_i_glide_emodel>  (139) 
-16.8065

>  <r_i_glide_energy>  (139) 
-16.1883

>  <r_i_glide_einternal>  (139) 
0.345032

>  <r_i_glide_intrahb_reward>  (139) 
-0

>  <i_i_glide_confnum>  (139) 
2

>  <i_i_glide_posenum>  (139) 
12

>  <r_i_glide_eff_state_penalty>  (139) 
0

>  <ligand_id>  (139) 
34

>  <original_smiles>  (139) 
CC1(C)CC23C=CC4CC(CC(O)C2(C)C41)C1CC2C(=O)C(=O)C4(CC4C2(C)C)C(O)C13C

>  <smiles>  (139) 
[H]OC1([H])C23C(=O)C(=O)C([H])(C([H])([H])C4([H])C5([H])C([H])([H])C([H])(O[H])C6(C([H])([H])[H])C7([H])C([H])(C([H])=C([H])C6(C([H])([H])C7(C([H])([H])[H])C([H])([H])[H])C14C([H])([H])[H])C5([H])[H])C(C([H])([H])[H])(C([H])([H])[H])C2([H])C3([H])[H]

$$$$
36:0:0
     RDKit          3D

 72 77  0  0  1  0  0  0  0  0999 V2000
    1.1513    1.9664    1.7439 C   0  0  0  0  0  0  0  0  0  0  0  0
    1.8264    0.9862    2.5206 O   0  0  0  0  0  0  0  0  0  0  0  0
    2.9063    0.3836    1.8311 C   0  0  0  0  0  0  0  0  0  0  0  0
    3.1983   -0.9848    2.4732 C   0  0  2  0  0  0  0  0  0  0  0  0
    3.6444   -0.7658    3.8039 O   0  0  0  0  0  0  0  0  0  0  0  0
    4.1008   -1.9193    4.4905 C   0  0  1  0  0  0  0  0  0  0  0  0
    3.0931   -3.0576    4.7347 C   0  0  0  0  0  0  0  0  0  0  0  0
    3.8307   -4.3916    4.4205 C   0  0  1  0  0  0  0  0  0  0  0  0
    3.2165   -5.1221    3.1927 C   0  0  2  0  0  0  0  0  0  0  0  0
    1.8778   -5.8172    3.5745 C   0  0  1  0  0  0  0  0  0  0  0  0
    0.7697   -5.0157    3.2770 O   0  0  0  0  0  0  0  0  0  0  0  0
    1.8694   -7.0461    2.6804 C   0  0  1  0  0  0  0  0  0  0  0  0
    3.2828   -7.5043    2.8312 C   0  0  1  0  0  0  0  0  0  0  0  0
    3.3319   -8.8088    2.0358 C   0  0  0  0  0  0  0  0  0  0  0  0
    1.9281   -9.4375    2.2836 C   0  0  1  0  0  0  0  0  0  0  0  0
    2.0181  -10.7330    3.1316 C   0  0  0  0  0  0  0  0  0  0  0  0
    0.6605  -11.0451    3.7427 C   0  0  1  0  0  0  0  0  0  0  0  0
    0.6975  -12.2594    4.4679 O   0  0  0  0  0  0  0  0  0  0  0  0
    0.2123   -9.9164    4.6804 C   0  0  0  0  0  0  0  0  0  0  0  0
    0.8805   -8.5724    4.4606 C   0  0  0  0  0  0  0  0  0  0  0  0
    1.0490   -8.3082    2.9453 C   0  0  1  0  0  0  0  0  0  0  0  0
   -0.3382   -8.1808    2.2542 C   0  0  0  0  0  0  0  0  0  0  0  0
    4.1164   -6.2439    2.5650 C   0  0  1  0  0  0  0  0  0  0  0  0
    4.3166   -6.0044    1.0429 C   0  0  0  0  0  0  0  0  0  0  0  0
    5.4825   -6.3462    3.2621 C   0  0  0  0  0  0  0  0  0  0  0  0
    6.1275   -4.9763    3.3760 C   0  0  0  0  0  0  0  0  0  0  0  0
    5.3221   -4.0037    4.2760 C   0  0  2  0  0  0  0  0  0  0  0  0
    5.9725   -4.0023    5.6876 C   0  0  0  0  0  0  0  0  0  0  0  0
    5.2585   -2.5544    3.7323 C   0  0  1  0  0  0  0  0  0  0  0  0
    5.0545   -2.5814    2.3334 O   0  0  0  0  0  0  0  0  0  0  0  0
    4.2422   -1.7705    1.6445 C   0  0  0  0  0  0  0  0  0  0  0  0
    4.1801   -1.7271    0.4090 O   0  0  0  0  0  0  0  0  0  0  0  0
    0.3877    2.4573    2.3488 H   0  0  0  0  0  0  0  0  0  0  0  0
    0.6532    1.4879    0.8959 H   0  0  0  0  0  0  0  0  0  0  0  0
    1.8263    2.7400    1.3755 H   0  0  0  0  0  0  0  0  0  0  0  0
    2.6350    0.2386    0.7845 H   0  0  0  0  0  0  0  0  0  0  0  0
    3.7884    1.0225    1.8490 H   0  0  0  0  0  0  0  0  0  0  0  0
    2.2792   -1.5496    2.4895 H   0  0  0  0  0  0  0  0  0  0  0  0
    4.4704   -1.5884    5.4687 H   0  0  0  0  0  0  0  0  0  0  0  0
    2.7768   -3.0410    5.7803 H   0  0  0  0  0  0  0  0  0  0  0  0
    2.1936   -2.9364    4.1355 H   0  0  0  0  0  0  0  0  0  0  0  0
    3.7394   -5.0641    5.2740 H   0  0  0  0  0  0  0  0  0  0  0  0
    3.0411   -4.3944    2.4112 H   0  0  0  0  0  0  0  0  0  0  0  0
    1.8648   -6.0815    4.6238 H   0  0  0  0  0  0  0  0  0  0  0  0
    0.8292   -4.2303    3.7884 H   0  0  0  0  0  0  0  0  0  0  0  0
    1.6933   -6.7395    1.6472 H   0  0  0  0  0  0  0  0  0  0  0  0
    3.4411   -7.7758    3.8804 H   0  0  0  0  0  0  0  0  0  0  0  0
    3.4749   -8.6305    0.9667 H   0  0  0  0  0  0  0  0  0  0  0  0
    4.1356   -9.4584    2.3891 H   0  0  0  0  0  0  0  0  0  0  0  0
    1.5190   -9.6873    1.3136 H   0  0  0  0  0  0  0  0  0  0  0  0
    2.3100  -11.5695    2.4850 H   0  0  0  0  0  0  0  0  0  0  0  0
    2.7639  -10.6354    3.9051 H   0  0  0  0  0  0  0  0  0  0  0  0
   -0.0651  -11.1048    2.9474 H   0  0  0  0  0  0  0  0  0  0  0  0
    1.0877  -12.9270    3.9258 H   0  0  0  0  0  0  0  0  0  0  0  0
   -0.8203   -9.6799    4.4496 H   0  0  0  0  0  0  0  0  0  0  0  0
    0.2651  -10.2153    5.7259 H   0  0  0  0  0  0  0  0  0  0  0  0
    0.2617   -7.8086    4.9254 H   0  0  0  0  0  0  0  0  0  0  0  0
    1.8352   -8.5811    4.9846 H   0  0  0  0  0  0  0  0  0  0  0  0
   -0.9114   -9.1126    2.2833 H   0  0  0  0  0  0  0  0  0  0  0  0
   -0.2469   -7.9250    1.1968 H   0  0  0  0  0  0  0  0  0  0  0  0
   -0.9567   -7.4156    2.7227 H   0  0  0  0  0  0  0  0  0  0  0  0
    4.9446   -6.7755    0.5908 H   0  0  0  0  0  0  0  0  0  0  0  0
    4.7946   -5.0438    0.8434 H   0  0  0  0  0  0  0  0  0  0  0  0
    3.3759   -5.9914    0.4909 H   0  0  0  0  0  0  0  0  0  0  0  0
    5.3963   -6.7852    4.2462 H   0  0  0  0  0  0  0  0  0  0  0  0
    6.1413   -7.0061    2.6909 H   0  0  0  0  0  0  0  0  0  0  0  0
    7.1030   -5.1649    3.8276 H   0  0  0  0  0  0  0  0  0  0  0  0
    6.3616   -4.5692    2.4054 H   0  0  0  0  0  0  0  0  0  0  0  0
    6.9787   -3.5832    5.6782 H   0  0  0  0  0  0  0  0  0  0  0  0
    6.0554   -5.0112    6.0952 H   0  0  0  0  0  0  0  0  0  0  0  0
    5.4049   -3.4257    6.4173 H   0  0  0  0  0  0  0  0  0  0  0  0
    6.1705   -2.0085    3.9321 H   0  0  0  0  0  0  0  0  0  0  0  0
  1  2  1  0
  1 33  1  0
  1 34  1  0
  1 35  1  0
  2  3  1  0
  3  4  1  0
  3 36  1  0
  3 37  1  0
  4 31  1  0
  4  5  1  0
  4 38  1  1
  5  6  1  0
  6 29  1  0
  6  7  1  0
  6 39  1  1
  7  8  1  0
  7 40  1  0
  7 41  1  0
  8 27  1  0
  8  9  1  0
  8 42  1  1
  9 23  1  0
  9 10  1  0
  9 43  1  6
 10 11  1  0
 10 12  1  0
 10 44  1  1
 11 45  1  0
 12 21  1  0
 12 13  1  0
 12 46  1  6
 13 14  1  0
 13 23  1  0
 13 47  1  1
 14 15  1  0
 14 48  1  0
 14 49  1  0
 15 21  1  0
 15 16  1  0
 15 50  1  6
 16 17  1  0
 16 51  1  0
 16 52  1  0
 17 18  1  0
 17 19  1  0
 17 53  1  6
 18 54  1  0
 19 20  1  0
 19 55  1  0
 19 56  1  0
 20 21  1  0
 20 57  1  0
 20 58  1  0
 21 22  1  6
 22 59  1  0
 22 60  1  0
 22 61  1  0
 23 24  1  6
 23 25  1  0
 24 62  1  0
 24 63  1  0
 24 64  1  0
 25 26  1  0
 25 65  1  0
 25 66  1  0
 26 27  1  0
 26 67  1  0
 26 68  1  0
 27 28  1  1
 27 29  1  0
 28 69  1  0
 28 70  1  0
 28 71  1  0
 29 30  1  0
 29 72  1  6
 30 31  1  0
 31 32  2  0
M  END
>  <i_m_ct_stereo_status>  (140) 
1

>  <s_m_source_file>  (140) 
/var/tmp/pbs.5076255.sched01/tmp2obefojl/44ql_32cm2.sdf

>  <i_m_source_file_index>  (140) 
14

>  <i_lp_mmshare_version>  (140) 
48012

>  <i_f3d_flags>  (140) 
0

>  <s_epik_input>  (140) 
W0NIM11PW0NIMl1bQ0BASF0oQyhPMSk9TylPW0NAQEhdKFtDSDJdMilbQ0BIXTFbQ0BdKFtDSDNdKShbQ0gyXVtDSDJdMylbQ0BASF0yW0NASF0oW0NASF00W09IXSlbQ0BdMyhbQ0gzXSlbQ0BASF0oW0NASF00W0NAQF01NltDSDNdKVtDSDJdW0NASF01W0NIMl1bQ0BASF0oW09IXSlbQ0gyXVtDSDJdNg==

>  <s_epik_cmdline>  (140) 
J2VwaWtfcHl0aG9uJywgJy1waHQnLCAnMi4wJywgJy1waCcsICc3LjAnLCAnLXRuJywgJzgnLCAnLW1hJywgJzIwMCcsICctaW1hZScsICc8aW5maWxlLm1hZT4nLCAnLW9tYWUnLCAnPG91dGZpbGUubWFlPic=

>  <r_lp_tautomer_probability>  (140) 
1

>  <r_epik_Ionization_Penalty>  (140) 
4.06819e-06

>  <r_epik_Ionization_Penalty_Charging>  (140) 
0

>  <r_epik_Ionization_Penalty_Neutral>  (140) 
4.06819e-06

>  <r_epik_State_Penalty>  (140) 
-0

>  <r_epik_Charging_Adjusted_Penalty>  (140) 
0

>  <i_epik_Tot_Q>  (140) 
0

>  <i_epik_Tot_abs_Q>  (140) 
0

>  <s_epik_Chemistry_Notes>  (140) 
This compound has an ester and may undergo hydrolysis at high or low pH.

>  <s_lp_Force_Field>  (140) 
OPLS3e

>  <r_lp_Energy>  (140) 
87.3101

>  <b_lp_Chiralities_Consistent>  (140) 
1

>  <s_lp_Variant>  (140) 
36:0-1

>  <s_i_glide_gridfile>  (140) 
pfpi4k_grid

>  <i_i_glide_lignum>  (140) 
14

>  <i_i_glide_rotatable_bonds>  (140) 
4

>  <r_i_docking_score>  (140) 
-2.35614

>  <r_i_glide_ligand_efficiency>  (140) 
-0.0736293

>  <r_i_glide_ligand_efficiency_sa>  (140) 
-0.233758

>  <r_i_glide_ligand_efficiency_ln>  (140) 
-0.527603

>  <r_i_glide_gscore>  (140) 
-2.35614

>  <r_i_glide_lipo>  (140) 
-0.381886

>  <r_i_glide_hbond>  (140) 
-0.322635

>  <r_i_glide_metal>  (140) 
-0

>  <r_i_glide_rewards>  (140) 
-0.352418

>  <r_i_glide_evdw>  (140) 
-17.0426

>  <r_i_glide_ecoul>  (140) 
-3.64418

>  <r_i_glide_erotb>  (140) 
0.0995554

>  <r_i_glide_esite>  (140) 
0

>  <r_i_glide_emodel>  (140) 
-21.8288

>  <r_i_glide_energy>  (140) 
-20.6867

>  <r_i_glide_einternal>  (140) 
4.00247

>  <r_i_glide_intrahb_reward>  (140) 
-0

>  <i_i_glide_confnum>  (140) 
2

>  <i_i_glide_posenum>  (140) 
33

>  <r_i_glide_eff_state_penalty>  (140) 
0

>  <ligand_id>  (140) 
36

>  <original_smiles>  (140) 
COCC1OC2CC3C4C(O)C5C(CC6CC(O)CCC65C)C4(C)CCC3(C)C2OC1=O

>  <smiles>  (140) 
[H]OC1([H])C([H])([H])C([H])([H])C2(C([H])([H])[H])C([H])(C1([H])[H])C([H])([H])C1([H])C2([H])C([H])(O[H])C2([H])C3([H])C([H])([H])C4([H])OC([H])(C([H])([H])OC([H])([H])[H])C(=O)OC4([H])C3(C([H])([H])[H])C([H])([H])C([H])([H])C12C([H])([H])[H]

$$$$
36:0:1
     RDKit          3D

 72 77  0  0  1  0  0  0  0  0999 V2000
    0.9660    2.0827    2.1028 C   0  0  0  0  0  0  0  0  0  0  0  0
    1.2109    0.9313    2.8935 O   0  0  0  0  0  0  0  0  0  0  0  0
    1.0671   -0.2735    2.1534 C   0  0  0  0  0  0  0  0  0  0  0  0
    1.3420   -1.4881    3.0631 C   0  0  2  0  0  0  0  0  0  0  0  0
    0.4389   -1.4562    4.1668 O   0  0  0  0  0  0  0  0  0  0  0  0
    0.6982   -2.3827    5.2041 C   0  0  1  0  0  0  0  0  0  0  0  0
    0.5205   -3.8711    4.8572 C   0  0  0  0  0  0  0  0  0  0  0  0
    1.7152   -4.6278    5.4868 C   0  0  1  0  0  0  0  0  0  0  0  0
    2.6409   -5.2675    4.4087 C   0  0  2  0  0  0  0  0  0  0  0  0
    1.9903   -6.5286    3.7524 C   0  0  1  0  0  0  0  0  0  0  0  0
    1.2974   -6.2411    2.5553 O   0  0  0  0  0  0  0  0  0  0  0  0
    3.1873   -7.4404    3.4952 C   0  0  1  0  0  0  0  0  0  0  0  0
    3.9810   -7.2441    4.7554 C   0  0  1  0  0  0  0  0  0  0  0  0
    5.1700   -8.1873    4.5706 C   0  0  0  0  0  0  0  0  0  0  0  0
    4.5539   -9.3975    3.8071 C   0  0  1  0  0  0  0  0  0  0  0  0
    4.5667  -10.7061    4.6339 C   0  0  0  0  0  0  0  0  0  0  0  0
    3.5484  -11.7366    4.1281 C   0  0  1  0  0  0  0  0  0  0  0  0
    3.6499  -12.9090    4.9047 O   0  0  0  0  0  0  0  0  0  0  0  0
    2.0996  -11.2033    4.1201 C   0  0  0  0  0  0  0  0  0  0  0  0
    2.0304   -9.6619    4.1719 C   0  0  0  0  0  0  0  0  0  0  0  0
    3.1240   -8.9725    3.3129 C   0  0  1  0  0  0  0  0  0  0  0  0
    2.9100   -9.3117    1.8215 C   0  0  0  0  0  0  0  0  0  0  0  0
    4.0564   -5.7129    4.9327 C   0  0  1  0  0  0  0  0  0  0  0  0
    5.1821   -5.0794    4.0702 C   0  0  0  0  0  0  0  0  0  0  0  0
    4.2733   -5.3386    6.4157 C   0  0  0  0  0  0  0  0  0  0  0  0
    3.8988   -3.8821    6.7000 C   0  0  0  0  0  0  0  0  0  0  0  0
    2.3940   -3.5947    6.4335 C   0  0  2  0  0  0  0  0  0  0  0  0
    1.6689   -3.6294    7.8096 C   0  0  0  0  0  0  0  0  0  0  0  0
    2.1191   -2.2324    5.7508 C   0  0  1  0  0  0  0  0  0  0  0  0
    3.0910   -2.0031    4.7305 O   0  0  0  0  0  0  0  0  0  0  0  0
    2.8263   -1.5688    3.4821 C   0  0  0  0  0  0  0  0  0  0  0  0
    3.7200   -1.3283    2.6709 O   0  0  0  0  0  0  0  0  0  0  0  0
    1.0582    2.9748    2.7191 H   0  0  0  0  0  0  0  0  0  0  0  0
   -0.0397    2.0704    1.6764 H   0  0  0  0  0  0  0  0  0  0  0  0
    1.6897    2.1557    1.2903 H   0  0  0  0  0  0  0  0  0  0  0  0
    0.0622   -0.3216    1.7418 H   0  0  0  0  0  0  0  0  0  0  0  0
    1.7516   -0.2655    1.3005 H   0  0  0  0  0  0  0  0  0  0  0  0
    1.1440   -2.3904    2.4898 H   0  0  0  0  0  0  0  0  0  0  0  0
   -0.0020   -2.1435    6.0093 H   0  0  0  0  0  0  0  0  0  0  0  0
   -0.4180   -4.2315    5.2768 H   0  0  0  0  0  0  0  0  0  0  0  0
    0.4660   -4.0316    3.7824 H   0  0  0  0  0  0  0  0  0  0  0  0
    1.3349   -5.4496    6.0986 H   0  0  0  0  0  0  0  0  0  0  0  0
    2.8075   -4.5234    3.6294 H   0  0  0  0  0  0  0  0  0  0  0  0
    1.3049   -7.0060    4.4518 H   0  0  0  0  0  0  0  0  0  0  0  0
    1.0296   -7.0688    2.1799 H   0  0  0  0  0  0  0  0  0  0  0  0
    3.7502   -7.0292    2.6539 H   0  0  0  0  0  0  0  0  0  0  0  0
    3.3971   -7.6353    5.5907 H   0  0  0  0  0  0  0  0  0  0  0  0
    5.9620   -7.7286    3.9793 H   0  0  0  0  0  0  0  0  0  0  0  0
    5.5978   -8.4691    5.5349 H   0  0  0  0  0  0  0  0  0  0  0  0
    5.1833   -9.5706    2.9324 H   0  0  0  0  0  0  0  0  0  0  0  0
    5.5639  -11.1444    4.5982 H   0  0  0  0  0  0  0  0  0  0  0  0
    4.3649  -10.4888    5.6821 H   0  0  0  0  0  0  0  0  0  0  0  0
    3.8233  -12.0220    3.1129 H   0  0  0  0  0  0  0  0  0  0  0  0
    3.0766  -12.8444    5.6616 H   0  0  0  0  0  0  0  0  0  0  0  0
    1.5917  -11.5656    3.2250 H   0  0  0  0  0  0  0  0  0  0  0  0
    1.5321  -11.6001    4.9628 H   0  0  0  0  0  0  0  0  0  0  0  0
    1.0377   -9.3305    3.8705 H   0  0  0  0  0  0  0  0  0  0  0  0
    2.1370   -9.3658    5.2143 H   0  0  0  0  0  0  0  0  0  0  0  0
    3.0004  -10.3830    1.6430 H   0  0  0  0  0  0  0  0  0  0  0  0
    3.6486   -8.8254    1.1825 H   0  0  0  0  0  0  0  0  0  0  0  0
    1.9202   -9.0057    1.4821 H   0  0  0  0  0  0  0  0  0  0  0  0
    6.1712   -5.3758    4.4202 H   0  0  0  0  0  0  0  0  0  0  0  0
    5.1480   -3.9898    4.0911 H   0  0  0  0  0  0  0  0  0  0  0  0
    5.1133   -5.3622    3.0201 H   0  0  0  0  0  0  0  0  0  0  0  0
    3.6852   -5.9802    7.0720 H   0  0  0  0  0  0  0  0  0  0  0  0
    5.3121   -5.5117    6.6950 H   0  0  0  0  0  0  0  0  0  0  0  0
    4.1531   -3.6473    7.7320 H   0  0  0  0  0  0  0  0  0  0  0  0
    4.5576   -3.2353    6.1257 H   0  0  0  0  0  0  0  0  0  0  0  0
    1.9994   -2.8167    8.4562 H   0  0  0  0  0  0  0  0  0  0  0  0
    1.8567   -4.5623    8.3406 H   0  0  0  0  0  0  0  0  0  0  0  0
    0.5868   -3.5404    7.7167 H   0  0  0  0  0  0  0  0  0  0  0  0
    2.1747   -1.4109    6.4695 H   0  0  0  0  0  0  0  0  0  0  0  0
  1  2  1  0
  1 33  1  0
  1 34  1  0
  1 35  1  0
  2  3  1  0
  3  4  1  0
  3 36  1  0
  3 37  1  0
  4 31  1  0
  4  5  1  0
  4 38  1  6
  5  6  1  0
  6 29  1  0
  6  7  1  0
  6 39  1  1
  7  8  1  0
  7 40  1  0
  7 41  1  0
  8 27  1  0
  8  9  1  0
  8 42  1  1
  9 23  1  0
  9 10  1  0
  9 43  1  6
 10 11  1  0
 10 12  1  0
 10 44  1  1
 11 45  1  0
 12 21  1  0
 12 13  1  0
 12 46  1  6
 13 14  1  0
 13 23  1  0
 13 47  1  1
 14 15  1  0
 14 48  1  0
 14 49  1  0
 15 21  1  0
 15 16  1  0
 15 50  1  6
 16 17  1  0
 16 51  1  0
 16 52  1  0
 17 18  1  0
 17 19  1  0
 17 53  1  6
 18 54  1  0
 19 20  1  0
 19 55  1  0
 19 56  1  0
 20 21  1  0
 20 57  1  0
 20 58  1  0
 21 22  1  6
 22 59  1  0
 22 60  1  0
 22 61  1  0
 23 24  1  6
 23 25  1  0
 24 62  1  0
 24 63  1  0
 24 64  1  0
 25 26  1  0
 25 65  1  0
 25 66  1  0
 26 27  1  0
 26 67  1  0
 26 68  1  0
 27 28  1  1
 27 29  1  0
 28 69  1  0
 28 70  1  0
 28 71  1  0
 29 30  1  0
 29 72  1  1
 30 31  1  0
 31 32  2  0
M  END
>  <i_m_ct_stereo_status>  (141) 
1

>  <s_m_source_file>  (141) 
/var/tmp/pbs.5076255.sched01/tmp2obefojl/44ql_32cm2.sdf

>  <i_m_source_file_index>  (141) 
14

>  <i_lp_mmshare_version>  (141) 
48012

>  <i_f3d_flags>  (141) 
0

>  <s_epik_input>  (141) 
W0NIM11PW0NIMl1bQ0BASF0oQyhPMSk9TylPW0NAQEhdKFtDSDJdMilbQ0BIXTFbQ0BdKFtDSDNdKShbQ0gyXVtDSDJdMylbQ0BASF0yW0NASF0oW0NASF00W09IXSlbQ0BdMyhbQ0gzXSlbQ0BASF0oW0NASF00W0NAQF01NltDSDNdKVtDSDJdW0NASF01W0NIMl1bQ0BASF0oW09IXSlbQ0gyXVtDSDJdNg==

>  <s_epik_cmdline>  (141) 
J2VwaWtfcHl0aG9uJywgJy1waHQnLCAnMi4wJywgJy1waCcsICc3LjAnLCAnLXRuJywgJzgnLCAnLW1hJywgJzIwMCcsICctaW1hZScsICc8aW5maWxlLm1hZT4nLCAnLW9tYWUnLCAnPG91dGZpbGUubWFlPic=

>  <r_lp_tautomer_probability>  (141) 
1

>  <r_epik_Ionization_Penalty>  (141) 
4.06819e-06

>  <r_epik_Ionization_Penalty_Charging>  (141) 
0

>  <r_epik_Ionization_Penalty_Neutral>  (141) 
4.06819e-06

>  <r_epik_State_Penalty>  (141) 
-0

>  <r_epik_Charging_Adjusted_Penalty>  (141) 
0

>  <i_epik_Tot_Q>  (141) 
0

>  <i_epik_Tot_abs_Q>  (141) 
0

>  <s_epik_Chemistry_Notes>  (141) 
This compound has an ester and may undergo hydrolysis at high or low pH.

>  <s_lp_Force_Field>  (141) 
OPLS3e

>  <r_lp_Energy>  (141) 
87.3101

>  <b_lp_Chiralities_Consistent>  (141) 
1

>  <s_lp_Variant>  (141) 
36:0-1

>  <s_i_glide_gridfile>  (141) 
pfpi4k_grid

>  <i_i_glide_lignum>  (141) 
14

>  <i_i_glide_rotatable_bonds>  (141) 
4

>  <r_i_docking_score>  (141) 
-1.63502

>  <r_i_glide_ligand_efficiency>  (141) 
-0.0510943

>  <r_i_glide_ligand_efficiency_sa>  (141) 
-0.162214

>  <r_i_glide_ligand_efficiency_ln>  (141) 
-0.366125

>  <r_i_glide_gscore>  (141) 
-1.63502

>  <r_i_glide_lipo>  (141) 
-0.00125568

>  <r_i_glide_hbond>  (141) 
-0.060696

>  <r_i_glide_metal>  (141) 
-0

>  <r_i_glide_rewards>  (141) 
-0.350508

>  <r_i_glide_evdw>  (141) 
-17.9025

>  <r_i_glide_ecoul>  (141) 
-2.84658

>  <r_i_glide_erotb>  (141) 
0.0995554

>  <r_i_glide_esite>  (141) 
0

>  <r_i_glide_emodel>  (141) 
-22.2105

>  <r_i_glide_energy>  (141) 
-20.7491

>  <r_i_glide_einternal>  (141) 
1.17817

>  <r_i_glide_intrahb_reward>  (141) 
-0

>  <i_i_glide_confnum>  (141) 
2

>  <i_i_glide_posenum>  (141) 
15

>  <r_i_glide_eff_state_penalty>  (141) 
0

>  <ligand_id>  (141) 
36

>  <original_smiles>  (141) 
COCC1OC2CC3C4C(O)C5C(CC6CC(O)CCC65C)C4(C)CCC3(C)C2OC1=O

>  <smiles>  (141) 
[H]OC1([H])C([H])([H])C([H])([H])C2(C([H])([H])[H])C([H])(C1([H])[H])C([H])([H])C1([H])C2([H])C([H])(O[H])C2([H])C3([H])C([H])([H])C4([H])OC([H])(C([H])([H])OC([H])([H])[H])C(=O)OC4([H])C3(C([H])([H])[H])C([H])([H])C([H])([H])C12C([H])([H])[H]

$$$$
36:0:2
     RDKit          3D

 72 77  0  0  1  0  0  0  0  0999 V2000
   -2.5832    2.1131    7.4851 C   0  0  0  0  0  0  0  0  0  0  0  0
   -1.7924    0.9510    7.2824 O   0  0  0  0  0  0  0  0  0  0  0  0
   -0.5104    1.0561    7.8944 C   0  0  0  0  0  0  0  0  0  0  0  0
    0.3423   -0.1681    7.5127 C   0  0  2  0  0  0  0  0  0  0  0  0
    1.3028   -0.3832    8.5392 O   0  0  0  0  0  0  0  0  0  0  0  0
    2.2922   -1.3573    8.2590 C   0  0  1  0  0  0  0  0  0  0  0  0
    1.8131   -2.8121    8.0873 C   0  0  0  0  0  0  0  0  0  0  0  0
    2.5634   -3.3913    6.8608 C   0  0  1  0  0  0  0  0  0  0  0  0
    1.5975   -3.7355    5.6860 C   0  0  2  0  0  0  0  0  0  0  0  0
    0.7634   -5.0265    5.9754 C   0  0  1  0  0  0  0  0  0  0  0  0
   -0.5052   -4.7453    6.5284 O   0  0  0  0  0  0  0  0  0  0  0  0
    0.6276   -5.6686    4.5981 C   0  0  1  0  0  0  0  0  0  0  0  0
    2.0027   -5.4519    4.0362 C   0  0  1  0  0  0  0  0  0  0  0  0
    1.9355   -6.1329    2.6696 C   0  0  0  0  0  0  0  0  0  0  0  0
    0.9981   -7.3548    2.9165 C   0  0  1  0  0  0  0  0  0  0  0  0
    1.7119   -8.7210    2.7545 C   0  0  0  0  0  0  0  0  0  0  0  0
    0.9816   -9.8671    3.4788 C   0  0  1  0  0  0  0  0  0  0  0  0
    1.7047  -11.0629    3.2956 O   0  0  0  0  0  0  0  0  0  0  0  0
    0.8020   -9.6025    4.9887 C   0  0  0  0  0  0  0  0  0  0  0  0
    0.9582   -8.1166    5.3660 C   0  0  0  0  0  0  0  0  0  0  0  0
    0.3271   -7.1573    4.3229 C   0  0  1  0  0  0  0  0  0  0  0  0
   -1.2008   -7.3786    4.2594 C   0  0  0  0  0  0  0  0  0  0  0  0
    2.2985   -3.9591    4.2951 C   0  0  1  0  0  0  0  0  0  0  0  0
    1.6671   -3.0398    3.2143 C   0  0  0  0  0  0  0  0  0  0  0  0
    3.8216   -3.7025    4.3618 C   0  0  0  0  0  0  0  0  0  0  0  0
    4.1467   -2.3761    5.0551 C   0  0  0  0  0  0  0  0  0  0  0  0
    3.6762   -2.3511    6.5377 C   0  0  2  0  0  0  0  0  0  0  0  0
    4.9182   -2.6582    7.4214 C   0  0  0  0  0  0  0  0  0  0  0  0
    3.0605   -1.0027    6.9834 C   0  0  1  0  0  0  0  0  0  0  0  0
    2.2206   -0.4939    5.9450 O   0  0  0  0  0  0  0  0  0  0  0  0
    0.9775   -0.0060    6.1165 C   0  0  0  0  0  0  0  0  0  0  0  0
    0.3301    0.4809    5.1916 O   0  0  0  0  0  0  0  0  0  0  0  0
   -3.5350    1.9996    6.9705 H   0  0  0  0  0  0  0  0  0  0  0  0
   -2.0958    3.0027    7.0799 H   0  0  0  0  0  0  0  0  0  0  0  0
   -2.7891    2.2774    8.5457 H   0  0  0  0  0  0  0  0  0  0  0  0
   -0.0116    1.9855    7.6011 H   0  0  0  0  0  0  0  0  0  0  0  0
   -0.6414    1.0995    8.9767 H   0  0  0  0  0  0  0  0  0  0  0  0
   -0.3053   -1.0399    7.4785 H   0  0  0  0  0  0  0  0  0  0  0  0
    2.9911   -1.3333    9.0991 H   0  0  0  0  0  0  0  0  0  0  0  0
    2.0557   -3.3832    8.9839 H   0  0  0  0  0  0  0  0  0  0  0  0
    0.7338   -2.8785    7.9666 H   0  0  0  0  0  0  0  0  0  0  0  0
    3.0483   -4.3270    7.1490 H   0  0  0  0  0  0  0  0  0  0  0  0
    0.9070   -2.9004    5.5692 H   0  0  0  0  0  0  0  0  0  0  0  0
    1.3117   -5.6877    6.6463 H   0  0  0  0  0  0  0  0  0  0  0  0
   -0.9051   -5.5681    6.7660 H   0  0  0  0  0  0  0  0  0  0  0  0
   -0.0897   -5.0736    4.0307 H   0  0  0  0  0  0  0  0  0  0  0  0
    2.7087   -6.0251    4.6369 H   0  0  0  0  0  0  0  0  0  0  0  0
    1.5089   -5.4749    1.9133 H   0  0  0  0  0  0  0  0  0  0  0  0
    2.9303   -6.4241    2.3294 H   0  0  0  0  0  0  0  0  0  0  0  0
    0.2183   -7.3162    2.1544 H   0  0  0  0  0  0  0  0  0  0  0  0
    1.8013   -8.9594    1.6940 H   0  0  0  0  0  0  0  0  0  0  0  0
    2.7298   -8.6559    3.1356 H   0  0  0  0  0  0  0  0  0  0  0  0
    0.0021  -10.0077    3.0206 H   0  0  0  0  0  0  0  0  0  0  0  0
    1.2758  -11.7647    3.7665 H   0  0  0  0  0  0  0  0  0  0  0  0
   -0.1824   -9.9560    5.2973 H   0  0  0  0  0  0  0  0  0  0  0  0
    1.5190  -10.1813    5.5727 H   0  0  0  0  0  0  0  0  0  0  0  0
    0.5331   -7.9493    6.3546 H   0  0  0  0  0  0  0  0  0  0  0  0
    2.0236   -7.9129    5.4643 H   0  0  0  0  0  0  0  0  0  0  0  0
   -1.4556   -8.3947    3.9523 H   0  0  0  0  0  0  0  0  0  0  0  0
   -1.6865   -6.7038    3.5547 H   0  0  0  0  0  0  0  0  0  0  0  0
   -1.6480   -7.2071    5.2349 H   0  0  0  0  0  0  0  0  0  0  0  0
    2.1379   -3.1770    2.2414 H   0  0  0  0  0  0  0  0  0  0  0  0
    1.7578   -1.9832    3.4678 H   0  0  0  0  0  0  0  0  0  0  0  0
    0.6036   -3.2244    3.0875 H   0  0  0  0  0  0  0  0  0  0  0  0
    4.3314   -4.5043    4.8935 H   0  0  0  0  0  0  0  0  0  0  0  0
    4.2430   -3.7054    3.3563 H   0  0  0  0  0  0  0  0  0  0  0  0
    5.2191   -2.1963    4.9923 H   0  0  0  0  0  0  0  0  0  0  0  0
    3.7231   -1.5654    4.4655 H   0  0  0  0  0  0  0  0  0  0  0  0
    5.6644   -1.8665    7.3512 H   0  0  0  0  0  0  0  0  0  0  0  0
    5.4035   -3.5888    7.1263 H   0  0  0  0  0  0  0  0  0  0  0  0
    4.6672   -2.7625    8.4771 H   0  0  0  0  0  0  0  0  0  0  0  0
    3.8352   -0.2617    7.1928 H   0  0  0  0  0  0  0  0  0  0  0  0
  1  2  1  0
  1 33  1  0
  1 34  1  0
  1 35  1  0
  2  3  1  0
  3  4  1  0
  3 36  1  0
  3 37  1  0
  4 31  1  0
  4  5  1  0
  4 38  1  6
  5  6  1  0
  6 29  1  0
  6  7  1  0
  6 39  1  1
  7  8  1  0
  7 40  1  0
  7 41  1  0
  8 27  1  0
  8  9  1  0
  8 42  1  1
  9 23  1  0
  9 10  1  0
  9 43  1  6
 10 11  1  0
 10 12  1  0
 10 44  1  1
 11 45  1  0
 12 21  1  0
 12 13  1  0
 12 46  1  6
 13 14  1  0
 13 23  1  0
 13 47  1  1
 14 15  1  0
 14 48  1  0
 14 49  1  0
 15 21  1  0
 15 16  1  0
 15 50  1  6
 16 17  1  0
 16 51  1  0
 16 52  1  0
 17 18  1  0
 17 19  1  0
 17 53  1  6
 18 54  1  0
 19 20  1  0
 19 55  1  0
 19 56  1  0
 20 21  1  0
 20 57  1  0
 20 58  1  0
 21 22  1  6
 22 59  1  0
 22 60  1  0
 22 61  1  0
 23 24  1  6
 23 25  1  0
 24 62  1  0
 24 63  1  0
 24 64  1  0
 25 26  1  0
 25 65  1  0
 25 66  1  0
 26 27  1  0
 26 67  1  0
 26 68  1  0
 27 28  1  1
 27 29  1  0
 28 69  1  0
 28 70  1  0
 28 71  1  0
 29 30  1  0
 29 72  1  1
 30 31  1  0
 31 32  2  0
M  END
>  <i_m_ct_stereo_status>  (142) 
1

>  <s_m_source_file>  (142) 
/var/tmp/pbs.5076255.sched01/tmp2obefojl/44ql_32cm2.sdf

>  <i_m_source_file_index>  (142) 
14

>  <i_lp_mmshare_version>  (142) 
48012

>  <i_f3d_flags>  (142) 
0

>  <s_epik_input>  (142) 
W0NIM11PW0NIMl1bQ0BASF0oQyhPMSk9TylPW0NAQEhdKFtDSDJdMilbQ0BIXTFbQ0BdKFtDSDNdKShbQ0gyXVtDSDJdMylbQ0BASF0yW0NASF0oW0NASF00W09IXSlbQ0BdMyhbQ0gzXSlbQ0BASF0oW0NASF00W0NAQF01NltDSDNdKVtDSDJdW0NASF01W0NIMl1bQ0BASF0oW09IXSlbQ0gyXVtDSDJdNg==

>  <s_epik_cmdline>  (142) 
J2VwaWtfcHl0aG9uJywgJy1waHQnLCAnMi4wJywgJy1waCcsICc3LjAnLCAnLXRuJywgJzgnLCAnLW1hJywgJzIwMCcsICctaW1hZScsICc8aW5maWxlLm1hZT4nLCAnLW9tYWUnLCAnPG91dGZpbGUubWFlPic=

>  <r_lp_tautomer_probability>  (142) 
1

>  <r_epik_Ionization_Penalty>  (142) 
4.06819e-06

>  <r_epik_Ionization_Penalty_Charging>  (142) 
0

>  <r_epik_Ionization_Penalty_Neutral>  (142) 
4.06819e-06

>  <r_epik_State_Penalty>  (142) 
-0

>  <r_epik_Charging_Adjusted_Penalty>  (142) 
0

>  <i_epik_Tot_Q>  (142) 
0

>  <i_epik_Tot_abs_Q>  (142) 
0

>  <s_epik_Chemistry_Notes>  (142) 
This compound has an ester and may undergo hydrolysis at high or low pH.

>  <s_lp_Force_Field>  (142) 
OPLS3e

>  <r_lp_Energy>  (142) 
87.3101

>  <b_lp_Chiralities_Consistent>  (142) 
1

>  <s_lp_Variant>  (142) 
36:0-1

>  <s_i_glide_gridfile>  (142) 
pfpi4k_grid

>  <i_i_glide_lignum>  (142) 
14

>  <i_i_glide_rotatable_bonds>  (142) 
4

>  <r_i_docking_score>  (142) 
-1.6131

>  <r_i_glide_ligand_efficiency>  (142) 
-0.0504095

>  <r_i_glide_ligand_efficiency_sa>  (142) 
-0.16004

>  <r_i_glide_ligand_efficiency_ln>  (142) 
-0.361218

>  <r_i_glide_gscore>  (142) 
-1.6131

>  <r_i_glide_lipo>  (142) 
-0.0359937

>  <r_i_glide_hbond>  (142) 
-0.16

>  <r_i_glide_metal>  (142) 
-0

>  <r_i_glide_rewards>  (142) 
-0.350508

>  <r_i_glide_evdw>  (142) 
-18.1361

>  <r_i_glide_ecoul>  (142) 
-1.71352

>  <r_i_glide_erotb>  (142) 
0.0995554

>  <r_i_glide_esite>  (142) 
-0.00232553

>  <r_i_glide_emodel>  (142) 
-21.7203

>  <r_i_glide_energy>  (142) 
-19.8496

>  <r_i_glide_einternal>  (142) 
1.06853

>  <r_i_glide_intrahb_reward>  (142) 
-0

>  <i_i_glide_confnum>  (142) 
4

>  <i_i_glide_posenum>  (142) 
25

>  <r_i_glide_eff_state_penalty>  (142) 
0

>  <ligand_id>  (142) 
36

>  <original_smiles>  (142) 
COCC1OC2CC3C4C(O)C5C(CC6CC(O)CCC65C)C4(C)CCC3(C)C2OC1=O

>  <smiles>  (142) 
[H]OC1([H])C([H])([H])C([H])([H])C2(C([H])([H])[H])C([H])(C1([H])[H])C([H])([H])C1([H])C2([H])C([H])(O[H])C2([H])C3([H])C([H])([H])C4([H])OC([H])(C([H])([H])OC([H])([H])[H])C(=O)OC4([H])C3(C([H])([H])[H])C([H])([H])C([H])([H])C12C([H])([H])[H]

$$$$
37:0:0
     RDKit          3D

 34 41  0  0  1  0  0  0  0  0999 V2000
    3.2918   -1.0598   -3.0027 C   0  0  0  0  0  0  0  0  0  0  0  0
    3.9632   -2.1005   -3.9811 C   0  0  0  0  0  0  0  0  0  0  0  0
    4.5584   -3.2808   -3.1156 C   0  0  2  0  0  0  0  0  0  0  0  0
    3.4917   -3.0679   -1.9254 C   0  0  2  0  0  0  0  0  0  0  0  0
    3.5087   -1.5510   -1.5303 C   0  0  1  0  0  0  0  0  0  0  0  0
    4.9671   -1.1565   -0.9816 C   0  0  2  0  0  0  0  0  0  0  0  0
    5.3133   -2.4234   -1.6356 C   0  0  1  0  0  0  0  0  0  0  0  0
    6.1749   -3.1147   -2.4640 C   0  0  1  0  0  0  0  0  0  0  0  0
    6.9792   -3.4489   -1.0524 C   0  0  1  0  0  0  0  0  0  0  0  0
    7.0547   -2.2902    0.0779 C   0  0  1  0  0  0  0  0  0  0  0  0
    5.7021   -1.4766    0.3386 C   0  0  2  0  0  0  0  0  0  0  0  0
    5.2078   -2.6946    1.1343 C   0  0  1  0  0  0  0  0  0  0  0  0
    4.7524   -3.8915    0.2862 C   0  0  1  0  0  0  0  0  0  0  0  0
    4.4583   -3.7077   -1.1638 C   0  0  1  0  0  0  0  0  0  0  0  0
    6.2478   -4.2652    0.1051 C   0  0  2  0  0  0  0  0  0  0  0  0
    6.6243   -3.2558    1.1480 C   0  0  1  0  0  0  0  0  0  0  0  0
    2.2285   -1.0316   -3.2266 H   0  0  0  0  0  0  0  0  0  0  0  0
    3.6812   -0.0515   -3.1560 H   0  0  0  0  0  0  0  0  0  0  0  0
    3.2204   -2.4890   -4.6792 H   0  0  0  0  0  0  0  0  0  0  0  0
    4.7289   -1.5974   -4.5693 H   0  0  0  0  0  0  0  0  0  0  0  0
    4.4475   -4.2332   -3.6465 H   0  0  0  0  0  0  0  0  0  0  0  0
    2.5255   -3.5647   -2.0308 H   0  0  0  0  0  0  0  0  0  0  0  0
    2.7189   -1.2656   -0.8393 H   0  0  0  0  0  0  0  0  0  0  0  0
    5.3011   -0.1993   -1.3905 H   0  0  0  0  0  0  0  0  0  0  0  0
    5.5583   -1.6670   -2.4141 H   0  0  0  0  0  0  0  0  0  0  0  0
    6.8734   -2.6564   -3.1642 H   0  0  0  0  0  0  0  0  0  0  0  0
    7.9828   -3.8380   -1.2227 H   0  0  0  0  0  0  0  0  0  0  0  0
    8.0055   -1.7738    0.2314 H   0  0  0  0  0  0  0  0  0  0  0  0
    5.8675   -0.6252    0.9999 H   0  0  0  0  0  0  0  0  0  0  0  0
    4.7603   -2.5410    2.1180 H   0  0  0  0  0  0  0  0  0  0  0  0
    4.1980   -4.6505    0.8381 H   0  0  0  0  0  0  0  0  0  0  0  0
    4.6427   -4.7313   -1.5534 H   0  0  0  0  0  0  0  0  0  0  0  0
    6.5531   -5.2972    0.2683 H   0  0  0  0  0  0  0  0  0  0  0  0
    7.1963   -3.5228    2.0252 H   0  0  0  0  0  0  0  0  0  0  0  0
  1  5  1  0
  1  2  1  0
  1 17  1  0
  1 18  1  0
  2  3  1  0
  2 19  1  0
  2 20  1  0
  3  8  1  0
  3  4  1  0
  3 21  1  6
  4 14  1  0
  4  5  1  0
  4 22  1  6
  5  6  1  0
  5 23  1  1
  6 11  1  0
  6  7  1  0
  6 24  1  6
  7 14  1  0
  7  8  1  0
  7 25  1  6
  8  9  1  0
  8 26  1  6
  9 15  1  0
  9 10  1  0
  9 27  1  6
 10 16  1  0
 10 11  1  0
 10 28  1  1
 11 12  1  0
 11 29  1  1
 12 16  1  0
 12 13  1  0
 12 30  1  1
 13 14  1  0
 13 15  1  0
 13 31  1  1
 14 32  1  6
 15 16  1  0
 15 33  1  1
 16 34  1  1
M  END
>  <i_m_ct_stereo_status>  (143) 
1

>  <s_m_source_file>  (143) 
/var/tmp/pbs.5076255.sched01/tmp2obefojl/44ql_32cm2.sdf

>  <i_m_source_file_index>  (143) 
15

>  <i_lp_mmshare_version>  (143) 
48012

>  <i_f3d_flags>  (143) 
2

>  <s_epik_input>  (143) 
W0NIMl0xW0NIMl1bQ0BASF0oW0NASF0yW0NAQEhdMTMpW0NAQEhdNFtDSF01W0NASF0zW0NASF02W0NASF03W0NAQEhdNFtDQEhdOFtDQEBIXShbQ0BASF0yNSlbQ0BASF02W0NAQEhdNzg=

>  <s_epik_cmdline>  (143) 
J2VwaWtfcHl0aG9uJywgJy1waHQnLCAnMi4wJywgJy1waCcsICc3LjAnLCAnLXRuJywgJzgnLCAnLW1hJywgJzIwMCcsICctaW1hZScsICc8aW5maWxlLm1hZT4nLCAnLW9tYWUnLCAnPG91dGZpbGUubWFlPic=

>  <r_lp_tautomer_probability>  (143) 
1

>  <r_epik_Ionization_Penalty>  (143) 
0

>  <r_epik_Ionization_Penalty_Charging>  (143) 
0

>  <r_epik_Ionization_Penalty_Neutral>  (143) 
0

>  <r_epik_State_Penalty>  (143) 
-0

>  <r_epik_Charging_Adjusted_Penalty>  (143) 
0

>  <i_epik_Tot_Q>  (143) 
0

>  <i_epik_Tot_abs_Q>  (143) 
0

>  <s_lp_Force_Field>  (143) 
OPLS3e

>  <r_lp_Energy>  (143) 
390.763

>  <b_lp_Chiralities_Consistent>  (143) 
0

>  <s_lp_Variant>  (143) 
37:0-1

>  <s_i_glide_gridfile>  (143) 
pfpi4k_grid

>  <i_i_glide_lignum>  (143) 
15

>  <i_i_glide_rotatable_bonds>  (143) 
0

>  <r_i_docking_score>  (143) 
-3.8217

>  <r_i_glide_ligand_efficiency>  (143) 
-0.238856

>  <r_i_glide_ligand_efficiency_sa>  (143) 
-0.60188

>  <r_i_glide_ligand_efficiency_ln>  (143) 
-1.01302

>  <r_i_glide_gscore>  (143) 
-3.8217

>  <r_i_glide_lipo>  (143) 
-0.813259

>  <r_i_glide_hbond>  (143) 
0

>  <r_i_glide_metal>  (143) 
-0

>  <r_i_glide_rewards>  (143) 
-1.97513

>  <r_i_glide_evdw>  (143) 
-18.2449

>  <r_i_glide_ecoul>  (143) 
-0.807095

>  <r_i_glide_erotb>  (143) 
0

>  <r_i_glide_esite>  (143) 
0

>  <r_i_glide_emodel>  (143) 
-23.0019

>  <r_i_glide_energy>  (143) 
-19.052

>  <r_i_glide_einternal>  (143) 
0

>  <r_i_glide_intrahb_reward>  (143) 
-0

>  <i_i_glide_confnum>  (143) 
1

>  <i_i_glide_posenum>  (143) 
38

>  <r_i_glide_eff_state_penalty>  (143) 
0

>  <ligand_id>  (143) 
37

>  <original_smiles>  (143) 
C1CC2C3C1C1C4C2C2C5C1C1C(C34)C2C51

>  <smiles>  (143) 
[H]C1([H])C([H])([H])C2([H])C3([H])C1([H])C1([H])C4([H])C2([H])C2([H])C5([H])C1([H])C1([H])C([H])(C34[H])C2([H])C51[H]

$$$$
37:0:1
     RDKit          3D

 34 41  0  0  1  0  0  0  0  0999 V2000
    6.2212   -4.4376    0.1759 C   0  0  0  0  0  0  0  0  0  0  0  0
    6.2348   -3.0491    0.9487 C   0  0  0  0  0  0  0  0  0  0  0  0
    5.0146   -2.1931    0.4245 C   0  0  2  0  0  0  0  0  0  0  0  0
    4.1466   -3.5008    0.0202 C   0  0  2  0  0  0  0  0  0  0  0  0
    5.0476   -4.4305   -0.8756 C   0  0  1  0  0  0  0  0  0  0  0  0
    5.4596   -3.6426   -2.2349 C   0  0  2  0  0  0  0  0  0  0  0  0
    5.0202   -2.4921   -1.4423 C   0  0  1  0  0  0  0  0  0  0  0  0
    5.2746   -1.1983   -0.9934 C   0  0  1  0  0  0  0  0  0  0  0  0
    4.4208   -0.7792   -2.3768 C   0  0  1  0  0  0  0  0  0  0  0  0
    4.6126   -1.6589   -3.7205 C   0  0  1  0  0  0  0  0  0  0  0  0
    4.6567   -3.2489   -3.5142 C   0  0  2  0  0  0  0  0  0  0  0  0
    3.1270   -3.2081   -3.3852 C   0  0  1  0  0  0  0  0  0  0  0  0
    2.6108   -2.6863   -2.0330 C   0  0  1  0  0  0  0  0  0  0  0  0
    3.5244   -2.6113   -0.8423 C   0  0  1  0  0  0  0  0  0  0  0  0
    2.9325   -1.2366   -2.5361 C   0  0  2  0  0  0  0  0  0  0  0  0
    3.1312   -1.7722   -3.9117 C   0  0  1  0  0  0  0  0  0  0  0  0
    6.0648   -5.2464    0.8926 H   0  0  0  0  0  0  0  0  0  0  0  0
    7.1837   -4.6240   -0.3049 H   0  0  0  0  0  0  0  0  0  0  0  0
    6.1408   -3.2238    2.0216 H   0  0  0  0  0  0  0  0  0  0  0  0
    7.1737   -2.5075    0.7797 H   0  0  0  0  0  0  0  0  0  0  0  0
    4.5774   -1.6157    1.2541 H   0  0  0  0  0  0  0  0  0  0  0  0
    3.5290   -3.9613    0.7904 H   0  0  0  0  0  0  0  0  0  0  0  0
    4.6211   -5.4235   -1.0732 H   0  0  0  0  0  0  0  0  0  0  0  0
    6.5117   -3.8029   -2.5025 H   0  0  0  0  0  0  0  0  0  0  0  0
    6.1217   -2.5048   -1.2660 H   0  0  0  0  0  0  0  0  0  0  0  0
    6.2317   -0.7135   -0.9788 H   0  0  0  0  0  0  0  0  0  0  0  0
    4.5005    0.2822   -2.5931 H   0  0  0  0  0  0  0  0  0  0  0  0
    5.0385   -1.1722   -4.6256 H   0  0  0  0  0  0  0  0  0  0  0  0
    4.9659   -3.7929   -4.4062 H   0  0  0  0  0  0  0  0  0  0  0  0
    2.5218   -3.9445   -3.9301 H   0  0  0  0  0  0  0  0  0  0  0  0
    1.5510   -2.8824   -1.8624 H   0  0  0  0  0  0  0  0  0  0  0  0
    3.0175   -1.8135   -0.2645 H   0  0  0  0  0  0  0  0  0  0  0  0
    2.2046   -0.4251   -2.3812 H   0  0  0  0  0  0  0  0  0  0  0  0
    2.5989   -1.3790   -4.7572 H   0  0  0  0  0  0  0  0  0  0  0  0
  1  5  1  0
  1  2  1  0
  1 17  1  0
  1 18  1  0
  2  3  1  0
  2 19  1  0
  2 20  1  0
  3  8  1  0
  3  4  1  0
  3 21  1  1
  4 14  1  0
  4  5  1  0
  4 22  1  1
  5  6  1  0
  5 23  1  6
  6 11  1  0
  6  7  1  0
  6 24  1  6
  7 14  1  0
  7  8  1  0
  7 25  1  1
  8  9  1  0
  8 26  1  1
  9 15  1  0
  9 10  1  0
  9 27  1  6
 10 16  1  0
 10 11  1  0
 10 28  1  6
 11 12  1  0
 11 29  1  6
 12 16  1  0
 12 13  1  0
 12 30  1  6
 13 14  1  0
 13 15  1  0
 13 31  1  1
 14 32  1  1
 15 16  1  0
 15 33  1  6
 16 34  1  6
M  END
>  <i_m_ct_stereo_status>  (144) 
1

>  <s_m_source_file>  (144) 
/var/tmp/pbs.5076255.sched01/tmp2obefojl/44ql_32cm2.sdf

>  <i_m_source_file_index>  (144) 
15

>  <i_lp_mmshare_version>  (144) 
48012

>  <i_f3d_flags>  (144) 
2

>  <s_epik_input>  (144) 
W0NIMl0xW0NIMl1bQ0BASF0oW0NASF0yW0NAQEhdMTMpW0NAQEhdNFtDSF01W0NASF0zW0NASF02W0NASF03W0NAQEhdNFtDQEhdOFtDQEBIXShbQ0BASF0yNSlbQ0BASF02W0NAQEhdNzg=

>  <s_epik_cmdline>  (144) 
J2VwaWtfcHl0aG9uJywgJy1waHQnLCAnMi4wJywgJy1waCcsICc3LjAnLCAnLXRuJywgJzgnLCAnLW1hJywgJzIwMCcsICctaW1hZScsICc8aW5maWxlLm1hZT4nLCAnLW9tYWUnLCAnPG91dGZpbGUubWFlPic=

>  <r_lp_tautomer_probability>  (144) 
1

>  <r_epik_Ionization_Penalty>  (144) 
0

>  <r_epik_Ionization_Penalty_Charging>  (144) 
0

>  <r_epik_Ionization_Penalty_Neutral>  (144) 
0

>  <r_epik_State_Penalty>  (144) 
-0

>  <r_epik_Charging_Adjusted_Penalty>  (144) 
0

>  <i_epik_Tot_Q>  (144) 
0

>  <i_epik_Tot_abs_Q>  (144) 
0

>  <s_lp_Force_Field>  (144) 
OPLS3e

>  <r_lp_Energy>  (144) 
390.763

>  <b_lp_Chiralities_Consistent>  (144) 
0

>  <s_lp_Variant>  (144) 
37:0-1

>  <s_i_glide_gridfile>  (144) 
pfpi4k_grid

>  <i_i_glide_lignum>  (144) 
15

>  <i_i_glide_rotatable_bonds>  (144) 
0

>  <r_i_docking_score>  (144) 
-3.72048

>  <r_i_glide_ligand_efficiency>  (144) 
-0.23253

>  <r_i_glide_ligand_efficiency_sa>  (144) 
-0.585939

>  <r_i_glide_ligand_efficiency_ln>  (144) 
-0.986188

>  <r_i_glide_gscore>  (144) 
-3.72048

>  <r_i_glide_lipo>  (144) 
-0.900485

>  <r_i_glide_hbond>  (144) 
0

>  <r_i_glide_metal>  (144) 
-0

>  <r_i_glide_rewards>  (144) 
-1.97513

>  <r_i_glide_evdw>  (144) 
-17.6005

>  <r_i_glide_ecoul>  (144) 
0.234398

>  <r_i_glide_erotb>  (144) 
0

>  <r_i_glide_esite>  (144) 
0

>  <r_i_glide_emodel>  (144) 
-20.922

>  <r_i_glide_energy>  (144) 
-17.3661

>  <r_i_glide_einternal>  (144) 
0

>  <r_i_glide_intrahb_reward>  (144) 
-0

>  <i_i_glide_confnum>  (144) 
1

>  <i_i_glide_posenum>  (144) 
21

>  <r_i_glide_eff_state_penalty>  (144) 
0

>  <ligand_id>  (144) 
37

>  <original_smiles>  (144) 
C1CC2C3C1C1C4C2C2C5C1C1C(C34)C2C51

>  <smiles>  (144) 
[H]C1([H])C([H])([H])C2([H])C3([H])C1([H])C1([H])C4([H])C2([H])C2([H])C5([H])C1([H])C1([H])C([H])(C34[H])C2([H])C51[H]

$$$$
37:0:2
     RDKit          3D

 34 41  0  0  1  0  0  0  0  0999 V2000
    5.3615   -2.9709   -2.9155 C   0  0  0  0  0  0  0  0  0  0  0  0
    3.8216   -3.1000   -3.2114 C   0  0  0  0  0  0  0  0  0  0  0  0
    3.0759   -2.5475   -1.9432 C   0  0  2  0  0  0  0  0  0  0  0  0
    4.2692   -1.5500   -1.5083 C   0  0  2  0  0  0  0  0  0  0  0  0
    5.5900   -2.3873   -1.4815 C   0  0  1  0  0  0  0  0  0  0  0  0
    5.4676   -3.5503   -0.3624 C   0  0  2  0  0  0  0  0  0  0  0  0
    4.0422   -3.2106   -0.4787 C   0  0  1  0  0  0  0  0  0  0  0  0
    2.7398   -3.6648   -0.6380 C   0  0  1  0  0  0  0  0  0  0  0  0
    2.7310   -3.6084    1.0153 C   0  0  1  0  0  0  0  0  0  0  0  0
    4.1031   -4.0468    1.7852 C   0  0  1  0  0  0  0  0  0  0  0  0
    5.4807   -3.4955    1.1688 C   0  0  2  0  0  0  0  0  0  0  0  0
    5.1294   -2.1615    1.8465 C   0  0  1  0  0  0  0  0  0  0  0  0
    4.0635   -1.3249    1.1298 C   0  0  1  0  0  0  0  0  0  0  0  0
    3.6844   -1.6610   -0.2566 C   0  0  1  0  0  0  0  0  0  0  0  0
    3.0027   -2.2423    1.8039 C   0  0  2  0  0  0  0  0  0  0  0  0
    4.0561   -2.8467    2.6940 C   0  0  1  0  0  0  0  0  0  0  0  0
    5.6971   -2.2558   -3.6336 H   0  0  0  0  0  0  0  0  0  0  0  0
    5.9088   -3.8978   -3.0815 H   0  0  0  0  0  0  0  0  0  0  0  0
    3.5619   -2.5111   -4.0940 H   0  0  0  0  0  0  0  0  0  0  0  0
    3.5471   -4.1330   -3.4368 H   0  0  0  0  0  0  0  0  0  0  0  0
    2.1704   -2.0320   -2.2935 H   0  0  0  0  0  0  0  0  0  0  0  0
    4.2819   -0.5663   -1.9868 H   0  0  0  0  0  0  0  0  0  0  0  0
    6.4999   -1.7940   -1.3852 H   0  0  0  0  0  0  0  0  0  0  0  0
    5.8774   -4.5012   -0.7207 H   0  0  0  0  0  0  0  0  0  0  0  0
    4.1682   -4.0585   -1.1808 H   0  0  0  0  0  0  0  0  0  0  0  0
    2.4798   -4.6569   -1.0089 H   0  0  0  0  0  0  0  0  0  0  0  0
    1.8932   -4.1337    1.4756 H   0  0  0  0  0  0  0  0  0  0  0  0
    4.1245   -5.0359    2.2874 H   0  0  0  0  0  0  0  0  0  0  0  0
    6.3406   -3.9557    1.6579 H   0  0  0  0  0  0  0  0  0  0  0  0
    5.9174   -1.6365    2.4154 H   0  0  0  0  0  0  0  0  0  0  0  0
    3.9895   -0.2927    1.4753 H   0  0  0  0  0  0  0  0  0  0  0  0
    2.6596   -1.2715   -0.2987 H   0  0  0  0  0  0  0  0  0  0  0  0
    2.1416   -1.7651    2.3032 H   0  0  0  0  0  0  0  0  0  0  0  0
    4.0140   -2.8773    3.7795 H   0  0  0  0  0  0  0  0  0  0  0  0
  1  5  1  0
  1  2  1  0
  1 17  1  0
  1 18  1  0
  2  3  1  0
  2 19  1  0
  2 20  1  0
  3  8  1  0
  3  4  1  0
  3 21  1  6
  4 14  1  0
  4  5  1  0
  4 22  1  6
  5  6  1  0
  5 23  1  6
  6 11  1  0
  6  7  1  0
  6 24  1  6
  7 14  1  0
  7  8  1  0
  7 25  1  6
  8  9  1  0
  8 26  1  6
  9 15  1  0
  9 10  1  0
  9 27  1  1
 10 16  1  0
 10 11  1  0
 10 28  1  1
 11 12  1  0
 11 29  1  1
 12 16  1  0
 12 13  1  0
 12 30  1  1
 13 14  1  0
 13 15  1  0
 13 31  1  6
 14 32  1  6
 15 16  1  0
 15 33  1  1
 16 34  1  1
M  END
>  <i_m_ct_stereo_status>  (145) 
1

>  <s_m_source_file>  (145) 
/var/tmp/pbs.5076255.sched01/tmp2obefojl/44ql_32cm2.sdf

>  <i_m_source_file_index>  (145) 
15

>  <i_lp_mmshare_version>  (145) 
48012

>  <i_f3d_flags>  (145) 
2

>  <s_epik_input>  (145) 
W0NIMl0xW0NIMl1bQ0BASF0oW0NASF0yW0NAQEhdMTMpW0NAQEhdNFtDSF01W0NASF0zW0NASF02W0NASF03W0NAQEhdNFtDQEhdOFtDQEBIXShbQ0BASF0yNSlbQ0BASF02W0NAQEhdNzg=

>  <s_epik_cmdline>  (145) 
J2VwaWtfcHl0aG9uJywgJy1waHQnLCAnMi4wJywgJy1waCcsICc3LjAnLCAnLXRuJywgJzgnLCAnLW1hJywgJzIwMCcsICctaW1hZScsICc8aW5maWxlLm1hZT4nLCAnLW9tYWUnLCAnPG91dGZpbGUubWFlPic=

>  <r_lp_tautomer_probability>  (145) 
1

>  <r_epik_Ionization_Penalty>  (145) 
0

>  <r_epik_Ionization_Penalty_Charging>  (145) 
0

>  <r_epik_Ionization_Penalty_Neutral>  (145) 
0

>  <r_epik_State_Penalty>  (145) 
-0

>  <r_epik_Charging_Adjusted_Penalty>  (145) 
0

>  <i_epik_Tot_Q>  (145) 
0

>  <i_epik_Tot_abs_Q>  (145) 
0

>  <s_lp_Force_Field>  (145) 
OPLS3e

>  <r_lp_Energy>  (145) 
390.763

>  <b_lp_Chiralities_Consistent>  (145) 
0

>  <s_lp_Variant>  (145) 
37:0-1

>  <s_i_glide_gridfile>  (145) 
pfpi4k_grid

>  <i_i_glide_lignum>  (145) 
15

>  <i_i_glide_rotatable_bonds>  (145) 
0

>  <r_i_docking_score>  (145) 
-3.36213

>  <r_i_glide_ligand_efficiency>  (145) 
-0.210133

>  <r_i_glide_ligand_efficiency_sa>  (145) 
-0.529502

>  <r_i_glide_ligand_efficiency_ln>  (145) 
-0.891199

>  <r_i_glide_gscore>  (145) 
-3.36213

>  <r_i_glide_lipo>  (145) 
-0.476611

>  <r_i_glide_hbond>  (145) 
0

>  <r_i_glide_metal>  (145) 
-0

>  <r_i_glide_rewards>  (145) 
-1.97513

>  <r_i_glide_evdw>  (145) 
-16.6674

>  <r_i_glide_ecoul>  (145) 
-0.513462

>  <r_i_glide_erotb>  (145) 
0

>  <r_i_glide_esite>  (145) 
0

>  <r_i_glide_emodel>  (145) 
-20.6424

>  <r_i_glide_energy>  (145) 
-17.1808

>  <r_i_glide_einternal>  (145) 
0

>  <r_i_glide_intrahb_reward>  (145) 
-0

>  <i_i_glide_confnum>  (145) 
1

>  <i_i_glide_posenum>  (145) 
3

>  <r_i_glide_eff_state_penalty>  (145) 
0

>  <ligand_id>  (145) 
37

>  <original_smiles>  (145) 
C1CC2C3C1C1C4C2C2C5C1C1C(C34)C2C51

>  <smiles>  (145) 
[H]C1([H])C([H])([H])C2([H])C3([H])C1([H])C1([H])C4([H])C2([H])C2([H])C5([H])C1([H])C1([H])C([H])(C34[H])C2([H])C51[H]

$$$$
38:0:0
     RDKit          3D

 86 90  0  0  1  0  0  0  0  0999 V2000
    5.4583   -1.7653    8.5092 C   0  0  0  0  0  0  0  0  0  0  0  0
    5.5904   -1.5451    6.9829 C   0  0  2  0  0  0  0  0  0  0  0  0
    4.7459   -0.3437    6.4975 C   0  0  0  0  0  0  0  0  0  0  0  0
    3.2168   -0.6278    6.5056 C   0  0  1  0  0  0  0  0  0  0  0  0
    2.4251    0.6161    6.1024 C   0  0  0  0  0  0  0  0  0  0  0  0
    1.7651    1.3474    7.0211 C   0  0  0  0  0  0  0  0  0  0  0  0
    0.9610    2.5912    6.7305 C   0  0  0  0  0  0  0  0  0  0  0  0
    0.5608    2.7631    5.2457 C   0  0  2  0  0  0  0  0  0  0  0  0
   -0.9110    2.3125    4.9071 C   0  0  0  0  0  0  0  0  0  0  0  0
   -1.1901    0.8393    5.2739 C   0  0  0  0  0  0  0  0  0  0  0  0
   -1.9307    3.1530    5.7235 C   0  0  0  0  0  0  0  0  0  0  0  0
   -1.2137    2.5314    3.3938 C   0  0  1  0  0  0  0  0  0  0  0  0
   -1.3519    3.9081    3.0703 O   0  0  0  0  0  0  0  0  0  0  0  0
   -0.1383    1.9139    2.4850 C   0  0  0  0  0  0  0  0  0  0  0  0
    1.2620    2.4678    2.7926 C   0  0  0  0  0  0  0  0  0  0  0  0
    1.7264    2.3429    4.2687 C   0  0  1  0  0  0  0  0  0  0  0  0
    2.8367    3.4223    4.4178 C   0  0  0  0  0  0  0  0  0  0  0  0
    2.4378    0.9692    4.6127 C   0  0  2  0  0  0  0  0  0  0  0  0
    2.1192   -0.2827    3.7496 C   0  0  0  0  0  0  0  0  0  0  0  0
    2.9318   -1.5299    4.1618 C   0  0  0  0  0  0  0  0  0  0  0  0
    2.8001   -1.8836    5.6703 C   0  0  2  0  0  0  0  0  0  0  0  0
    1.3266   -2.2445    6.0108 C   0  0  0  0  0  0  0  0  0  0  0  0
    3.7185   -3.0654    6.1368 C   0  0  1  0  0  0  0  0  0  0  0  0
    3.6802   -4.4404    5.4992 C   0  0  0  0  0  0  0  0  0  0  0  0
    2.8439   -4.9460    4.5689 C   0  0  0  0  0  0  0  0  0  0  0  0
    3.0221   -6.2115    4.0696 O   0  0  0  0  0  0  0  0  0  0  0  0
    1.8773   -6.9234    3.8331 C   0  0  0  0  0  0  0  0  0  0  0  0
    1.9288   -8.1179    3.3979 N   0  0  0  0  0  0  0  0  0  0  0  0
    0.6705   -8.8193    3.2505 C   0  0  0  0  0  0  0  0  0  0  0  0
    0.9296  -10.3141    2.9556 C   0  0  0  0  0  0  0  0  0  0  0  0
    1.4578  -11.1443    4.1418 C   0  0  0  0  0  0  0  0  0  0  0  0
    0.6188  -10.9583    5.3334 N   0  0  0  0  0  0  0  0  0  0  0  0
    4.8636   -5.1834    6.0822 C   0  0  0  0  0  0  0  0  0  0  0  0
    5.9313   -4.1028    6.3482 C   0  0  0  0  0  0  0  0  0  0  0  0
    5.2191   -2.7571    6.1080 C   0  0  2  0  0  0  0  0  0  0  0  0
    4.4503   -2.0550    8.7993 H   0  0  0  0  0  0  0  0  0  0  0  0
    5.7000   -0.8441    9.0386 H   0  0  0  0  0  0  0  0  0  0  0  0
    6.1457   -2.5315    8.8657 H   0  0  0  0  0  0  0  0  0  0  0  0
    6.6409   -1.3077    6.7956 H   0  0  0  0  0  0  0  0  0  0  0  0
    4.9692    0.5339    7.1039 H   0  0  0  0  0  0  0  0  0  0  0  0
    5.0669   -0.0839    5.4893 H   0  0  0  0  0  0  0  0  0  0  0  0
    2.9450   -0.8326    7.5407 H   0  0  0  0  0  0  0  0  0  0  0  0
    1.8184    1.0740    8.0655 H   0  0  0  0  0  0  0  0  0  0  0  0
    0.0968    2.5859    7.3881 H   0  0  0  0  0  0  0  0  0  0  0  0
    1.5691    3.4367    7.0453 H   0  0  0  0  0  0  0  0  0  0  0  0
    0.4926    3.8459    5.1260 H   0  0  0  0  0  0  0  0  0  0  0  0
   -2.2474    0.6047    5.1535 H   0  0  0  0  0  0  0  0  0  0  0  0
   -0.9159    0.6135    6.3038 H   0  0  0  0  0  0  0  0  0  0  0  0
   -0.6594    0.1533    4.6315 H   0  0  0  0  0  0  0  0  0  0  0  0
   -2.9442    3.0252    5.3400 H   0  0  0  0  0  0  0  0  0  0  0  0
   -1.6969    4.2164    5.6723 H   0  0  0  0  0  0  0  0  0  0  0  0
   -1.9535    2.8761    6.7761 H   0  0  0  0  0  0  0  0  0  0  0  0
   -2.1709    2.0673    3.1477 H   0  0  0  0  0  0  0  0  0  0  0  0
   -0.8709    4.0797    2.2578 H   0  0  0  0  0  0  0  0  0  0  0  0
   -0.1524    0.8304    2.5609 H   0  0  0  0  0  0  0  0  0  0  0  0
   -0.3756    2.1124    1.4398 H   0  0  0  0  0  0  0  0  0  0  0  0
    1.9855    2.0085    2.1242 H   0  0  0  0  0  0  0  0  0  0  0  0
    1.2669    3.5241    2.5087 H   0  0  0  0  0  0  0  0  0  0  0  0
    3.6409    3.2698    3.6943 H   0  0  0  0  0  0  0  0  0  0  0  0
    3.2879    3.4140    5.4122 H   0  0  0  0  0  0  0  0  0  0  0  0
    2.4509    4.4273    4.2455 H   0  0  0  0  0  0  0  0  0  0  0  0
    3.4953    1.1274    4.4049 H   0  0  0  0  0  0  0  0  0  0  0  0
    1.0689   -0.5425    3.7899 H   0  0  0  0  0  0  0  0  0  0  0  0
    2.3403   -0.0777    2.7035 H   0  0  0  0  0  0  0  0  0  0  0  0
    2.6227   -2.3618    3.5343 H   0  0  0  0  0  0  0  0  0  0  0  0
    3.9740   -1.3451    3.9095 H   0  0  0  0  0  0  0  0  0  0  0  0
    0.9365   -3.0414    5.3816 H   0  0  0  0  0  0  0  0  0  0  0  0
    0.6617   -1.3936    5.8861 H   0  0  0  0  0  0  0  0  0  0  0  0
    1.2292   -2.5640    7.0490 H   0  0  0  0  0  0  0  0  0  0  0  0
    3.4443   -3.2622    7.1776 H   0  0  0  0  0  0  0  0  0  0  0  0
    2.0395   -4.4014    4.0954 H   0  0  0  0  0  0  0  0  0  0  0  0
    0.9317   -6.4261    4.0614 H   0  0  0  0  0  0  0  0  0  0  0  0
    0.0355   -8.7105    4.1351 H   0  0  0  0  0  0  0  0  0  0  0  0
    0.0978   -8.3907    2.4270 H   0  0  0  0  0  0  0  0  0  0  0  0
    0.0171  -10.7759    2.5843 H   0  0  0  0  0  0  0  0  0  0  0  0
    1.6483  -10.3991    2.1426 H   0  0  0  0  0  0  0  0  0  0  0  0
    1.4789  -12.2055    3.8808 H   0  0  0  0  0  0  0  0  0  0  0  0
    2.4819  -10.8565    4.3817 H   0  0  0  0  0  0  0  0  0  0  0  0
    0.9591  -11.4942    6.1397 H   0  0  0  0  0  0  0  0  0  0  0  0
   -0.3535  -11.1863    5.1694 H   0  0  0  0  0  0  0  0  0  0  0  0
    4.5452   -5.6053    7.0347 H   0  0  0  0  0  0  0  0  0  0  0  0
    5.2088   -6.0018    5.4517 H   0  0  0  0  0  0  0  0  0  0  0  0
    6.3314   -4.2021    7.3572 H   0  0  0  0  0  0  0  0  0  0  0  0
    6.7738   -4.2093    5.6636 H   0  0  0  0  0  0  0  0  0  0  0  0
    5.4685   -2.4859    5.0845 H   0  0  0  0  0  0  0  0  0  0  0  0
    0.6580   -9.9822    5.5806 H   0  0  0  0  0  0  0  0  0  0  0  0
  1  2  1  0
  1 36  1  0
  1 37  1  0
  1 38  1  0
  2 35  1  0
  2  3  1  0
  2 39  1  1
  3  4  1  0
  3 40  1  0
  3 41  1  0
  4 21  1  0
  4  5  1  0
  4 42  1  1
  5 18  1  0
  5  6  2  0
  6  7  1  0
  6 43  1  0
  7  8  1  0
  7 44  1  0
  7 45  1  0
  8 16  1  0
  8  9  1  0
  8 46  1  1
  9 10  1  0
  9 11  1  0
  9 12  1  0
 10 47  1  0
 10 48  1  0
 10 49  1  0
 11 50  1  0
 11 51  1  0
 11 52  1  0
 12 13  1  0
 12 14  1  0
 12 53  1  6
 13 54  1  0
 14 15  1  0
 14 55  1  0
 14 56  1  0
 15 16  1  0
 15 57  1  0
 15 58  1  0
 16 17  1  6
 16 18  1  0
 17 59  1  0
 17 60  1  0
 17 61  1  0
 18 19  1  0
 18 62  1  6
 19 20  1  0
 19 63  1  0
 19 64  1  0
 20 21  1  0
 20 65  1  0
 20 66  1  0
 21 22  1  6
 21 23  1  0
 22 67  1  0
 22 68  1  0
 22 69  1  0
 23 35  1  0
 23 24  1  0
 23 70  1  1
 24 25  2  3
 24 33  1  0
 25 26  1  0
 25 71  1  0
 26 27  1  0
 27 28  2  3
 27 72  1  0
 28 29  1  0
 29 30  1  0
 29 73  1  0
 29 74  1  0
 30 31  1  0
 30 75  1  0
 30 76  1  0
 31 32  1  0
 31 77  1  0
 31 78  1  0
 32 79  1  0
 32 80  1  0
 32 86  1  0
 33 34  1  0
 33 81  1  0
 33 82  1  0
 34 35  1  0
 34 83  1  0
 34 84  1  0
 35 85  1  6
M  CHG  1  32   1
M  END
>  <i_m_ct_stereo_status>  (146) 
1

>  <s_m_source_file>  (146) 
/var/tmp/pbs.5076255.sched01/tmp2obefojl/44ql_32cm2.sdf

>  <i_m_source_file_index>  (146) 
16

>  <i_lp_mmshare_version>  (146) 
48012

>  <i_f3d_flags>  (146) 
0

>  <s_epik_input>  (146) 
W05IMl1bQ0gyXVtDSDJdW0NIMl1cTj1bQ0hdXE9cW0NIXT1DXDFbQ0gyXVtDSDJdW0NASF0oW0NASF0oW0NIM10pW0NIMl0yKVtDQEhdMVtDQF0oW0NIM10pKFtDSDJdW0NIMl1bQ0BIXTM0KVtDQEBIXTJDMz1bQ0hdW0NIMl1bQ0BASF0oW0NAQF00NVtDSDNdKUMoW0NIM10pKFtDSDNdKVtDQEBIXShbT0hdKVtDSDJdW0NIMl01

>  <s_epik_cmdline>  (146) 
J2VwaWtfcHl0aG9uJywgJy1waHQnLCAnMi4wJywgJy1waCcsICc3LjAnLCAnLXRuJywgJzgnLCAnLW1hJywgJzIwMCcsICctaW1hZScsICc8aW5maWxlLm1hZT4nLCAnLW9tYWUnLCAnPG91dGZpbGUubWFlPic=

>  <r_epik_Ionization_Penalty>  (146) 
0.037819

>  <r_epik_Ionization_Penalty_Charging>  (146) 
0.000965727

>  <r_epik_Ionization_Penalty_Neutral>  (146) 
0.0368532

>  <r_epik_State_Penalty>  (146) 
0.0503734

>  <r_epik_Charging_Adjusted_Penalty>  (146) 
0.0513391

>  <i_epik_Tot_Q>  (146) 
1

>  <i_epik_Tot_abs_Q>  (146) 
1

>  <s_epik_Chemistry_Notes>  (146) 
This compound has an imine and may undergo hydrolysis.

>  <s_lp_Force_Field>  (146) 
OPLS3e

>  <r_lp_Energy>  (146) 
66.9987

>  <b_lp_Chiralities_Consistent>  (146) 
1

>  <s_lp_Variant>  (146) 
38:0-1

>  <s_i_glide_gridfile>  (146) 
pfpi4k_grid

>  <i_i_glide_lignum>  (146) 
16

>  <i_i_glide_rotatable_bonds>  (146) 
6

>  <r_i_docking_score>  (146) 
-3.41424

>  <r_i_glide_ligand_efficiency>  (146) 
-0.0975497

>  <r_i_glide_ligand_efficiency_sa>  (146) 
-0.319091

>  <r_i_glide_ligand_efficiency_ln>  (146) 
-0.749501

>  <r_i_glide_gscore>  (146) 
-3.41424

>  <r_i_glide_lipo>  (146) 
-0.258537

>  <r_i_glide_hbond>  (146) 
-0.56

>  <r_i_glide_metal>  (146) 
-0

>  <r_i_glide_rewards>  (146) 
-0.110803

>  <r_i_glide_evdw>  (146) 
-18.6677

>  <r_i_glide_ecoul>  (146) 
-11.9652

>  <r_i_glide_erotb>  (146) 
0.34704

>  <r_i_glide_esite>  (146) 
-0.103769

>  <r_i_glide_emodel>  (146) 
-36.9503

>  <r_i_glide_energy>  (146) 
-30.633

>  <r_i_glide_einternal>  (146) 
7.50111

>  <r_i_glide_intrahb_reward>  (146) 
-0

>  <i_i_glide_confnum>  (146) 
5

>  <i_i_glide_posenum>  (146) 
40

>  <r_i_glide_eff_state_penalty>  (146) 
0

>  <ligand_id>  (146) 
38

>  <original_smiles>  (146) 
CC1CC2C3=CCC4C(C)(C)C(O)CCC4(C)C3CCC2(C)C2C(=COC=NCCCN)CCC12

>  <smiles>  (146) 
[H]OC1([H])C([H])([H])C([H])([H])C2(C([H])([H])[H])C3([H])C(=C([H])C([H])([H])C2([H])C1(C([H])([H])[H])C([H])([H])[H])C1([H])C([H])([H])C([H])(C([H])([H])[H])C2([H])C([H])([H])C([H])([H])C(=C([H])OC([H])=NC([H])([H])C([H])([H])C([H])([H])[N+]([H])([H])[H])C2([H])C1(C([H])([H])[H])C([H])([H])C3([H])[H]

$$$$
38:0:1
     RDKit          3D

 86 90  0  0  1  0  0  0  0  0999 V2000
    7.3249   -5.3938    0.3623 C   0  0  0  0  0  0  0  0  0  0  0  0
    6.9381   -4.7995    1.7283 C   0  0  2  0  0  0  0  0  0  0  0  0
    6.0549   -5.7690    2.5400 C   0  0  0  0  0  0  0  0  0  0  0  0
    4.6060   -5.8953    1.9817 C   0  0  1  0  0  0  0  0  0  0  0  0
    3.8031   -6.9281    2.7732 C   0  0  0  0  0  0  0  0  0  0  0  0
    3.5452   -8.1447    2.2548 C   0  0  0  0  0  0  0  0  0  0  0  0
    2.7674   -9.2378    2.9518 C   0  0  0  0  0  0  0  0  0  0  0  0
    1.8922   -8.7457    4.1281 C   0  0  2  0  0  0  0  0  0  0  0  0
    0.3759   -8.5408    3.7705 C   0  0  0  0  0  0  0  0  0  0  0  0
    0.1430   -7.5535    2.6055 C   0  0  0  0  0  0  0  0  0  0  0  0
   -0.2479   -9.8845    3.2975 C   0  0  0  0  0  0  0  0  0  0  0  0
   -0.4122   -8.0500    5.0121 C   0  0  1  0  0  0  0  0  0  0  0  0
   -0.5117   -9.0538    5.9979 O   0  0  0  0  0  0  0  0  0  0  0  0
    0.2355   -6.8340    5.6936 C   0  0  0  0  0  0  0  0  0  0  0  0
    1.6835   -7.1354    6.1176 C   0  0  0  0  0  0  0  0  0  0  0  0
    2.6208   -7.6416    4.9876 C   0  0  1  0  0  0  0  0  0  0  0  0
    3.7759   -8.3630    5.7414 C   0  0  0  0  0  0  0  0  0  0  0  0
    3.3233   -6.4920    4.1544 C   0  0  2  0  0  0  0  0  0  0  0  0
    2.6537   -5.0926    4.0916 C   0  0  0  0  0  0  0  0  0  0  0  0
    3.4819   -4.0562    3.2967 C   0  0  0  0  0  0  0  0  0  0  0  0
    3.8609   -4.5291    1.8664 C   0  0  2  0  0  0  0  0  0  0  0  0
    2.5752   -4.7406    1.0165 C   0  0  0  0  0  0  0  0  0  0  0  0
    4.7959   -3.5495    1.0830 C   0  0  1  0  0  0  0  0  0  0  0  0
    4.4648   -2.0896    0.8400 C   0  0  0  0  0  0  0  0  0  0  0  0
    3.3480   -1.3978    1.1771 C   0  0  0  0  0  0  0  0  0  0  0  0
    3.2799   -0.0272    0.9836 O   0  0  0  0  0  0  0  0  0  0  0  0
    2.3109    0.5915    1.7216 C   0  0  0  0  0  0  0  0  0  0  0  0
    2.6135    1.3286    2.7148 N   0  0  0  0  0  0  0  0  0  0  0  0
    1.5636    2.0360    3.4151 C   0  0  0  0  0  0  0  0  0  0  0  0
    1.7269    3.5483    3.1990 C   0  0  0  0  0  0  0  0  0  0  0  0
    0.5318    4.3774    3.7105 C   0  0  0  0  0  0  0  0  0  0  0  0
    0.6281    5.7488    3.2759 N   0  0  0  0  0  0  0  0  0  0  0  0
    5.7176   -1.4721    0.2760 C   0  0  0  0  0  0  0  0  0  0  0  0
    6.8770   -2.2539    0.9194 C   0  0  0  0  0  0  0  0  0  0  0  0
    6.2123   -3.4409    1.6615 C   0  0  2  0  0  0  0  0  0  0  0  0
    6.4507   -5.5237   -0.2763 H   0  0  0  0  0  0  0  0  0  0  0  0
    7.7915   -6.3741    0.4946 H   0  0  0  0  0  0  0  0  0  0  0  0
    8.0464   -4.7623   -0.1568 H   0  0  0  0  0  0  0  0  0  0  0  0
    7.8854   -4.6725    2.2514 H   0  0  0  0  0  0  0  0  0  0  0  0
    6.5269   -6.7510    2.5859 H   0  0  0  0  0  0  0  0  0  0  0  0
    6.0254   -5.4181    3.5721 H   0  0  0  0  0  0  0  0  0  0  0  0
    4.6988   -6.2949    0.9712 H   0  0  0  0  0  0  0  0  0  0  0  0
    3.9358   -8.4186    1.2863 H   0  0  0  0  0  0  0  0  0  0  0  0
    2.1832   -9.7600    2.1955 H   0  0  0  0  0  0  0  0  0  0  0  0
    3.4960   -9.9657    3.3133 H   0  0  0  0  0  0  0  0  0  0  0  0
    1.8488   -9.6130    4.7876 H   0  0  0  0  0  0  0  0  0  0  0  0
   -0.9050   -7.5557    2.3018 H   0  0  0  0  0  0  0  0  0  0  0  0
    0.7388   -7.8045    1.7278 H   0  0  0  0  0  0  0  0  0  0  0  0
    0.3783   -6.5354    2.8914 H   0  0  0  0  0  0  0  0  0  0  0  0
   -1.3369   -9.8236    3.2652 H   0  0  0  0  0  0  0  0  0  0  0  0
    0.0029  -10.7032    3.9776 H   0  0  0  0  0  0  0  0  0  0  0  0
    0.0797  -10.1826    2.3017 H   0  0  0  0  0  0  0  0  0  0  0  0
   -1.4298   -7.7837    4.7167 H   0  0  0  0  0  0  0  0  0  0  0  0
   -1.0877   -9.7497    5.6634 H   0  0  0  0  0  0  0  0  0  0  0  0
    0.1838   -5.9615    5.0528 H   0  0  0  0  0  0  0  0  0  0  0  0
   -0.3390   -6.5670    6.5811 H   0  0  0  0  0  0  0  0  0  0  0  0
    2.1084   -6.2544    6.6014 H   0  0  0  0  0  0  0  0  0  0  0  0
    1.6392   -7.8834    6.9100 H   0  0  0  0  0  0  0  0  0  0  0  0
    4.2757   -7.6948    6.4476 H   0  0  0  0  0  0  0  0  0  0  0  0
    4.5395   -8.7402    5.0569 H   0  0  0  0  0  0  0  0  0  0  0  0
    3.4156   -9.2169    6.3207 H   0  0  0  0  0  0  0  0  0  0  0  0
    4.2520   -6.2750    4.6827 H   0  0  0  0  0  0  0  0  0  0  0  0
    1.6668   -5.1368    3.6463 H   0  0  0  0  0  0  0  0  0  0  0  0
    2.5132   -4.6987    5.0967 H   0  0  0  0  0  0  0  0  0  0  0  0
    2.9267   -3.1230    3.2747 H   0  0  0  0  0  0  0  0  0  0  0  0
    4.3823   -3.8427    3.8714 H   0  0  0  0  0  0  0  0  0  0  0  0
    1.9565   -3.8466    0.9940 H   0  0  0  0  0  0  0  0  0  0  0  0
    1.9556   -5.5504    1.4032 H   0  0  0  0  0  0  0  0  0  0  0  0
    2.8163   -5.0028   -0.0156 H   0  0  0  0  0  0  0  0  0  0  0  0
    4.8894   -3.9601    0.0721 H   0  0  0  0  0  0  0  0  0  0  0  0
    2.4591   -1.8293    1.6070 H   0  0  0  0  0  0  0  0  0  0  0  0
    1.2816    0.4799    1.3495 H   0  0  0  0  0  0  0  0  0  0  0  0
    0.5526    1.7264    3.1383 H   0  0  0  0  0  0  0  0  0  0  0  0
    1.6668    1.8035    4.4746 H   0  0  0  0  0  0  0  0  0  0  0  0
    2.6426    3.8985    3.6794 H   0  0  0  0  0  0  0  0  0  0  0  0
    1.8499    3.7454    2.1297 H   0  0  0  0  0  0  0  0  0  0  0  0
   -0.4014    3.9516    3.3273 H   0  0  0  0  0  0  0  0  0  0  0  0
    0.4794    4.3339    4.8037 H   0  0  0  0  0  0  0  0  0  0  0  0
   -0.1493    6.3232    3.5680 H   0  0  0  0  0  0  0  0  0  0  0  0
    0.6219    5.7697    2.2542 H   0  0  0  0  0  0  0  0  0  0  0  0
    5.7250   -1.6599   -0.7982 H   0  0  0  0  0  0  0  0  0  0  0  0
    5.7828   -0.3986    0.4375 H   0  0  0  0  0  0  0  0  0  0  0  0
    7.6061   -2.5747    0.1776 H   0  0  0  0  0  0  0  0  0  0  0  0
    7.3868   -1.5904    1.6136 H   0  0  0  0  0  0  0  0  0  0  0  0
    6.1064   -3.1009    2.6949 H   0  0  0  0  0  0  0  0  0  0  0  0
    1.4780    6.2002    3.5922 H   0  0  0  0  0  0  0  0  0  0  0  0
  1  2  1  0
  1 36  1  0
  1 37  1  0
  1 38  1  0
  2 35  1  0
  2  3  1  0
  2 39  1  1
  3  4  1  0
  3 40  1  0
  3 41  1  0
  4 21  1  0
  4  5  1  0
  4 42  1  6
  5 18  1  0
  5  6  2  0
  6  7  1  0
  6 43  1  0
  7  8  1  0
  7 44  1  0
  7 45  1  0
  8 16  1  0
  8  9  1  0
  8 46  1  1
  9 10  1  0
  9 11  1  0
  9 12  1  0
 10 47  1  0
 10 48  1  0
 10 49  1  0
 11 50  1  0
 11 51  1  0
 11 52  1  0
 12 13  1  0
 12 14  1  0
 12 53  1  6
 13 54  1  0
 14 15  1  0
 14 55  1  0
 14 56  1  0
 15 16  1  0
 15 57  1  0
 15 58  1  0
 16 17  1  1
 16 18  1  0
 17 59  1  0
 17 60  1  0
 17 61  1  0
 18 19  1  0
 18 62  1  1
 19 20  1  0
 19 63  1  0
 19 64  1  0
 20 21  1  0
 20 65  1  0
 20 66  1  0
 21 22  1  6
 21 23  1  0
 22 67  1  0
 22 68  1  0
 22 69  1  0
 23 35  1  0
 23 24  1  0
 23 70  1  6
 24 25  2  3
 24 33  1  0
 25 26  1  0
 25 71  1  0
 26 27  1  0
 27 28  2  3
 27 72  1  0
 28 29  1  0
 29 30  1  0
 29 73  1  0
 29 74  1  0
 30 31  1  0
 30 75  1  0
 30 76  1  0
 31 32  1  0
 31 77  1  0
 31 78  1  0
 32 79  1  0
 32 80  1  0
 32 86  1  0
 33 34  1  0
 33 81  1  0
 33 82  1  0
 34 35  1  0
 34 83  1  0
 34 84  1  0
 35 85  1  1
M  CHG  1  32   1
M  END
>  <i_m_ct_stereo_status>  (147) 
1

>  <s_m_source_file>  (147) 
/var/tmp/pbs.5076255.sched01/tmp2obefojl/44ql_32cm2.sdf

>  <i_m_source_file_index>  (147) 
16

>  <i_lp_mmshare_version>  (147) 
48012

>  <i_f3d_flags>  (147) 
0

>  <s_epik_input>  (147) 
W05IMl1bQ0gyXVtDSDJdW0NIMl1cTj1bQ0hdXE9cW0NIXT1DXDFbQ0gyXVtDSDJdW0NASF0oW0NASF0oW0NIM10pW0NIMl0yKVtDQEhdMVtDQF0oW0NIM10pKFtDSDJdW0NIMl1bQ0BIXTM0KVtDQEBIXTJDMz1bQ0hdW0NIMl1bQ0BASF0oW0NAQF00NVtDSDNdKUMoW0NIM10pKFtDSDNdKVtDQEBIXShbT0hdKVtDSDJdW0NIMl01

>  <s_epik_cmdline>  (147) 
J2VwaWtfcHl0aG9uJywgJy1waHQnLCAnMi4wJywgJy1waCcsICc3LjAnLCAnLXRuJywgJzgnLCAnLW1hJywgJzIwMCcsICctaW1hZScsICc8aW5maWxlLm1hZT4nLCAnLW9tYWUnLCAnPG91dGZpbGUubWFlPic=

>  <r_epik_Ionization_Penalty>  (147) 
0.037819

>  <r_epik_Ionization_Penalty_Charging>  (147) 
0.000965727

>  <r_epik_Ionization_Penalty_Neutral>  (147) 
0.0368532

>  <r_epik_State_Penalty>  (147) 
0.0503734

>  <r_epik_Charging_Adjusted_Penalty>  (147) 
0.0513391

>  <i_epik_Tot_Q>  (147) 
1

>  <i_epik_Tot_abs_Q>  (147) 
1

>  <s_epik_Chemistry_Notes>  (147) 
This compound has an imine and may undergo hydrolysis.

>  <s_lp_Force_Field>  (147) 
OPLS3e

>  <r_lp_Energy>  (147) 
66.9987

>  <b_lp_Chiralities_Consistent>  (147) 
1

>  <s_lp_Variant>  (147) 
38:0-1

>  <s_i_glide_gridfile>  (147) 
pfpi4k_grid

>  <i_i_glide_lignum>  (147) 
16

>  <i_i_glide_rotatable_bonds>  (147) 
6

>  <r_i_docking_score>  (147) 
-2.75482

>  <r_i_glide_ligand_efficiency>  (147) 
-0.0787091

>  <r_i_glide_ligand_efficiency_sa>  (147) 
-0.257463

>  <r_i_glide_ligand_efficiency_ln>  (147) 
-0.604744

>  <r_i_glide_gscore>  (147) 
-2.75482

>  <r_i_glide_lipo>  (147) 
-0.432955

>  <r_i_glide_hbond>  (147) 
-0.275863

>  <r_i_glide_metal>  (147) 
-0

>  <r_i_glide_rewards>  (147) 
-0.110803

>  <r_i_glide_evdw>  (147) 
-22.9968

>  <r_i_glide_ecoul>  (147) 
-6.71445

>  <r_i_glide_erotb>  (147) 
0.34704

>  <r_i_glide_esite>  (147) 
-0.125229

>  <r_i_glide_emodel>  (147) 
-34.9161

>  <r_i_glide_energy>  (147) 
-29.7113

>  <r_i_glide_einternal>  (147) 
5.76473

>  <r_i_glide_intrahb_reward>  (147) 
-0

>  <i_i_glide_confnum>  (147) 
5

>  <i_i_glide_posenum>  (147) 
4

>  <r_i_glide_eff_state_penalty>  (147) 
0

>  <ligand_id>  (147) 
38

>  <original_smiles>  (147) 
CC1CC2C3=CCC4C(C)(C)C(O)CCC4(C)C3CCC2(C)C2C(=COC=NCCCN)CCC12

>  <smiles>  (147) 
[H]OC1([H])C([H])([H])C([H])([H])C2(C([H])([H])[H])C3([H])C(=C([H])C([H])([H])C2([H])C1(C([H])([H])[H])C([H])([H])[H])C1([H])C([H])([H])C([H])(C([H])([H])[H])C2([H])C([H])([H])C([H])([H])C(=C([H])OC([H])=NC([H])([H])C([H])([H])C([H])([H])[N+]([H])([H])[H])C2([H])C1(C([H])([H])[H])C([H])([H])C3([H])[H]

$$$$
38:0:2
     RDKit          3D

 86 90  0  0  1  0  0  0  0  0999 V2000
    1.9327   -6.7994   10.7541 C   0  0  0  0  0  0  0  0  0  0  0  0
    0.8009   -6.9016    9.7055 C   0  0  2  0  0  0  0  0  0  0  0  0
    1.2334   -7.7148    8.4644 C   0  0  0  0  0  0  0  0  0  0  0  0
    2.2498   -6.9610    7.5611 C   0  0  1  0  0  0  0  0  0  0  0  0
    2.7106   -7.8428    6.4023 C   0  0  0  0  0  0  0  0  0  0  0  0
    3.9317   -8.4096    6.4050 C   0  0  0  0  0  0  0  0  0  0  0  0
    4.4824   -9.2991    5.3173 C   0  0  0  0  0  0  0  0  0  0  0  0
    3.7374   -9.1901    3.9663 C   0  0  2  0  0  0  0  0  0  0  0  0
    4.4430   -8.2615    2.9090 C   0  0  0  0  0  0  0  0  0  0  0  0
    4.6640   -6.8178    3.4103 C   0  0  0  0  0  0  0  0  0  0  0  0
    5.8576   -8.8117    2.5668 C   0  0  0  0  0  0  0  0  0  0  0  0
    3.6122   -8.2152    1.5979 C   0  0  1  0  0  0  0  0  0  0  0  0
    3.6994   -9.4218    0.8689 O   0  0  0  0  0  0  0  0  0  0  0  0
    2.1330   -7.8876    1.8301 C   0  0  0  0  0  0  0  0  0  0  0  0
    1.4754   -8.8952    2.7809 C   0  0  0  0  0  0  0  0  0  0  0  0
    2.1770   -9.0702    4.1573 C   0  0  1  0  0  0  0  0  0  0  0  0
    1.6874  -10.4579    4.6655 C   0  0  0  0  0  0  0  0  0  0  0  0
    1.7088   -8.0340    5.2617 C   0  0  2  0  0  0  0  0  0  0  0  0
    1.1194   -6.6682    4.8149 C   0  0  0  0  0  0  0  0  0  0  0  0
    0.6479   -5.7926    5.9957 C   0  0  0  0  0  0  0  0  0  0  0  0
    1.7454   -5.5624    7.0718 C   0  0  2  0  0  0  0  0  0  0  0  0
    2.9466   -4.7876    6.4606 C   0  0  0  0  0  0  0  0  0  0  0  0
    1.2519   -4.7857    8.3406 C   0  0  1  0  0  0  0  0  0  0  0  0
    0.6129   -3.4118    8.2689 C   0  0  0  0  0  0  0  0  0  0  0  0
    0.4314   -2.6032    7.2036 C   0  0  0  0  0  0  0  0  0  0  0  0
   -0.2199   -1.3975    7.3070 O   0  0  0  0  0  0  0  0  0  0  0  0
   -0.4495   -0.7165    6.1342 C   0  0  0  0  0  0  0  0  0  0  0  0
   -1.3135    0.2189    6.0724 N   0  0  0  0  0  0  0  0  0  0  0  0
   -1.4287    0.9244    4.8003 C   0  0  0  0  0  0  0  0  0  0  0  0
   -0.2112    1.8493    4.5419 C   0  0  0  0  0  0  0  0  0  0  0  0
   -0.2684    2.6138    3.2099 C   0  0  0  0  0  0  0  0  0  0  0  0
    1.0418    3.1940    2.8831 N   0  0  0  0  0  0  0  0  0  0  0  0
    0.0901   -3.1476    9.6676 C   0  0  0  0  0  0  0  0  0  0  0  0
   -0.2958   -4.5342   10.2271 C   0  0  0  0  0  0  0  0  0  0  0  0
    0.2448   -5.5538    9.2034 C   0  0  2  0  0  0  0  0  0  0  0  0
    2.7904   -6.2348   10.3907 H   0  0  0  0  0  0  0  0  0  0  0  0
    2.2882   -7.7967   11.0139 H   0  0  0  0  0  0  0  0  0  0  0  0
    1.5907   -6.3327   11.6784 H   0  0  0  0  0  0  0  0  0  0  0  0
   -0.0126   -7.4434   10.1931 H   0  0  0  0  0  0  0  0  0  0  0  0
    1.6453   -8.6741    8.7782 H   0  0  0  0  0  0  0  0  0  0  0  0
    0.3419   -7.9641    7.8906 H   0  0  0  0  0  0  0  0  0  0  0  0
    3.1340   -6.7840    8.1738 H   0  0  0  0  0  0  0  0  0  0  0  0
    4.5893   -8.2713    7.2520 H   0  0  0  0  0  0  0  0  0  0  0  0
    5.5429   -9.0847    5.2159 H   0  0  0  0  0  0  0  0  0  0  0  0
    4.4222  -10.3236    5.6834 H   0  0  0  0  0  0  0  0  0  0  0  0
    3.8790  -10.1761    3.5225 H   0  0  0  0  0  0  0  0  0  0  0  0
    5.2766   -6.2486    2.7059 H   0  0  0  0  0  0  0  0  0  0  0  0
    5.1646   -6.7837    4.3793 H   0  0  0  0  0  0  0  0  0  0  0  0
    3.7349   -6.2723    3.5017 H   0  0  0  0  0  0  0  0  0  0  0  0
    6.2668   -8.3306    1.6766 H   0  0  0  0  0  0  0  0  0  0  0  0
    5.8379   -9.8834    2.3663 H   0  0  0  0  0  0  0  0  0  0  0  0
    6.5784   -8.6460    3.3682 H   0  0  0  0  0  0  0  0  0  0  0  0
    4.0327   -7.4564    0.9395 H   0  0  0  0  0  0  0  0  0  0  0  0
    3.4871  -10.1651    1.4211 H   0  0  0  0  0  0  0  0  0  0  0  0
    2.0215   -6.8703    2.1892 H   0  0  0  0  0  0  0  0  0  0  0  0
    1.5946   -7.9131    0.8803 H   0  0  0  0  0  0  0  0  0  0  0  0
    0.4281   -8.6348    2.9197 H   0  0  0  0  0  0  0  0  0  0  0  0
    1.4496   -9.8594    2.2631 H   0  0  0  0  0  0  0  0  0  0  0  0
    0.5969  -10.5041    4.7289 H   0  0  0  0  0  0  0  0  0  0  0  0
    2.0755  -10.6950    5.6590 H   0  0  0  0  0  0  0  0  0  0  0  0
    1.9942  -11.2676    4.0012 H   0  0  0  0  0  0  0  0  0  0  0  0
    0.8581   -8.5001    5.7562 H   0  0  0  0  0  0  0  0  0  0  0  0
    1.8307   -6.0897    4.2391 H   0  0  0  0  0  0  0  0  0  0  0  0
    0.2605   -6.8286    4.1647 H   0  0  0  0  0  0  0  0  0  0  0  0
    0.2832   -4.8504    5.5965 H   0  0  0  0  0  0  0  0  0  0  0  0
   -0.2186   -6.2732    6.4427 H   0  0  0  0  0  0  0  0  0  0  0  0
    2.6511   -3.8494    5.9951 H   0  0  0  0  0  0  0  0  0  0  0  0
    3.4569   -5.3640    5.6918 H   0  0  0  0  0  0  0  0  0  0  0  0
    3.6994   -4.5552    7.2162 H   0  0  0  0  0  0  0  0  0  0  0  0
    2.1403   -4.6166    8.9527 H   0  0  0  0  0  0  0  0  0  0  0  0
    0.7665   -2.8513    6.2029 H   0  0  0  0  0  0  0  0  0  0  0  0
    0.1634   -0.9865    5.2674 H   0  0  0  0  0  0  0  0  0  0  0  0
   -1.5718    0.2371    3.9586 H   0  0  0  0  0  0  0  0  0  0  0  0
   -2.3323    1.5302    4.8329 H   0  0  0  0  0  0  0  0  0  0  0  0
   -0.1175    2.5688    5.3583 H   0  0  0  0  0  0  0  0  0  0  0  0
    0.7019    1.2518    4.5404 H   0  0  0  0  0  0  0  0  0  0  0  0
   -0.5590    1.9606    2.3898 H   0  0  0  0  0  0  0  0  0  0  0  0
   -1.0004    3.4190    3.2475 H   0  0  0  0  0  0  0  0  0  0  0  0
    0.9075    3.6960    1.9887 H   0  0  0  0  0  0  0  0  0  0  0  0
    1.7311    2.4671    2.7627 H   0  0  0  0  0  0  0  0  0  0  0  0
    0.9187   -2.7530   10.2538 H   0  0  0  0  0  0  0  0  0  0  0  0
   -0.7154   -2.4190    9.7112 H   0  0  0  0  0  0  0  0  0  0  0  0
    0.1225   -4.6721   11.2244 H   0  0  0  0  0  0  0  0  0  0  0  0
   -1.3798   -4.6355   10.3202 H   0  0  0  0  0  0  0  0  0  0  0  0
   -0.6057   -5.7890    8.5665 H   0  0  0  0  0  0  0  0  0  0  0  0
    1.3494    3.8366    3.5869 H   0  0  0  0  0  0  0  0  0  0  0  0
  1  2  1  0
  1 36  1  0
  1 37  1  0
  1 38  1  0
  2 35  1  0
  2  3  1  0
  2 39  1  1
  3  4  1  0
  3 40  1  0
  3 41  1  0
  4 21  1  0
  4  5  1  0
  4 42  1  1
  5 18  1  0
  5  6  2  0
  6  7  1  0
  6 43  1  0
  7  8  1  0
  7 44  1  0
  7 45  1  0
  8 16  1  0
  8  9  1  0
  8 46  1  6
  9 10  1  0
  9 11  1  0
  9 12  1  0
 10 47  1  0
 10 48  1  0
 10 49  1  0
 11 50  1  0
 11 51  1  0
 11 52  1  0
 12 13  1  0
 12 14  1  0
 12 53  1  6
 13 54  1  0
 14 15  1  0
 14 55  1  0
 14 56  1  0
 15 16  1  0
 15 57  1  0
 15 58  1  0
 16 17  1  1
 16 18  1  0
 17 59  1  0
 17 60  1  0
 17 61  1  0
 18 19  1  0
 18 62  1  1
 19 20  1  0
 19 63  1  0
 19 64  1  0
 20 21  1  0
 20 65  1  0
 20 66  1  0
 21 22  1  6
 21 23  1  0
 22 67  1  0
 22 68  1  0
 22 69  1  0
 23 35  1  0
 23 24  1  0
 23 70  1  1
 24 25  2  3
 24 33  1  0
 25 26  1  0
 25 71  1  0
 26 27  1  0
 27 28  2  3
 27 72  1  0
 28 29  1  0
 29 30  1  0
 29 73  1  0
 29 74  1  0
 30 31  1  0
 30 75  1  0
 30 76  1  0
 31 32  1  0
 31 77  1  0
 31 78  1  0
 32 79  1  0
 32 80  1  0
 32 86  1  0
 33 34  1  0
 33 81  1  0
 33 82  1  0
 34 35  1  0
 34 83  1  0
 34 84  1  0
 35 85  1  6
M  CHG  1  32   1
M  END
>  <i_m_ct_stereo_status>  (148) 
1

>  <s_m_source_file>  (148) 
/var/tmp/pbs.5076255.sched01/tmp2obefojl/44ql_32cm2.sdf

>  <i_m_source_file_index>  (148) 
16

>  <i_lp_mmshare_version>  (148) 
48012

>  <i_f3d_flags>  (148) 
0

>  <s_epik_input>  (148) 
W05IMl1bQ0gyXVtDSDJdW0NIMl1cTj1bQ0hdXE9cW0NIXT1DXDFbQ0gyXVtDSDJdW0NASF0oW0NASF0oW0NIM10pW0NIMl0yKVtDQEhdMVtDQF0oW0NIM10pKFtDSDJdW0NIMl1bQ0BIXTM0KVtDQEBIXTJDMz1bQ0hdW0NIMl1bQ0BASF0oW0NAQF00NVtDSDNdKUMoW0NIM10pKFtDSDNdKVtDQEBIXShbT0hdKVtDSDJdW0NIMl01

>  <s_epik_cmdline>  (148) 
J2VwaWtfcHl0aG9uJywgJy1waHQnLCAnMi4wJywgJy1waCcsICc3LjAnLCAnLXRuJywgJzgnLCAnLW1hJywgJzIwMCcsICctaW1hZScsICc8aW5maWxlLm1hZT4nLCAnLW9tYWUnLCAnPG91dGZpbGUubWFlPic=

>  <r_epik_Ionization_Penalty>  (148) 
0.037819

>  <r_epik_Ionization_Penalty_Charging>  (148) 
0.000965727

>  <r_epik_Ionization_Penalty_Neutral>  (148) 
0.0368532

>  <r_epik_State_Penalty>  (148) 
0.0503734

>  <r_epik_Charging_Adjusted_Penalty>  (148) 
0.0513391

>  <i_epik_Tot_Q>  (148) 
1

>  <i_epik_Tot_abs_Q>  (148) 
1

>  <s_epik_Chemistry_Notes>  (148) 
This compound has an imine and may undergo hydrolysis.

>  <s_lp_Force_Field>  (148) 
OPLS3e

>  <r_lp_Energy>  (148) 
66.9987

>  <b_lp_Chiralities_Consistent>  (148) 
1

>  <s_lp_Variant>  (148) 
38:0-1

>  <s_i_glide_gridfile>  (148) 
pfpi4k_grid

>  <i_i_glide_lignum>  (148) 
16

>  <i_i_glide_rotatable_bonds>  (148) 
6

>  <r_i_docking_score>  (148) 
-2.64649

>  <r_i_glide_ligand_efficiency>  (148) 
-0.0756141

>  <r_i_glide_ligand_efficiency_sa>  (148) 
-0.247339

>  <r_i_glide_ligand_efficiency_ln>  (148) 
-0.580964

>  <r_i_glide_gscore>  (148) 
-2.64649

>  <r_i_glide_lipo>  (148) 
0

>  <r_i_glide_hbond>  (148) 
-0.266128

>  <r_i_glide_metal>  (148) 
-0

>  <r_i_glide_rewards>  (148) 
-0.110803

>  <r_i_glide_evdw>  (148) 
-18.2756

>  <r_i_glide_ecoul>  (148) 
-10.3857

>  <r_i_glide_erotb>  (148) 
0.34704

>  <r_i_glide_esite>  (148) 
-0.14497

>  <r_i_glide_emodel>  (148) 
-35.6058

>  <r_i_glide_energy>  (148) 
-28.6613

>  <r_i_glide_einternal>  (148) 
1.59069

>  <r_i_glide_intrahb_reward>  (148) 
-0

>  <i_i_glide_confnum>  (148) 
5

>  <i_i_glide_posenum>  (148) 
2

>  <r_i_glide_eff_state_penalty>  (148) 
0

>  <ligand_id>  (148) 
38

>  <original_smiles>  (148) 
CC1CC2C3=CCC4C(C)(C)C(O)CCC4(C)C3CCC2(C)C2C(=COC=NCCCN)CCC12

>  <smiles>  (148) 
[H]OC1([H])C([H])([H])C([H])([H])C2(C([H])([H])[H])C3([H])C(=C([H])C([H])([H])C2([H])C1(C([H])([H])[H])C([H])([H])[H])C1([H])C([H])([H])C([H])(C([H])([H])[H])C2([H])C([H])([H])C([H])([H])C(=C([H])OC([H])=NC([H])([H])C([H])([H])C([H])([H])[N+]([H])([H])[H])C2([H])C1(C([H])([H])[H])C([H])([H])C3([H])[H]

$$$$
38:1:0
     RDKit          3D

 86 90  0  0  1  0  0  0  0  0999 V2000
   -0.1744   -9.8321    6.5135 C   0  0  0  0  0  0  0  0  0  0  0  0
    1.2204   -9.2082    6.7322 C   0  0  2  0  0  0  0  0  0  0  0  0
    1.1236   -7.7309    7.1428 C   0  0  0  0  0  0  0  0  0  0  0  0
    0.6846   -6.7926    5.9741 C   0  0  1  0  0  0  0  0  0  0  0  0
    0.5114   -5.3560    6.4644 C   0  0  0  0  0  0  0  0  0  0  0  0
   -0.7154   -4.8277    6.6319 C   0  0  0  0  0  0  0  0  0  0  0  0
   -0.9873   -3.4152    7.0889 C   0  0  0  0  0  0  0  0  0  0  0  0
    0.2168   -2.4446    6.9849 C   0  0  2  0  0  0  0  0  0  0  0  0
    0.1921   -1.5017    5.7304 C   0  0  0  0  0  0  0  0  0  0  0  0
    0.1226   -2.2604    4.3891 C   0  0  0  0  0  0  0  0  0  0  0  0
   -1.0772   -0.5997    5.7625 C   0  0  0  0  0  0  0  0  0  0  0  0
    1.4366   -0.5784    5.7095 C   0  0  1  0  0  0  0  0  0  0  0  0
    1.3689    0.4095    6.7217 O   0  0  0  0  0  0  0  0  0  0  0  0
    2.7575   -1.3483    5.8852 C   0  0  0  0  0  0  0  0  0  0  0  0
    2.7570   -2.1602    7.1929 C   0  0  0  0  0  0  0  0  0  0  0  0
    1.5714   -3.1498    7.3721 C   0  0  1  0  0  0  0  0  0  0  0  0
    1.5106   -3.4017    8.9062 C   0  0  0  0  0  0  0  0  0  0  0  0
    1.7955   -4.5789    6.7272 C   0  0  2  0  0  0  0  0  0  0  0  0
    2.7750   -4.7169    5.5337 C   0  0  0  0  0  0  0  0  0  0  0  0
    2.9428   -6.1758    5.0527 C   0  0  0  0  0  0  0  0  0  0  0  0
    1.6056   -6.8860    4.7126 C   0  0  2  0  0  0  0  0  0  0  0  0
    0.8709   -6.1590    3.5417 C   0  0  0  0  0  0  0  0  0  0  0  0
    1.7471   -8.3968    4.3467 C   0  0  1  0  0  0  0  0  0  0  0  0
    2.6008   -8.9784    3.2205 C   0  0  0  0  0  0  0  0  0  0  0  0
    3.3711   -8.4080    2.2581 C   0  0  0  0  0  0  0  0  0  0  0  0
    3.5326   -7.0520    2.0815 O   0  0  0  0  0  0  0  0  0  0  0  0
    4.2157   -6.6476    0.9594 C   0  0  0  0  0  0  0  0  0  0  0  0
    4.5103   -5.4254    0.8070 N   0  0  0  0  0  0  0  0  0  0  0  0
    5.1461   -5.0285   -0.4326 C   0  0  0  0  0  0  0  0  0  0  0  0
    4.7953   -3.5690   -0.7836 C   0  0  0  0  0  0  0  0  0  0  0  0
    3.2831   -3.2241   -0.6881 C   0  0  0  0  0  0  0  0  0  0  0  0
    3.0175   -1.8611   -1.0718 N   0  0  0  0  0  0  0  0  0  0  0  0
    2.5478  -10.4644    3.4068 C   0  0  0  0  0  0  0  0  0  0  0  0
    2.4790  -10.6893    4.9285 C   0  0  0  0  0  0  0  0  0  0  0  0
    2.1623   -9.2959    5.5216 C   0  0  2  0  0  0  0  0  0  0  0  0
   -0.6946   -9.3904    5.6662 H   0  0  0  0  0  0  0  0  0  0  0  0
   -0.7984   -9.6777    7.3957 H   0  0  0  0  0  0  0  0  0  0  0  0
   -0.1288  -10.9063    6.3493 H   0  0  0  0  0  0  0  0  0  0  0  0
    1.6734   -9.7646    7.5525 H   0  0  0  0  0  0  0  0  0  0  0  0
    0.4473   -7.6234    7.9917 H   0  0  0  0  0  0  0  0  0  0  0  0
    2.0993   -7.4148    7.5188 H   0  0  0  0  0  0  0  0  0  0  0  0
   -0.3063   -7.1338    5.6738 H   0  0  0  0  0  0  0  0  0  0  0  0
   -1.5966   -5.4287    6.4621 H   0  0  0  0  0  0  0  0  0  0  0  0
   -1.8511   -3.0584    6.5340 H   0  0  0  0  0  0  0  0  0  0  0  0
   -1.3093   -3.4891    8.1259 H   0  0  0  0  0  0  0  0  0  0  0  0
    0.0499   -1.7342    7.7934 H   0  0  0  0  0  0  0  0  0  0  0  0
   -0.0932   -1.5834    3.5651 H   0  0  0  0  0  0  0  0  0  0  0  0
   -0.6271   -3.0401    4.4030 H   0  0  0  0  0  0  0  0  0  0  0  0
    1.0622   -2.7379    4.1385 H   0  0  0  0  0  0  0  0  0  0  0  0
   -1.0060    0.2128    5.0401 H   0  0  0  0  0  0  0  0  0  0  0  0
   -1.2037   -0.1257    6.7382 H   0  0  0  0  0  0  0  0  0  0  0  0
   -1.9922   -1.1401    5.5337 H   0  0  0  0  0  0  0  0  0  0  0  0
    1.4719   -0.0433    4.7588 H   0  0  0  0  0  0  0  0  0  0  0  0
    2.0508    1.0377    6.5760 H   0  0  0  0  0  0  0  0  0  0  0  0
    2.9459   -1.9804    5.0242 H   0  0  0  0  0  0  0  0  0  0  0  0
    3.5923   -0.6450    5.9070 H   0  0  0  0  0  0  0  0  0  0  0  0
    3.7041   -2.6999    7.2734 H   0  0  0  0  0  0  0  0  0  0  0  0
    2.7677   -1.4548    8.0194 H   0  0  0  0  0  0  0  0  0  0  0  0
    2.4538   -3.7962    9.2877 H   0  0  0  0  0  0  0  0  0  0  0  0
    0.7303   -4.1145    9.1785 H   0  0  0  0  0  0  0  0  0  0  0  0
    1.3135   -2.4839    9.4621 H   0  0  0  0  0  0  0  0  0  0  0  0
    2.2926   -5.1713    7.4980 H   0  0  0  0  0  0  0  0  0  0  0  0
    2.4582   -4.1300    4.6800 H   0  0  0  0  0  0  0  0  0  0  0  0
    3.7620   -4.3510    5.8088 H   0  0  0  0  0  0  0  0  0  0  0  0
    3.6275   -6.1770    4.2137 H   0  0  0  0  0  0  0  0  0  0  0  0
    3.4624   -6.7276    5.8367 H   0  0  0  0  0  0  0  0  0  0  0  0
    1.4671   -6.1021    2.6361 H   0  0  0  0  0  0  0  0  0  0  0  0
    0.6088   -5.1338    3.8001 H   0  0  0  0  0  0  0  0  0  0  0  0
   -0.0620   -6.6611    3.2930 H   0  0  0  0  0  0  0  0  0  0  0  0
    0.7434   -8.7242    4.0579 H   0  0  0  0  0  0  0  0  0  0  0  0
    3.9692   -9.0176    1.6026 H   0  0  0  0  0  0  0  0  0  0  0  0
    4.4637   -7.4094    0.2094 H   0  0  0  0  0  0  0  0  0  0  0  0
    6.2263   -5.0919   -0.3177 H   0  0  0  0  0  0  0  0  0  0  0  0
    4.8873   -5.6799   -1.2713 H   0  0  0  0  0  0  0  0  0  0  0  0
    5.3549   -2.9026   -0.1254 H   0  0  0  0  0  0  0  0  0  0  0  0
    5.1498   -3.3559   -1.7949 H   0  0  0  0  0  0  0  0  0  0  0  0
    2.7039   -3.9228   -1.2994 H   0  0  0  0  0  0  0  0  0  0  0  0
    2.9444   -3.3639    0.3459 H   0  0  0  0  0  0  0  0  0  0  0  0
    2.0051   -1.5823   -0.9735 H   0  0  0  0  0  0  0  0  0  0  0  0
    3.2636   -1.7129   -2.0401 H   0  0  0  0  0  0  0  0  0  0  0  0
    1.6064  -10.8049    2.9636 H   0  0  0  0  0  0  0  0  0  0  0  0
    3.3591  -11.0028    2.9125 H   0  0  0  0  0  0  0  0  0  0  0  0
    1.7346  -11.4369    5.1870 H   0  0  0  0  0  0  0  0  0  0  0  0
    3.4350  -11.0439    5.3049 H   0  0  0  0  0  0  0  0  0  0  0  0
    3.1323   -8.9244    5.8677 H   0  0  0  0  0  0  0  0  0  0  0  0
    3.5285   -1.2204   -0.4789 H   0  0  0  0  0  0  0  0  0  0  0  0
  1  2  1  0
  1 36  1  0
  1 37  1  0
  1 38  1  0
  2 35  1  0
  2  3  1  0
  2 39  1  1
  3  4  1  0
  3 40  1  0
  3 41  1  0
  4 21  1  0
  4  5  1  0
  4 42  1  6
  5 18  1  0
  5  6  2  0
  6  7  1  0
  6 43  1  0
  7  8  1  0
  7 44  1  0
  7 45  1  0
  8 16  1  0
  8  9  1  0
  8 46  1  1
  9 10  1  0
  9 11  1  0
  9 12  1  0
 10 47  1  0
 10 48  1  0
 10 49  1  0
 11 50  1  0
 11 51  1  0
 11 52  1  0
 12 13  1  0
 12 14  1  0
 12 53  1  6
 13 54  1  0
 14 15  1  0
 14 55  1  0
 14 56  1  0
 15 16  1  0
 15 57  1  0
 15 58  1  0
 16 17  1  1
 16 18  1  0
 17 59  1  0
 17 60  1  0
 17 61  1  0
 18 19  1  0
 18 62  1  1
 19 20  1  0
 19 63  1  0
 19 64  1  0
 20 21  1  0
 20 65  1  0
 20 66  1  0
 21 22  1  6
 21 23  1  0
 22 67  1  0
 22 68  1  0
 22 69  1  0
 23 35  1  0
 23 24  1  0
 23 70  1  6
 24 25  2  3
 24 33  1  0
 25 26  1  0
 25 71  1  0
 26 27  1  0
 27 28  2  3
 27 72  1  0
 28 29  1  0
 29 30  1  0
 29 73  1  0
 29 74  1  0
 30 31  1  0
 30 75  1  0
 30 76  1  0
 31 32  1  0
 31 77  1  0
 31 78  1  0
 32 79  1  0
 32 80  1  0
 32 86  1  0
 33 34  1  0
 33 81  1  0
 33 82  1  0
 34 35  1  0
 34 83  1  0
 34 84  1  0
 35 85  1  1
M  CHG  1  32   1
M  END
>  <i_m_ct_stereo_status>  (149) 
1

>  <s_m_source_file>  (149) 
/var/tmp/pbs.5076255.sched01/tmp2obefojl/44ql_32cm2.sdf

>  <i_m_source_file_index>  (149) 
17

>  <i_lp_mmshare_version>  (149) 
48012

>  <i_f3d_flags>  (149) 
0

>  <s_epik_input>  (149) 
W05IMl1bQ0gyXVtDSDJdW0NIMl1cTj1bQ0hdXE9cW0NIXT1DXDFbQ0gyXVtDSDJdW0NASF0oW0NASF0oW0NIM10pW0NIMl0yKVtDQEhdMVtDQF0oW0NIM10pKFtDSDJdW0NIMl1bQ0BIXTM0KVtDQEBIXTJDMz1bQ0hdW0NIMl1bQ0BASF0oW0NAQF00NVtDSDNdKUMoW0NIM10pKFtDSDNdKVtDQEBIXShbT0hdKVtDSDJdW0NIMl01

>  <s_epik_cmdline>  (149) 
J2VwaWtfcHl0aG9uJywgJy1waHQnLCAnMi4wJywgJy1waCcsICc3LjAnLCAnLXRuJywgJzgnLCAnLW1hJywgJzIwMCcsICctaW1hZScsICc8aW5maWxlLm1hZT4nLCAnLW9tYWUnLCAnPG91dGZpbGUubWFlPic=

>  <r_epik_Ionization_Penalty>  (149) 
0.037819

>  <r_epik_Ionization_Penalty_Charging>  (149) 
0.000965727

>  <r_epik_Ionization_Penalty_Neutral>  (149) 
0.0368532

>  <r_epik_State_Penalty>  (149) 
0.0503734

>  <r_epik_Charging_Adjusted_Penalty>  (149) 
0.0513391

>  <i_epik_Tot_Q>  (149) 
1

>  <i_epik_Tot_abs_Q>  (149) 
1

>  <s_epik_Chemistry_Notes>  (149) 
This compound has an imine and may undergo hydrolysis.

>  <s_lp_Force_Field>  (149) 
OPLS3e

>  <r_lp_Energy>  (149) 
71.3961

>  <b_lp_Chiralities_Consistent>  (149) 
1

>  <s_lp_Variant>  (149) 
38:0-2

>  <s_i_glide_gridfile>  (149) 
pfpi4k_grid

>  <i_i_glide_lignum>  (149) 
17

>  <i_i_glide_rotatable_bonds>  (149) 
6

>  <r_i_docking_score>  (149) 
-2.76283

>  <r_i_glide_ligand_efficiency>  (149) 
-0.078938

>  <r_i_glide_ligand_efficiency_sa>  (149) 
-0.258211

>  <r_i_glide_ligand_efficiency_ln>  (149) 
-0.606503

>  <r_i_glide_gscore>  (149) 
-2.76283

>  <r_i_glide_lipo>  (149) 
-0.170225

>  <r_i_glide_hbond>  (149) 
-0.139986

>  <r_i_glide_metal>  (149) 
-0

>  <r_i_glide_rewards>  (149) 
-0.260262

>  <r_i_glide_evdw>  (149) 
-21.5856

>  <r_i_glide_ecoul>  (149) 
-9.06744

>  <r_i_glide_erotb>  (149) 
0.34704

>  <r_i_glide_esite>  (149) 
-0.1

>  <r_i_glide_emodel>  (149) 
-34.8017

>  <r_i_glide_energy>  (149) 
-30.6531

>  <r_i_glide_einternal>  (149) 
2.9128

>  <r_i_glide_intrahb_reward>  (149) 
-0

>  <i_i_glide_confnum>  (149) 
2

>  <i_i_glide_posenum>  (149) 
26

>  <r_i_glide_eff_state_penalty>  (149) 
0

>  <ligand_id>  (149) 
38

>  <original_smiles>  (149) 
CC1CC2C3=CCC4C(C)(C)C(O)CCC4(C)C3CCC2(C)C2C(=COC=NCCCN)CCC12

>  <smiles>  (149) 
[H]OC1([H])C([H])([H])C([H])([H])C2(C([H])([H])[H])C3([H])C(=C([H])C([H])([H])C2([H])C1(C([H])([H])[H])C([H])([H])[H])C1([H])C([H])([H])C([H])(C([H])([H])[H])C2([H])C([H])([H])C([H])([H])C(=C([H])OC([H])=NC([H])([H])C([H])([H])C([H])([H])[N+]([H])([H])[H])C2([H])C1(C([H])([H])[H])C([H])([H])C3([H])[H]

$$$$
38:1:1
     RDKit          3D

 86 90  0  0  1  0  0  0  0  0999 V2000
   -0.3488   -8.5731    5.4801 C   0  0  0  0  0  0  0  0  0  0  0  0
    1.0956   -8.8703    5.0037 C   0  0  2  0  0  0  0  0  0  0  0  0
    2.1409   -8.3165    5.9831 C   0  0  0  0  0  0  0  0  0  0  0  0
    2.2413   -6.7635    5.9571 C   0  0  1  0  0  0  0  0  0  0  0  0
    3.2247   -6.2692    7.0159 C   0  0  0  0  0  0  0  0  0  0  0  0
    2.7830   -5.6685    8.1425 C   0  0  0  0  0  0  0  0  0  0  0  0
    3.6670   -5.1315    9.2498 C   0  0  0  0  0  0  0  0  0  0  0  0
    5.1463   -4.9197    8.8381 C   0  0  2  0  0  0  0  0  0  0  0  0
    5.5294   -3.4329    8.4931 C   0  0  0  0  0  0  0  0  0  0  0  0
    4.6705   -2.8280    7.3539 C   0  0  0  0  0  0  0  0  0  0  0  0
    5.2924   -2.5186    9.7361 C   0  0  0  0  0  0  0  0  0  0  0  0
    7.0270   -3.3290    8.1033 C   0  0  1  0  0  0  0  0  0  0  0  0
    7.8745   -3.5006    9.2292 O   0  0  0  0  0  0  0  0  0  0  0  0
    7.4358   -4.3550    7.0343 C   0  0  0  0  0  0  0  0  0  0  0  0
    7.1310   -5.7954    7.4578 C   0  0  0  0  0  0  0  0  0  0  0  0
    5.6706   -6.0756    7.8950 C   0  0  1  0  0  0  0  0  0  0  0  0
    5.7759   -7.3494    8.7857 C   0  0  0  0  0  0  0  0  0  0  0  0
    4.7015   -6.4688    6.7066 C   0  0  2  0  0  0  0  0  0  0  0  0
    5.0341   -5.9788    5.2726 C   0  0  0  0  0  0  0  0  0  0  0  0
    4.0420   -6.4985    4.2137 C   0  0  0  0  0  0  0  0  0  0  0  0
    2.5560   -6.1787    4.5386 C   0  0  2  0  0  0  0  0  0  0  0  0
    2.3174   -4.6360    4.6041 C   0  0  0  0  0  0  0  0  0  0  0  0
    1.5270   -6.8017    3.5387 C   0  0  1  0  0  0  0  0  0  0  0  0
    1.4848   -6.5702    2.0376 C   0  0  0  0  0  0  0  0  0  0  0  0
    2.2479   -5.8184    1.1873 C   0  0  0  0  0  0  0  0  0  0  0  0
    3.2644   -4.9874    1.6019 O   0  0  0  0  0  0  0  0  0  0  0  0
    3.9347   -4.3416    0.5968 C   0  0  0  0  0  0  0  0  0  0  0  0
    5.0060   -3.7031    0.8266 N   0  0  0  0  0  0  0  0  0  0  0  0
    5.6152   -2.9048   -0.2256 C   0  0  0  0  0  0  0  0  0  0  0  0
    5.2288   -1.4158   -0.0768 C   0  0  0  0  0  0  0  0  0  0  0  0
    3.6951   -1.1653   -0.0121 C   0  0  0  0  0  0  0  0  0  0  0  0
    3.0205   -1.6084   -1.2125 N   0  0  0  0  0  0  0  0  0  0  0  0
    0.4406   -7.5182    1.5244 C   0  0  0  0  0  0  0  0  0  0  0  0
    0.5647   -8.7745    2.4124 C   0  0  0  0  0  0  0  0  0  0  0  0
    1.4463   -8.3389    3.6024 C   0  0  2  0  0  0  0  0  0  0  0  0
   -0.5788   -7.5140    5.4972 H   0  0  0  0  0  0  0  0  0  0  0  0
   -0.4997   -8.9617    6.4879 H   0  0  0  0  0  0  0  0  0  0  0  0
   -1.0976   -9.0516    4.8471 H   0  0  0  0  0  0  0  0  0  0  0  0
    1.1862   -9.9589    4.9795 H   0  0  0  0  0  0  0  0  0  0  0  0
    1.9209   -8.6729    6.9871 H   0  0  0  0  0  0  0  0  0  0  0  0
    3.1000   -8.7657    5.7255 H   0  0  0  0  0  0  0  0  0  0  0  0
    1.2565   -6.3992    6.2511 H   0  0  0  0  0  0  0  0  0  0  0  0
    1.7248   -5.5808    8.3189 H   0  0  0  0  0  0  0  0  0  0  0  0
    3.2111   -4.2127    9.6226 H   0  0  0  0  0  0  0  0  0  0  0  0
    3.6131   -5.8394   10.0818 H   0  0  0  0  0  0  0  0  0  0  0  0
    5.6919   -5.0682    9.7690 H   0  0  0  0  0  0  0  0  0  0  0  0
    4.8235   -1.7517    7.2730 H   0  0  0  0  0  0  0  0  0  0  0  0
    3.6038   -2.9904    7.5005 H   0  0  0  0  0  0  0  0  0  0  0  0
    4.9317   -3.2298    6.3802 H   0  0  0  0  0  0  0  0  0  0  0  0
    5.7584   -1.5412    9.6035 H   0  0  0  0  0  0  0  0  0  0  0  0
    5.7194   -2.9518   10.6452 H   0  0  0  0  0  0  0  0  0  0  0  0
    4.2375   -2.3342    9.9338 H   0  0  0  0  0  0  0  0  0  0  0  0
    7.2370   -2.3292    7.7223 H   0  0  0  0  0  0  0  0  0  0  0  0
    7.6559   -4.3002    9.6535 H   0  0  0  0  0  0  0  0  0  0  0  0
    6.9755   -4.1145    6.0838 H   0  0  0  0  0  0  0  0  0  0  0  0
    8.5079   -4.2935    6.8793 H   0  0  0  0  0  0  0  0  0  0  0  0
    7.4450   -6.4915    6.6740 H   0  0  0  0  0  0  0  0  0  0  0  0
    7.8047   -6.0093    8.2820 H   0  0  0  0  0  0  0  0  0  0  0  0
    6.2296   -8.1824    8.2441 H   0  0  0  0  0  0  0  0  0  0  0  0
    4.7993   -7.6920    9.1336 H   0  0  0  0  0  0  0  0  0  0  0  0
    6.3917   -7.1887    9.6732 H   0  0  0  0  0  0  0  0  0  0  0  0
    4.7979   -7.5494    6.5993 H   0  0  0  0  0  0  0  0  0  0  0  0
    5.0584   -4.8990    5.2044 H   0  0  0  0  0  0  0  0  0  0  0  0
    6.0238   -6.3116    4.9767 H   0  0  0  0  0  0  0  0  0  0  0  0
    4.3399   -6.1030    3.2536 H   0  0  0  0  0  0  0  0  0  0  0  0
    4.1776   -7.5750    4.1200 H   0  0  0  0  0  0  0  0  0  0  0  0
    2.5775   -4.1251    3.6829 H   0  0  0  0  0  0  0  0  0  0  0  0
    2.8988   -4.1611    5.3922 H   0  0  0  0  0  0  0  0  0  0  0  0
    1.2742   -4.4035    4.8176 H   0  0  0  0  0  0  0  0  0  0  0  0
    0.5467   -6.4312    3.8602 H   0  0  0  0  0  0  0  0  0  0  0  0
    2.0806   -5.8513    0.1191 H   0  0  0  0  0  0  0  0  0  0  0  0
    3.4461   -4.2882   -0.3897 H   0  0  0  0  0  0  0  0  0  0  0  0
    6.7048   -3.0140   -0.1686 H   0  0  0  0  0  0  0  0  0  0  0  0
    5.3412   -3.2734   -1.2177 H   0  0  0  0  0  0  0  0  0  0  0  0
    5.7184   -1.0154    0.8101 H   0  0  0  0  0  0  0  0  0  0  0  0
    5.6487   -0.8590   -0.9135 H   0  0  0  0  0  0  0  0  0  0  0  0
    3.2829   -1.6783    0.8647 H   0  0  0  0  0  0  0  0  0  0  0  0
    3.5227   -0.1057    0.1825 H   0  0  0  0  0  0  0  0  0  0  0  0
    1.9886   -1.4525   -1.1132 H   0  0  0  0  0  0  0  0  0  0  0  0
    3.1962   -2.5794   -1.4009 H   0  0  0  0  0  0  0  0  0  0  0  0
   -0.5413   -7.0678    1.6911 H   0  0  0  0  0  0  0  0  0  0  0  0
    0.5302   -7.7463    0.4662 H   0  0  0  0  0  0  0  0  0  0  0  0
   -0.4155   -9.1429    2.7120 H   0  0  0  0  0  0  0  0  0  0  0  0
    1.0547   -9.5821    1.8658 H   0  0  0  0  0  0  0  0  0  0  0  0
    2.4431   -8.7294    3.3672 H   0  0  0  0  0  0  0  0  0  0  0  0
    3.3294   -1.0556   -2.0058 H   0  0  0  0  0  0  0  0  0  0  0  0
  1  2  1  0
  1 36  1  0
  1 37  1  0
  1 38  1  0
  2 35  1  0
  2  3  1  0
  2 39  1  6
  3  4  1  0
  3 40  1  0
  3 41  1  0
  4 21  1  0
  4  5  1  0
  4 42  1  1
  5 18  1  0
  5  6  2  0
  6  7  1  0
  6 43  1  0
  7  8  1  0
  7 44  1  0
  7 45  1  0
  8 16  1  0
  8  9  1  0
  8 46  1  1
  9 10  1  0
  9 11  1  0
  9 12  1  0
 10 47  1  0
 10 48  1  0
 10 49  1  0
 11 50  1  0
 11 51  1  0
 11 52  1  0
 12 13  1  0
 12 14  1  0
 12 53  1  6
 13 54  1  0
 14 15  1  0
 14 55  1  0
 14 56  1  0
 15 16  1  0
 15 57  1  0
 15 58  1  0
 16 17  1  1
 16 18  1  0
 17 59  1  0
 17 60  1  0
 17 61  1  0
 18 19  1  0
 18 62  1  6
 19 20  1  0
 19 63  1  0
 19 64  1  0
 20 21  1  0
 20 65  1  0
 20 66  1  0
 21 22  1  1
 21 23  1  0
 22 67  1  0
 22 68  1  0
 22 69  1  0
 23 35  1  0
 23 24  1  0
 23 70  1  1
 24 25  2  3
 24 33  1  0
 25 26  1  0
 25 71  1  0
 26 27  1  0
 27 28  2  3
 27 72  1  0
 28 29  1  0
 29 30  1  0
 29 73  1  0
 29 74  1  0
 30 31  1  0
 30 75  1  0
 30 76  1  0
 31 32  1  0
 31 77  1  0
 31 78  1  0
 32 79  1  0
 32 80  1  0
 32 86  1  0
 33 34  1  0
 33 81  1  0
 33 82  1  0
 34 35  1  0
 34 83  1  0
 34 84  1  0
 35 85  1  6
M  CHG  1  32   1
M  END
>  <i_m_ct_stereo_status>  (150) 
1

>  <s_m_source_file>  (150) 
/var/tmp/pbs.5076255.sched01/tmp2obefojl/44ql_32cm2.sdf

>  <i_m_source_file_index>  (150) 
17

>  <i_lp_mmshare_version>  (150) 
48012

>  <i_f3d_flags>  (150) 
0

>  <s_epik_input>  (150) 
W05IMl1bQ0gyXVtDSDJdW0NIMl1cTj1bQ0hdXE9cW0NIXT1DXDFbQ0gyXVtDSDJdW0NASF0oW0NASF0oW0NIM10pW0NIMl0yKVtDQEhdMVtDQF0oW0NIM10pKFtDSDJdW0NIMl1bQ0BIXTM0KVtDQEBIXTJDMz1bQ0hdW0NIMl1bQ0BASF0oW0NAQF00NVtDSDNdKUMoW0NIM10pKFtDSDNdKVtDQEBIXShbT0hdKVtDSDJdW0NIMl01

>  <s_epik_cmdline>  (150) 
J2VwaWtfcHl0aG9uJywgJy1waHQnLCAnMi4wJywgJy1waCcsICc3LjAnLCAnLXRuJywgJzgnLCAnLW1hJywgJzIwMCcsICctaW1hZScsICc8aW5maWxlLm1hZT4nLCAnLW9tYWUnLCAnPG91dGZpbGUubWFlPic=

>  <r_epik_Ionization_Penalty>  (150) 
0.037819

>  <r_epik_Ionization_Penalty_Charging>  (150) 
0.000965727

>  <r_epik_Ionization_Penalty_Neutral>  (150) 
0.0368532

>  <r_epik_State_Penalty>  (150) 
0.0503734

>  <r_epik_Charging_Adjusted_Penalty>  (150) 
0.0513391

>  <i_epik_Tot_Q>  (150) 
1

>  <i_epik_Tot_abs_Q>  (150) 
1

>  <s_epik_Chemistry_Notes>  (150) 
This compound has an imine and may undergo hydrolysis.

>  <s_lp_Force_Field>  (150) 
OPLS3e

>  <r_lp_Energy>  (150) 
71.3961

>  <b_lp_Chiralities_Consistent>  (150) 
1

>  <s_lp_Variant>  (150) 
38:0-2

>  <s_i_glide_gridfile>  (150) 
pfpi4k_grid

>  <i_i_glide_lignum>  (150) 
17

>  <i_i_glide_rotatable_bonds>  (150) 
6

>  <r_i_docking_score>  (150) 
-2.68379

>  <r_i_glide_ligand_efficiency>  (150) 
-0.0766798

>  <r_i_glide_ligand_efficiency_sa>  (150) 
-0.250825

>  <r_i_glide_ligand_efficiency_ln>  (150) 
-0.589152

>  <r_i_glide_gscore>  (150) 
-2.68379

>  <r_i_glide_lipo>  (150) 
-0.0502211

>  <r_i_glide_hbond>  (150) 
-0.118957

>  <r_i_glide_metal>  (150) 
-0

>  <r_i_glide_rewards>  (150) 
-0.132141

>  <r_i_glide_evdw>  (150) 
-13.7835

>  <r_i_glide_ecoul>  (150) 
-12.9356

>  <r_i_glide_erotb>  (150) 
0.34704

>  <r_i_glide_esite>  (150) 
-0.1

>  <r_i_glide_emodel>  (150) 
-30.0445

>  <r_i_glide_energy>  (150) 
-26.7191

>  <r_i_glide_einternal>  (150) 
4.22877

>  <r_i_glide_intrahb_reward>  (150) 
-0

>  <i_i_glide_confnum>  (150) 
2

>  <i_i_glide_posenum>  (150) 
30

>  <r_i_glide_eff_state_penalty>  (150) 
0

>  <ligand_id>  (150) 
38

>  <original_smiles>  (150) 
CC1CC2C3=CCC4C(C)(C)C(O)CCC4(C)C3CCC2(C)C2C(=COC=NCCCN)CCC12

>  <smiles>  (150) 
[H]OC1([H])C([H])([H])C([H])([H])C2(C([H])([H])[H])C3([H])C(=C([H])C([H])([H])C2([H])C1(C([H])([H])[H])C([H])([H])[H])C1([H])C([H])([H])C([H])(C([H])([H])[H])C2([H])C([H])([H])C([H])([H])C(=C([H])OC([H])=NC([H])([H])C([H])([H])C([H])([H])[N+]([H])([H])[H])C2([H])C1(C([H])([H])[H])C([H])([H])C3([H])[H]

$$$$
38:1:2
     RDKit          3D

 86 90  0  0  1  0  0  0  0  0999 V2000
   -0.2846   -6.6287    5.5533 C   0  0  0  0  0  0  0  0  0  0  0  0
    1.2524   -6.7087    5.4339 C   0  0  2  0  0  0  0  0  0  0  0  0
    1.9459   -5.5048    6.1045 C   0  0  0  0  0  0  0  0  0  0  0  0
    1.7699   -4.1830    5.3074 C   0  0  1  0  0  0  0  0  0  0  0  0
    2.3884   -3.0040    6.0601 C   0  0  0  0  0  0  0  0  0  0  0  0
    1.6159   -2.0952    6.6840 C   0  0  0  0  0  0  0  0  0  0  0  0
    2.1239   -0.8928    7.4445 C   0  0  0  0  0  0  0  0  0  0  0  0
    3.5926   -0.5112    7.1356 C   0  0  2  0  0  0  0  0  0  0  0  0
    3.7583    0.6854    6.1263 C   0  0  0  0  0  0  0  0  0  0  0  0
    3.0761    0.4396    4.7629 C   0  0  0  0  0  0  0  0  0  0  0  0
    3.1020    1.9691    6.7059 C   0  0  0  0  0  0  0  0  0  0  0  0
    5.2634    0.9889    5.8888 C   0  0  1  0  0  0  0  0  0  0  0  0
    5.8745    1.5701    7.0270 O   0  0  0  0  0  0  0  0  0  0  0  0
    6.0767   -0.2566    5.5180 C   0  0  0  0  0  0  0  0  0  0  0  0
    5.9603   -1.3517    6.5912 C   0  0  0  0  0  0  0  0  0  0  0  0
    4.5120   -1.7790    6.9636 C   0  0  1  0  0  0  0  0  0  0  0  0
    4.6464   -2.4178    8.3758 C   0  0  0  0  0  0  0  0  0  0  0  0
    3.9156   -2.9263    6.0472 C   0  0  2  0  0  0  0  0  0  0  0  0
    4.4538   -3.0933    4.6021 C   0  0  0  0  0  0  0  0  0  0  0  0
    3.8275   -4.2907    3.8576 C   0  0  0  0  0  0  0  0  0  0  0  0
    2.2718   -4.2633    3.8223 C   0  0  2  0  0  0  0  0  0  0  0  0
    1.7485   -2.9990    3.0805 C   0  0  0  0  0  0  0  0  0  0  0  0
    1.6116   -5.5349    3.1811 C   0  0  1  0  0  0  0  0  0  0  0  0
    1.8764   -6.0496    1.7635 C   0  0  0  0  0  0  0  0  0  0  0  0
    2.6343   -5.5893    0.7473 C   0  0  0  0  0  0  0  0  0  0  0  0
    3.3503   -4.4198    0.7670 O   0  0  0  0  0  0  0  0  0  0  0  0
    4.0608   -4.1076   -0.3617 C   0  0  0  0  0  0  0  0  0  0  0  0
    4.3431   -2.8942   -0.6202 N   0  0  0  0  0  0  0  0  0  0  0  0
    4.9605   -2.5708   -1.8960 C   0  0  0  0  0  0  0  0  0  0  0  0
    3.9683   -1.8051   -2.8047 C   0  0  0  0  0  0  0  0  0  0  0  0
    2.8542   -2.6816   -3.4095 C   0  0  0  0  0  0  0  0  0  0  0  0
    1.8568   -3.0535   -2.3967 N   0  0  0  0  0  0  0  0  0  0  0  0
    1.1517   -7.3746    1.7022 C   0  0  0  0  0  0  0  0  0  0  0  0
    1.2952   -7.9773    3.1099 C   0  0  0  0  0  0  0  0  0  0  0  0
    1.7980   -6.8215    3.9981 C   0  0  2  0  0  0  0  0  0  0  0  0
   -0.7036   -5.7931    4.9975 H   0  0  0  0  0  0  0  0  0  0  0  0
   -0.5617   -6.4956    6.5981 H   0  0  0  0  0  0  0  0  0  0  0  0
   -0.7661   -7.5427    5.2052 H   0  0  0  0  0  0  0  0  0  0  0  0
    1.5546   -7.6096    5.9735 H   0  0  0  0  0  0  0  0  0  0  0  0
    1.5771   -5.3886    7.1232 H   0  0  0  0  0  0  0  0  0  0  0  0
    3.0043   -5.7386    6.2120 H   0  0  0  0  0  0  0  0  0  0  0  0
    0.6984   -3.9882    5.2726 H   0  0  0  0  0  0  0  0  0  0  0  0
    0.5422   -2.2135    6.6848 H   0  0  0  0  0  0  0  0  0  0  0  0
    1.4418   -0.0688    7.2536 H   0  0  0  0  0  0  0  0  0  0  0  0
    2.0219   -1.1197    8.5045 H   0  0  0  0  0  0  0  0  0  0  0  0
    3.9367   -0.0575    8.0664 H   0  0  0  0  0  0  0  0  0  0  0  0
    3.0476    1.3563    4.1699 H   0  0  0  0  0  0  0  0  0  0  0  0
    2.0488    0.0909    4.8707 H   0  0  0  0  0  0  0  0  0  0  0  0
    3.6081   -0.2821    4.1598 H   0  0  0  0  0  0  0  0  0  0  0  0
    3.3988    2.8543    6.1416 H   0  0  0  0  0  0  0  0  0  0  0  0
    3.3934    2.1399    7.7428 H   0  0  0  0  0  0  0  0  0  0  0  0
    2.0136    1.9316    6.6761 H   0  0  0  0  0  0  0  0  0  0  0  0
    5.3511    1.7154    5.0808 H   0  0  0  0  0  0  0  0  0  0  0  0
    6.7702    1.7855    6.8117 H   0  0  0  0  0  0  0  0  0  0  0  0
    5.7773   -0.6316    4.5438 H   0  0  0  0  0  0  0  0  0  0  0  0
    7.1240    0.0288    5.4016 H   0  0  0  0  0  0  0  0  0  0  0  0
    6.5434   -2.2201    6.2944 H   0  0  0  0  0  0  0  0  0  0  0  0
    6.4623   -0.9757    7.4884 H   0  0  0  0  0  0  0  0  0  0  0  0
    5.3510   -3.2526    8.3748 H   0  0  0  0  0  0  0  0  0  0  0  0
    3.6936   -2.8012    8.7463 H   0  0  0  0  0  0  0  0  0  0  0  0
    5.0118   -1.7020    9.1128 H   0  0  0  0  0  0  0  0  0  0  0  0
    4.2180   -3.8623    6.5146 H   0  0  0  0  0  0  0  0  0  0  0  0
    4.2874   -2.2064    4.0042 H   0  0  0  0  0  0  0  0  0  0  0  0
    5.5309   -3.2491    4.6209 H   0  0  0  0  0  0  0  0  0  0  0  0
    4.2521   -4.3204    2.8624 H   0  0  0  0  0  0  0  0  0  0  0  0
    4.1729   -5.2035    4.3363 H   0  0  0  0  0  0  0  0  0  0  0  0
    2.1031   -2.9234    2.0570 H   0  0  0  0  0  0  0  0  0  0  0  0
    2.0484   -2.0792    3.5755 H   0  0  0  0  0  0  0  0  0  0  0  0
    0.6576   -2.9819    3.0500 H   0  0  0  0  0  0  0  0  0  0  0  0
    0.5432   -5.3196    3.1674 H   0  0  0  0  0  0  0  0  0  0  0  0
    2.7265   -6.1523   -0.1770 H   0  0  0  0  0  0  0  0  0  0  0  0
    4.3292   -4.9330   -1.0282 H   0  0  0  0  0  0  0  0  0  0  0  0
    5.8169   -1.9236   -1.7074 H   0  0  0  0  0  0  0  0  0  0  0  0
    5.3619   -3.4374   -2.4263 H   0  0  0  0  0  0  0  0  0  0  0  0
    3.5450   -0.9407   -2.2828 H   0  0  0  0  0  0  0  0  0  0  0  0
    4.5291   -1.3790   -3.6353 H   0  0  0  0  0  0  0  0  0  0  0  0
    2.3493   -2.1540   -4.2193 H   0  0  0  0  0  0  0  0  0  0  0  0
    3.2873   -3.5840   -3.8422 H   0  0  0  0  0  0  0  0  0  0  0  0
    1.1466   -3.6554   -2.7949 H   0  0  0  0  0  0  0  0  0  0  0  0
    1.4352   -2.2162   -1.9940 H   0  0  0  0  0  0  0  0  0  0  0  0
    0.0980   -7.1691    1.5157 H   0  0  0  0  0  0  0  0  0  0  0  0
    1.5085   -8.0322    0.9058 H   0  0  0  0  0  0  0  0  0  0  0  0
    0.3531   -8.4079    3.4499 H   0  0  0  0  0  0  0  0  0  0  0  0
    2.0302   -8.7841    3.1079 H   0  0  0  0  0  0  0  0  0  0  0  0
    2.8699   -6.9854    4.0918 H   0  0  0  0  0  0  0  0  0  0  0  0
    2.3493   -3.5323   -1.6620 H   0  0  0  0  0  0  0  0  0  0  0  0
  1  2  1  0
  1 36  1  0
  1 37  1  0
  1 38  1  0
  2 35  1  0
  2  3  1  0
  2 39  1  1
  3  4  1  0
  3 40  1  0
  3 41  1  0
  4 21  1  0
  4  5  1  0
  4 42  1  6
  5 18  1  0
  5  6  2  0
  6  7  1  0
  6 43  1  0
  7  8  1  0
  7 44  1  0
  7 45  1  0
  8 16  1  0
  8  9  1  0
  8 46  1  1
  9 10  1  0
  9 11  1  0
  9 12  1  0
 10 47  1  0
 10 48  1  0
 10 49  1  0
 11 50  1  0
 11 51  1  0
 11 52  1  0
 12 13  1  0
 12 14  1  0
 12 53  1  6
 13 54  1  0
 14 15  1  0
 14 55  1  0
 14 56  1  0
 15 16  1  0
 15 57  1  0
 15 58  1  0
 16 17  1  1
 16 18  1  0
 17 59  1  0
 17 60  1  0
 17 61  1  0
 18 19  1  0
 18 62  1  1
 19 20  1  0
 19 63  1  0
 19 64  1  0
 20 21  1  0
 20 65  1  0
 20 66  1  0
 21 22  1  6
 21 23  1  0
 22 67  1  0
 22 68  1  0
 22 69  1  0
 23 35  1  0
 23 24  1  0
 23 70  1  6
 24 25  2  3
 24 33  1  0
 25 26  1  0
 25 71  1  0
 26 27  1  0
 27 28  2  3
 27 72  1  0
 28 29  1  0
 29 30  1  0
 29 73  1  0
 29 74  1  0
 30 31  1  0
 30 75  1  0
 30 76  1  0
 31 32  1  0
 31 77  1  0
 31 78  1  0
 32 79  1  0
 32 80  1  0
 32 86  1  0
 33 34  1  0
 33 81  1  0
 33 82  1  0
 34 35  1  0
 34 83  1  0
 34 84  1  0
 35 85  1  1
M  CHG  1  32   1
M  END
>  <i_m_ct_stereo_status>  (151) 
1

>  <s_m_source_file>  (151) 
/var/tmp/pbs.5076255.sched01/tmp2obefojl/44ql_32cm2.sdf

>  <i_m_source_file_index>  (151) 
17

>  <i_lp_mmshare_version>  (151) 
48012

>  <i_f3d_flags>  (151) 
0

>  <s_epik_input>  (151) 
W05IMl1bQ0gyXVtDSDJdW0NIMl1cTj1bQ0hdXE9cW0NIXT1DXDFbQ0gyXVtDSDJdW0NASF0oW0NASF0oW0NIM10pW0NIMl0yKVtDQEhdMVtDQF0oW0NIM10pKFtDSDJdW0NIMl1bQ0BIXTM0KVtDQEBIXTJDMz1bQ0hdW0NIMl1bQ0BASF0oW0NAQF00NVtDSDNdKUMoW0NIM10pKFtDSDNdKVtDQEBIXShbT0hdKVtDSDJdW0NIMl01

>  <s_epik_cmdline>  (151) 
J2VwaWtfcHl0aG9uJywgJy1waHQnLCAnMi4wJywgJy1waCcsICc3LjAnLCAnLXRuJywgJzgnLCAnLW1hJywgJzIwMCcsICctaW1hZScsICc8aW5maWxlLm1hZT4nLCAnLW9tYWUnLCAnPG91dGZpbGUubWFlPic=

>  <r_epik_Ionization_Penalty>  (151) 
0.037819

>  <r_epik_Ionization_Penalty_Charging>  (151) 
0.000965727

>  <r_epik_Ionization_Penalty_Neutral>  (151) 
0.0368532

>  <r_epik_State_Penalty>  (151) 
0.0503734

>  <r_epik_Charging_Adjusted_Penalty>  (151) 
0.0513391

>  <i_epik_Tot_Q>  (151) 
1

>  <i_epik_Tot_abs_Q>  (151) 
1

>  <s_epik_Chemistry_Notes>  (151) 
This compound has an imine and may undergo hydrolysis.

>  <s_lp_Force_Field>  (151) 
OPLS3e

>  <r_lp_Energy>  (151) 
71.3961

>  <b_lp_Chiralities_Consistent>  (151) 
1

>  <s_lp_Variant>  (151) 
38:0-2

>  <s_i_glide_gridfile>  (151) 
pfpi4k_grid

>  <i_i_glide_lignum>  (151) 
17

>  <i_i_glide_rotatable_bonds>  (151) 
6

>  <r_i_docking_score>  (151) 
-2.46971

>  <r_i_glide_ligand_efficiency>  (151) 
-0.0705631

>  <r_i_glide_ligand_efficiency_sa>  (151) 
-0.230817

>  <r_i_glide_ligand_efficiency_ln>  (151) 
-0.542156

>  <r_i_glide_gscore>  (151) 
-2.46971

>  <r_i_glide_lipo>  (151) 
-0.326035

>  <r_i_glide_hbond>  (151) 
-0.2

>  <r_i_glide_metal>  (151) 
-0

>  <r_i_glide_rewards>  (151) 
-0.110803

>  <r_i_glide_evdw>  (151) 
-21.431

>  <r_i_glide_ecoul>  (151) 
-7.29711

>  <r_i_glide_erotb>  (151) 
0.34704

>  <r_i_glide_esite>  (151) 
-0.0137957

>  <r_i_glide_emodel>  (151) 
-31.7335

>  <r_i_glide_energy>  (151) 
-28.7281

>  <r_i_glide_einternal>  (151) 
4.17516

>  <r_i_glide_intrahb_reward>  (151) 
-0

>  <i_i_glide_confnum>  (151) 
1

>  <i_i_glide_posenum>  (151) 
28

>  <r_i_glide_eff_state_penalty>  (151) 
0

>  <ligand_id>  (151) 
38

>  <original_smiles>  (151) 
CC1CC2C3=CCC4C(C)(C)C(O)CCC4(C)C3CCC2(C)C2C(=COC=NCCCN)CCC12

>  <smiles>  (151) 
[H]OC1([H])C([H])([H])C([H])([H])C2(C([H])([H])[H])C3([H])C(=C([H])C([H])([H])C2([H])C1(C([H])([H])[H])C([H])([H])[H])C1([H])C([H])([H])C([H])(C([H])([H])[H])C2([H])C([H])([H])C([H])([H])C(=C([H])OC([H])=NC([H])([H])C([H])([H])C([H])([H])[N+]([H])([H])[H])C2([H])C1(C([H])([H])[H])C([H])([H])C3([H])[H]

$$$$
38:2:0
     RDKit          3D

 86 90  0  0  1  0  0  0  0  0999 V2000
    5.7969   -3.2776   -0.5922 C   0  0  0  0  0  0  0  0  0  0  0  0
    6.0082   -3.1650    0.9319 C   0  0  2  0  0  0  0  0  0  0  0  0
    5.9332   -4.5452    1.6296 C   0  0  0  0  0  0  0  0  0  0  0  0
    4.4946   -5.1245    1.6903 C   0  0  1  0  0  0  0  0  0  0  0  0
    4.4907   -6.5228    2.3073 C   0  0  0  0  0  0  0  0  0  0  0  0
    4.3418   -7.6213    1.5392 C   0  0  0  0  0  0  0  0  0  0  0  0
    4.3234   -9.0409    2.0505 C   0  0  0  0  0  0  0  0  0  0  0  0
    4.0556   -9.1754    3.5706 C   0  0  2  0  0  0  0  0  0  0  0  0
    2.5669   -9.5295    3.9490 C   0  0  0  0  0  0  0  0  0  0  0  0
    1.5454   -8.5098    3.4004 C   0  0  0  0  0  0  0  0  0  0  0  0
    2.1747  -10.8934    3.3275 C   0  0  0  0  0  0  0  0  0  0  0  0
    2.3953   -9.6441    5.4939 C   0  0  1  0  0  0  0  0  0  0  0  0
    3.0246  -10.7986    6.0263 O   0  0  0  0  0  0  0  0  0  0  0  0
    2.9612   -8.4261    6.2375 C   0  0  0  0  0  0  0  0  0  0  0  0
    4.4476   -8.1974    5.9101 C   0  0  0  0  0  0  0  0  0  0  0  0
    4.7980   -8.0623    4.4017 C   0  0  1  0  0  0  0  0  0  0  0  0
    6.3157   -8.3920    4.3217 C   0  0  0  0  0  0  0  0  0  0  0  0
    4.6668   -6.5905    3.8278 C   0  0  2  0  0  0  0  0  0  0  0  0
    3.7121   -5.5895    4.5346 C   0  0  0  0  0  0  0  0  0  0  0  0
    3.7413   -4.1774    3.9126 C   0  0  0  0  0  0  0  0  0  0  0  0
    3.4623   -4.1740    2.3835 C   0  0  2  0  0  0  0  0  0  0  0  0
    2.0403   -4.7120    2.1012 C   0  0  0  0  0  0  0  0  0  0  0  0
    3.6014   -2.7697    1.6947 C   0  0  1  0  0  0  0  0  0  0  0  0
    2.8322   -1.5453    2.1486 C   0  0  0  0  0  0  0  0  0  0  0  0
    1.8906   -1.4333    3.1126 C   0  0  0  0  0  0  0  0  0  0  0  0
    1.3857   -0.2124    3.4807 O   0  0  0  0  0  0  0  0  0  0  0  0
    0.6109   -0.1789    4.6181 C   0  0  0  0  0  0  0  0  0  0  0  0
    0.0956    0.8969    5.0814 N   0  0  0  0  0  0  0  0  0  0  0  0
    0.3405    2.1563    4.4082 C   0  0  0  0  0  0  0  0  0  0  0  0
   -0.8112    2.5123    3.4374 C   0  0  0  0  0  0  0  0  0  0  0  0
   -0.9399    1.5742    2.2259 C   0  0  0  0  0  0  0  0  0  0  0  0
    0.1979    1.7365    1.3040 N   0  0  0  0  0  0  0  0  0  0  0  0
    3.4348   -0.3832    1.3904 C   0  0  0  0  0  0  0  0  0  0  0  0
    4.9174   -0.7569    1.2016 C   0  0  0  0  0  0  0  0  0  0  0  0
    5.0332   -2.2224    1.6613 C   0  0  2  0  0  0  0  0  0  0  0  0
    4.7967   -3.6214   -0.8517 H   0  0  0  0  0  0  0  0  0  0  0  0
    6.5015   -3.9919   -1.0089 H   0  0  0  0  0  0  0  0  0  0  0  0
    5.9699   -2.3284   -1.0992 H   0  0  0  0  0  0  0  0  0  0  0  0
    7.0195   -2.7774    1.0797 H   0  0  0  0  0  0  0  0  0  0  0  0
    6.6050   -5.2468    1.1360 H   0  0  0  0  0  0  0  0  0  0  0  0
    6.3200   -4.4430    2.6405 H   0  0  0  0  0  0  0  0  0  0  0  0
    4.1684   -5.2522    0.6585 H   0  0  0  0  0  0  0  0  0  0  0  0
    4.2518   -7.5214    0.4658 H   0  0  0  0  0  0  0  0  0  0  0  0
    3.6069   -9.5993    1.4553 H   0  0  0  0  0  0  0  0  0  0  0  0
    5.2903   -9.4764    1.8092 H   0  0  0  0  0  0  0  0  0  0  0  0
    4.5723  -10.1001    3.8358 H   0  0  0  0  0  0  0  0  0  0  0  0
    0.5242   -8.8770    3.5253 H   0  0  0  0  0  0  0  0  0  0  0  0
    1.6865   -8.3069    2.3380 H   0  0  0  0  0  0  0  0  0  0  0  0
    1.5890   -7.5680    3.9236 H   0  0  0  0  0  0  0  0  0  0  0  0
    1.2364  -11.2704    3.7385 H   0  0  0  0  0  0  0  0  0  0  0  0
    2.9291  -11.6593    3.5009 H   0  0  0  0  0  0  0  0  0  0  0  0
    2.0396  -10.8107    2.2523 H   0  0  0  0  0  0  0  0  0  0  0  0
    1.3323   -9.7385    5.7208 H   0  0  0  0  0  0  0  0  0  0  0  0
    2.4156  -11.2766    6.5892 H   0  0  0  0  0  0  0  0  0  0  0  0
    2.3723   -7.5372    6.0191 H   0  0  0  0  0  0  0  0  0  0  0  0
    2.8531   -8.5793    7.3125 H   0  0  0  0  0  0  0  0  0  0  0  0
    4.8096   -7.3338    6.4586 H   0  0  0  0  0  0  0  0  0  0  0  0
    5.0023   -9.0473    6.3285 H   0  0  0  0  0  0  0  0  0  0  0  0
    6.9057   -7.7308    4.9613 H   0  0  0  0  0  0  0  0  0  0  0  0
    6.7071   -8.2937    3.3074 H   0  0  0  0  0  0  0  0  0  0  0  0
    6.5259   -9.4100    4.6486 H   0  0  0  0  0  0  0  0  0  0  0  0
    5.6393   -6.1262    3.9831 H   0  0  0  0  0  0  0  0  0  0  0  0
    2.6872   -5.9377    4.5242 H   0  0  0  0  0  0  0  0  0  0  0  0
    3.9888   -5.4887    5.5837 H   0  0  0  0  0  0  0  0  0  0  0  0
    3.0263   -3.5567    4.4460 H   0  0  0  0  0  0  0  0  0  0  0  0
    4.7154   -3.7401    4.1133 H   0  0  0  0  0  0  0  0  0  0  0  0
    1.2693   -4.1581    2.6343 H   0  0  0  0  0  0  0  0  0  0  0  0
    1.9234   -5.7549    2.3830 H   0  0  0  0  0  0  0  0  0  0  0  0
    1.8350   -4.6609    1.0306 H   0  0  0  0  0  0  0  0  0  0  0  0
    3.2772   -2.9017    0.6624 H   0  0  0  0  0  0  0  0  0  0  0  0
    1.5083   -2.2688    3.6746 H   0  0  0  0  0  0  0  0  0  0  0  0
    0.4084   -1.1270    5.1196 H   0  0  0  0  0  0  0  0  0  0  0  0
    0.4144    2.9447    5.1621 H   0  0  0  0  0  0  0  0  0  0  0  0
    1.3011    2.1736    3.8895 H   0  0  0  0  0  0  0  0  0  0  0  0
   -1.7547    2.5107    3.9813 H   0  0  0  0  0  0  0  0  0  0  0  0
   -0.6814    3.5407    3.0885 H   0  0  0  0  0  0  0  0  0  0  0  0
   -1.0076    0.5346    2.5324 H   0  0  0  0  0  0  0  0  0  0  0  0
   -1.8748    1.7572    1.7016 H   0  0  0  0  0  0  0  0  0  0  0  0
    0.0628    1.1141    0.5165 H   0  0  0  0  0  0  0  0  0  0  0  0
    1.0675    1.5439    1.7748 H   0  0  0  0  0  0  0  0  0  0  0  0
    2.9506   -0.3596    0.4166 H   0  0  0  0  0  0  0  0  0  0  0  0
    3.2782    0.5848    1.8700 H   0  0  0  0  0  0  0  0  0  0  0  0
    5.2203   -0.6088    0.1644 H   0  0  0  0  0  0  0  0  0  0  0  0
    5.5622   -0.1246    1.8167 H   0  0  0  0  0  0  0  0  0  0  0  0
    5.3760   -2.1655    2.6898 H   0  0  0  0  0  0  0  0  0  0  0  0
    0.2174    2.7152    0.9805 H   0  0  0  0  0  0  0  0  0  0  0  0
  1  2  1  0
  1 36  1  0
  1 37  1  0
  1 38  1  0
  2 35  1  0
  2  3  1  0
  2 39  1  6
  3  4  1  0
  3 40  1  0
  3 41  1  0
  4 21  1  0
  4  5  1  0
  4 42  1  6
  5 18  1  0
  5  6  2  0
  6  7  1  0
  6 43  1  0
  7  8  1  0
  7 44  1  0
  7 45  1  0
  8 16  1  0
  8  9  1  0
  8 46  1  1
  9 10  1  0
  9 11  1  0
  9 12  1  0
 10 47  1  0
 10 48  1  0
 10 49  1  0
 11 50  1  0
 11 51  1  0
 11 52  1  0
 12 13  1  0
 12 14  1  0
 12 53  1  6
 13 54  1  0
 14 15  1  0
 14 55  1  0
 14 56  1  0
 15 16  1  0
 15 57  1  0
 15 58  1  0
 16 17  1  1
 16 18  1  0
 17 59  1  0
 17 60  1  0
 17 61  1  0
 18 19  1  0
 18 62  1  6
 19 20  1  0
 19 63  1  0
 19 64  1  0
 20 21  1  0
 20 65  1  0
 20 66  1  0
 21 22  1  1
 21 23  1  0
 22 67  1  0
 22 68  1  0
 22 69  1  0
 23 35  1  0
 23 24  1  0
 23 70  1  6
 24 25  2  3
 24 33  1  0
 25 26  1  0
 25 71  1  0
 26 27  1  0
 27 28  2  3
 27 72  1  0
 28 29  1  0
 29 30  1  0
 29 73  1  0
 29 74  1  0
 30 31  1  0
 30 75  1  0
 30 76  1  0
 31 32  1  0
 31 77  1  0
 31 78  1  0
 32 79  1  0
 32 80  1  0
 32 86  1  0
 33 34  1  0
 33 81  1  0
 33 82  1  0
 34 35  1  0
 34 83  1  0
 34 84  1  0
 35 85  1  1
M  CHG  1  32   1
M  END
>  <i_m_ct_stereo_status>  (152) 
1

>  <s_m_source_file>  (152) 
/var/tmp/pbs.5076255.sched01/tmp2obefojl/44ql_32cm2.sdf

>  <i_m_source_file_index>  (152) 
18

>  <i_lp_mmshare_version>  (152) 
48012

>  <i_f3d_flags>  (152) 
0

>  <s_epik_input>  (152) 
W05IMl1bQ0gyXVtDSDJdW0NIMl1cTj1bQ0hdXE9cW0NIXT1DXDFbQ0gyXVtDSDJdW0NASF0oW0NASF0oW0NIM10pW0NIMl0yKVtDQEhdMVtDQF0oW0NIM10pKFtDSDJdW0NIMl1bQ0BIXTM0KVtDQEBIXTJDMz1bQ0hdW0NIMl1bQ0BASF0oW0NAQF00NVtDSDNdKUMoW0NIM10pKFtDSDNdKVtDQEBIXShbT0hdKVtDSDJdW0NIMl01

>  <s_epik_cmdline>  (152) 
J2VwaWtfcHl0aG9uJywgJy1waHQnLCAnMi4wJywgJy1waCcsICc3LjAnLCAnLXRuJywgJzgnLCAnLW1hJywgJzIwMCcsICctaW1hZScsICc8aW5maWxlLm1hZT4nLCAnLW9tYWUnLCAnPG91dGZpbGUubWFlPic=

>  <r_epik_Ionization_Penalty>  (152) 
0.037819

>  <r_epik_Ionization_Penalty_Charging>  (152) 
0.000965727

>  <r_epik_Ionization_Penalty_Neutral>  (152) 
0.0368532

>  <r_epik_State_Penalty>  (152) 
0.0503734

>  <r_epik_Charging_Adjusted_Penalty>  (152) 
0.0513391

>  <i_epik_Tot_Q>  (152) 
1

>  <i_epik_Tot_abs_Q>  (152) 
1

>  <s_epik_Chemistry_Notes>  (152) 
This compound has an imine and may undergo hydrolysis.

>  <s_lp_Force_Field>  (152) 
OPLS3e

>  <r_lp_Energy>  (152) 
68.9373

>  <b_lp_Chiralities_Consistent>  (152) 
1

>  <s_lp_Variant>  (152) 
38:0-3

>  <s_i_glide_gridfile>  (152) 
pfpi4k_grid

>  <i_i_glide_lignum>  (152) 
18

>  <i_i_glide_rotatable_bonds>  (152) 
6

>  <r_i_docking_score>  (152) 
-4.11615

>  <r_i_glide_ligand_efficiency>  (152) 
-0.117604

>  <r_i_glide_ligand_efficiency_sa>  (152) 
-0.384691

>  <r_i_glide_ligand_efficiency_ln>  (152) 
-0.903586

>  <r_i_glide_gscore>  (152) 
-4.11615

>  <r_i_glide_lipo>  (152) 
-0.532622

>  <r_i_glide_hbond>  (152) 
-0.559738

>  <r_i_glide_metal>  (152) 
-0

>  <r_i_glide_rewards>  (152) 
-0.610803

>  <r_i_glide_evdw>  (152) 
-20.3484

>  <r_i_glide_ecoul>  (152) 
-11.0623

>  <r_i_glide_erotb>  (152) 
0.34704

>  <r_i_glide_esite>  (152) 
-0.0832568

>  <r_i_glide_emodel>  (152) 
-45.9722

>  <r_i_glide_energy>  (152) 
-31.4107

>  <r_i_glide_einternal>  (152) 
4.58092

>  <r_i_glide_intrahb_reward>  (152) 
-0.5

>  <i_i_glide_confnum>  (152) 
3

>  <i_i_glide_posenum>  (152) 
1

>  <r_i_glide_eff_state_penalty>  (152) 
0

>  <ligand_id>  (152) 
38

>  <original_smiles>  (152) 
CC1CC2C3=CCC4C(C)(C)C(O)CCC4(C)C3CCC2(C)C2C(=COC=NCCCN)CCC12

>  <smiles>  (152) 
[H]OC1([H])C([H])([H])C([H])([H])C2(C([H])([H])[H])C3([H])C(=C([H])C([H])([H])C2([H])C1(C([H])([H])[H])C([H])([H])[H])C1([H])C([H])([H])C([H])(C([H])([H])[H])C2([H])C([H])([H])C([H])([H])C(=C([H])OC([H])=NC([H])([H])C([H])([H])C([H])([H])[N+]([H])([H])[H])C2([H])C1(C([H])([H])[H])C([H])([H])C3([H])[H]

$$$$
38:2:1
     RDKit          3D

 86 90  0  0  1  0  0  0  0  0999 V2000
    6.1095   -2.7697   -1.1441 C   0  0  0  0  0  0  0  0  0  0  0  0
    6.4046   -2.7450    0.3683 C   0  0  2  0  0  0  0  0  0  0  0  0
    6.3840   -4.1624    0.9866 C   0  0  0  0  0  0  0  0  0  0  0  0
    4.9544   -4.7665    1.0918 C   0  0  1  0  0  0  0  0  0  0  0  0
    5.0010   -6.2004    1.6204 C   0  0  0  0  0  0  0  0  0  0  0  0
    4.8182   -7.2477    0.7956 C   0  0  0  0  0  0  0  0  0  0  0  0
    4.8475   -8.6955    1.2201 C   0  0  0  0  0  0  0  0  0  0  0  0
    4.6693   -8.9279    2.7406 C   0  0  2  0  0  0  0  0  0  0  0  0
    3.2087   -9.3224    3.1778 C   0  0  0  0  0  0  0  0  0  0  0  0
    2.1449   -8.2900    2.7514 C   0  0  0  0  0  0  0  0  0  0  0  0
    2.8022  -10.6519    2.4975 C   0  0  0  0  0  0  0  0  0  0  0  0
    3.1289   -9.5301    4.7160 C   0  0  1  0  0  0  0  0  0  0  0  0
    3.7960  -10.7075    5.1345 O   0  0  0  0  0  0  0  0  0  0  0  0
    3.7228   -8.3590    5.5020 C   0  0  0  0  0  0  0  0  0  0  0  0
    5.1852   -8.0916    5.1082 C   0  0  0  0  0  0  0  0  0  0  0  0
    5.4458   -7.8584    3.5941 C   0  0  1  0  0  0  0  0  0  0  0  0
    6.9596   -8.1602    3.4091 C   0  0  0  0  0  0  0  0  0  0  0  0
    5.2655   -6.3558    3.1202 C   0  0  2  0  0  0  0  0  0  0  0  0
    4.3409   -5.4146    3.9398 C   0  0  0  0  0  0  0  0  0  0  0  0
    4.3171   -3.9675    3.4038 C   0  0  0  0  0  0  0  0  0  0  0  0
    3.9484   -3.8774    1.8967 C   0  0  2  0  0  0  0  0  0  0  0  0
    2.5150   -4.4111    1.6613 C   0  0  0  0  0  0  0  0  0  0  0  0
    4.0360   -2.4358    1.2958 C   0  0  1  0  0  0  0  0  0  0  0  0
    3.2862   -1.2497    1.8680 C   0  0  0  0  0  0  0  0  0  0  0  0
    2.3858   -1.2062    2.8785 C   0  0  0  0  0  0  0  0  0  0  0  0
    1.8625   -0.0217    3.3199 O   0  0  0  0  0  0  0  0  0  0  0  0
    1.1334   -0.0626    4.4912 C   0  0  0  0  0  0  0  0  0  0  0  0
    0.5147    0.9380    4.9730 N   0  0  0  0  0  0  0  0  0  0  0  0
    0.5655    2.2195    4.2973 C   0  0  0  0  0  0  0  0  0  0  0  0
   -0.7074    2.4618    3.4622 C   0  0  0  0  0  0  0  0  0  0  0  0
   -0.8586    1.5140    2.2637 C   0  0  0  0  0  0  0  0  0  0  0  0
    0.2098    1.7349    1.2836 N   0  0  0  0  0  0  0  0  0  0  0  0
    3.8312   -0.0431    1.1524 C   0  0  0  0  0  0  0  0  0  0  0  0
    5.2947   -0.3913    0.8488 C   0  0  0  0  0  0  0  0  0  0  0  0
    5.4567   -1.8725    1.2101 C   0  0  2  0  0  0  0  0  0  0  0  0
    5.0989   -3.1113   -1.3669 H   0  0  0  0  0  0  0  0  0  0  0  0
    6.7957   -3.4469   -1.6486 H   0  0  0  0  0  0  0  0  0  0  0  0
    6.2322   -1.7891   -1.6047 H   0  0  0  0  0  0  0  0  0  0  0  0
    7.4160   -2.3497    0.4863 H   0  0  0  0  0  0  0  0  0  0  0  0
    7.0341   -4.8243    0.4149 H   0  0  0  0  0  0  0  0  0  0  0  0
    6.8302   -4.1148    1.9784 H   0  0  0  0  0  0  0  0  0  0  0  0
    4.5730   -4.8357    0.0734 H   0  0  0  0  0  0  0  0  0  0  0  0
    4.6550   -7.0840   -0.2620 H   0  0  0  0  0  0  0  0  0  0  0  0
    4.1090   -9.2290    0.6307 H   0  0  0  0  0  0  0  0  0  0  0  0
    5.8034   -9.1028    0.8997 H   0  0  0  0  0  0  0  0  0  0  0  0
    5.2094   -9.8604    2.9177 H   0  0  0  0  0  0  0  0  0  0  0  0
    1.1356   -8.6776    2.9109 H   0  0  0  0  0  0  0  0  0  0  0  0
    2.2235   -8.0186    1.6976 H   0  0  0  0  0  0  0  0  0  0  0  0
    2.2077   -7.3823    3.3288 H   0  0  0  0  0  0  0  0  0  0  0  0
    1.8852  -11.0665    2.9223 H   0  0  0  0  0  0  0  0  0  0  0  0
    3.5702  -11.4176    2.5913 H   0  0  0  0  0  0  0  0  0  0  0  0
    2.6239  -10.5052    1.4374 H   0  0  0  0  0  0  0  0  0  0  0  0
    2.0849   -9.6509    5.0077 H   0  0  0  0  0  0  0  0  0  0  0  0
    3.1902  -11.4320    5.0689 H   0  0  0  0  0  0  0  0  0  0  0  0
    3.1094   -7.4675    5.3740 H   0  0  0  0  0  0  0  0  0  0  0  0
    3.6756   -8.5835    6.5694 H   0  0  0  0  0  0  0  0  0  0  0  0
    5.5633   -7.2561    5.6874 H   0  0  0  0  0  0  0  0  0  0  0  0
    5.7712   -8.9572    5.4430 H   0  0  0  0  0  0  0  0  0  0  0  0
    7.5782   -7.5317    4.0548 H   0  0  0  0  0  0  0  0  0  0  0  0
    7.2931   -7.9961    2.3834 H   0  0  0  0  0  0  0  0  0  0  0  0
    7.1987   -9.1931    3.6612 H   0  0  0  0  0  0  0  0  0  0  0  0
    6.2405   -5.8877    3.2496 H   0  0  0  0  0  0  0  0  0  0  0  0
    3.3207   -5.7747    3.9654 H   0  0  0  0  0  0  0  0  0  0  0  0
    4.6763   -5.3719    4.9771 H   0  0  0  0  0  0  0  0  0  0  0  0
    3.6278   -3.3892    4.0142 H   0  0  0  0  0  0  0  0  0  0  0  0
    5.2964   -3.5288    3.5757 H   0  0  0  0  0  0  0  0  0  0  0  0
    1.7757   -3.9052    2.2799 H   0  0  0  0  0  0  0  0  0  0  0  0
    2.4298   -5.4720    1.8825 H   0  0  0  0  0  0  0  0  0  0  0  0
    2.2209   -4.2941    0.6155 H   0  0  0  0  0  0  0  0  0  0  0  0
    3.6564   -2.5016    0.2782 H   0  0  0  0  0  0  0  0  0  0  0  0
    2.0514   -2.0762    3.4116 H   0  0  0  0  0  0  0  0  0  0  0  0
    1.0743   -1.0220    5.0108 H   0  0  0  0  0  0  0  0  0  0  0  0
    0.6471    3.0081    5.0448 H   0  0  0  0  0  0  0  0  0  0  0  0
    1.4547    2.3289    3.6804 H   0  0  0  0  0  0  0  0  0  0  0  0
   -1.5884    2.3646    4.0919 H   0  0  0  0  0  0  0  0  0  0  0  0
   -0.7166    3.4921    3.1046 H   0  0  0  0  0  0  0  0  0  0  0  0
   -0.8395    0.4733    2.5820 H   0  0  0  0  0  0  0  0  0  0  0  0
   -1.8315    1.6403    1.7903 H   0  0  0  0  0  0  0  0  0  0  0  0
    0.0533    1.1133    0.4928 H   0  0  0  0  0  0  0  0  0  0  0  0
    1.1070    1.5725    1.6966 H   0  0  0  0  0  0  0  0  0  0  0  0
    3.2983   -0.0017    0.2101 H   0  0  0  0  0  0  0  0  0  0  0  0
    3.6835    0.9031    1.6820 H   0  0  0  0  0  0  0  0  0  0  0  0
    5.5414   -0.1894   -0.1924 H   0  0  0  0  0  0  0  0  0  0  0  0
    5.9620    0.1943    1.4748 H   0  0  0  0  0  0  0  0  0  0  0  0
    5.8587   -1.8633    2.2188 H   0  0  0  0  0  0  0  0  0  0  0  0
    0.1740    2.7137    0.9640 H   0  0  0  0  0  0  0  0  0  0  0  0
  1  2  1  0
  1 36  1  0
  1 37  1  0
  1 38  1  0
  2 35  1  0
  2  3  1  0
  2 39  1  6
  3  4  1  0
  3 40  1  0
  3 41  1  0
  4 21  1  0
  4  5  1  0
  4 42  1  6
  5 18  1  0
  5  6  2  0
  6  7  1  0
  6 43  1  0
  7  8  1  0
  7 44  1  0
  7 45  1  0
  8 16  1  0
  8  9  1  0
  8 46  1  1
  9 10  1  0
  9 11  1  0
  9 12  1  0
 10 47  1  0
 10 48  1  0
 10 49  1  0
 11 50  1  0
 11 51  1  0
 11 52  1  0
 12 13  1  0
 12 14  1  0
 12 53  1  1
 13 54  1  0
 14 15  1  0
 14 55  1  0
 14 56  1  0
 15 16  1  0
 15 57  1  0
 15 58  1  0
 16 17  1  1
 16 18  1  0
 17 59  1  0
 17 60  1  0
 17 61  1  0
 18 19  1  0
 18 62  1  6
 19 20  1  0
 19 63  1  0
 19 64  1  0
 20 21  1  0
 20 65  1  0
 20 66  1  0
 21 22  1  1
 21 23  1  0
 22 67  1  0
 22 68  1  0
 22 69  1  0
 23 35  1  0
 23 24  1  0
 23 70  1  6
 24 25  2  3
 24 33  1  0
 25 26  1  0
 25 71  1  0
 26 27  1  0
 27 28  2  3
 27 72  1  0
 28 29  1  0
 29 30  1  0
 29 73  1  0
 29 74  1  0
 30 31  1  0
 30 75  1  0
 30 76  1  0
 31 32  1  0
 31 77  1  0
 31 78  1  0
 32 79  1  0
 32 80  1  0
 32 86  1  0
 33 34  1  0
 33 81  1  0
 33 82  1  0
 34 35  1  0
 34 83  1  0
 34 84  1  0
 35 85  1  1
M  CHG  1  32   1
M  END
>  <i_m_ct_stereo_status>  (153) 
1

>  <s_m_source_file>  (153) 
/var/tmp/pbs.5076255.sched01/tmp2obefojl/44ql_32cm2.sdf

>  <i_m_source_file_index>  (153) 
18

>  <i_lp_mmshare_version>  (153) 
48012

>  <i_f3d_flags>  (153) 
0

>  <s_epik_input>  (153) 
W05IMl1bQ0gyXVtDSDJdW0NIMl1cTj1bQ0hdXE9cW0NIXT1DXDFbQ0gyXVtDSDJdW0NASF0oW0NASF0oW0NIM10pW0NIMl0yKVtDQEhdMVtDQF0oW0NIM10pKFtDSDJdW0NIMl1bQ0BIXTM0KVtDQEBIXTJDMz1bQ0hdW0NIMl1bQ0BASF0oW0NAQF00NVtDSDNdKUMoW0NIM10pKFtDSDNdKVtDQEBIXShbT0hdKVtDSDJdW0NIMl01

>  <s_epik_cmdline>  (153) 
J2VwaWtfcHl0aG9uJywgJy1waHQnLCAnMi4wJywgJy1waCcsICc3LjAnLCAnLXRuJywgJzgnLCAnLW1hJywgJzIwMCcsICctaW1hZScsICc8aW5maWxlLm1hZT4nLCAnLW9tYWUnLCAnPG91dGZpbGUubWFlPic=

>  <r_epik_Ionization_Penalty>  (153) 
0.037819

>  <r_epik_Ionization_Penalty_Charging>  (153) 
0.000965727

>  <r_epik_Ionization_Penalty_Neutral>  (153) 
0.0368532

>  <r_epik_State_Penalty>  (153) 
0.0503734

>  <r_epik_Charging_Adjusted_Penalty>  (153) 
0.0513391

>  <i_epik_Tot_Q>  (153) 
1

>  <i_epik_Tot_abs_Q>  (153) 
1

>  <s_epik_Chemistry_Notes>  (153) 
This compound has an imine and may undergo hydrolysis.

>  <s_lp_Force_Field>  (153) 
OPLS3e

>  <r_lp_Energy>  (153) 
68.9373

>  <b_lp_Chiralities_Consistent>  (153) 
1

>  <s_lp_Variant>  (153) 
38:0-3

>  <s_i_glide_gridfile>  (153) 
pfpi4k_grid

>  <i_i_glide_lignum>  (153) 
18

>  <i_i_glide_rotatable_bonds>  (153) 
6

>  <r_i_docking_score>  (153) 
-3.82945

>  <r_i_glide_ligand_efficiency>  (153) 
-0.109413

>  <r_i_glide_ligand_efficiency_sa>  (153) 
-0.357897

>  <r_i_glide_ligand_efficiency_ln>  (153) 
-0.84065

>  <r_i_glide_gscore>  (153) 
-3.82945

>  <r_i_glide_lipo>  (153) 
-0.674128

>  <r_i_glide_hbond>  (153) 
-0.4

>  <r_i_glide_metal>  (153) 
-0

>  <r_i_glide_rewards>  (153) 
-0.610803

>  <r_i_glide_evdw>  (153) 
-22.5481

>  <r_i_glide_ecoul>  (153) 
-8.5802

>  <r_i_glide_erotb>  (153) 
0.34704

>  <r_i_glide_esite>  (153) 
-0.0771242

>  <r_i_glide_emodel>  (153) 
-45.1534

>  <r_i_glide_energy>  (153) 
-31.1283

>  <r_i_glide_einternal>  (153) 
4.01976

>  <r_i_glide_intrahb_reward>  (153) 
-0.5

>  <i_i_glide_confnum>  (153) 
3

>  <i_i_glide_posenum>  (153) 
8

>  <r_i_glide_eff_state_penalty>  (153) 
0

>  <ligand_id>  (153) 
38

>  <original_smiles>  (153) 
CC1CC2C3=CCC4C(C)(C)C(O)CCC4(C)C3CCC2(C)C2C(=COC=NCCCN)CCC12

>  <smiles>  (153) 
[H]OC1([H])C([H])([H])C([H])([H])C2(C([H])([H])[H])C3([H])C(=C([H])C([H])([H])C2([H])C1(C([H])([H])[H])C([H])([H])[H])C1([H])C([H])([H])C([H])(C([H])([H])[H])C2([H])C([H])([H])C([H])([H])C(=C([H])OC([H])=NC([H])([H])C([H])([H])C([H])([H])[N+]([H])([H])[H])C2([H])C1(C([H])([H])[H])C([H])([H])C3([H])[H]

$$$$
38:2:2
     RDKit          3D

 86 90  0  0  1  0  0  0  0  0999 V2000
    2.3069   -4.0175   10.5845 C   0  0  0  0  0  0  0  0  0  0  0  0
    0.9206   -4.3480    9.9837 C   0  0  2  0  0  0  0  0  0  0  0  0
    0.9708   -5.5831    9.0578 C   0  0  0  0  0  0  0  0  0  0  0  0
    1.6952   -5.3096    7.7091 C   0  0  1  0  0  0  0  0  0  0  0  0
    1.7997   -6.5858    6.8727 C   0  0  0  0  0  0  0  0  0  0  0  0
    2.9628   -7.2516    6.7645 C   0  0  0  0  0  0  0  0  0  0  0  0
    3.1729   -8.5192    5.9691 C   0  0  0  0  0  0  0  0  0  0  0  0
    2.0742   -8.7966    4.9136 C   0  0  2  0  0  0  0  0  0  0  0  0
    2.4591   -8.3725    3.4457 C   0  0  0  0  0  0  0  0  0  0  0  0
    2.8254   -6.8786    3.3160 C   0  0  0  0  0  0  0  0  0  0  0  0
    3.7107   -9.1653    2.9706 C   0  0  0  0  0  0  0  0  0  0  0  0
    1.2918   -8.6864    2.4677 C   0  0  1  0  0  0  0  0  0  0  0  0
    1.1308  -10.0754    2.2798 O   0  0  0  0  0  0  0  0  0  0  0  0
   -0.0616   -8.1399    2.9407 C   0  0  0  0  0  0  0  0  0  0  0  0
   -0.4262   -8.6744    4.3358 C   0  0  0  0  0  0  0  0  0  0  0  0
    0.6339   -8.4441    5.4503 C   0  0  1  0  0  0  0  0  0  0  0  0
    0.2970   -9.5079    6.5361 C   0  0  0  0  0  0  0  0  0  0  0  0
    0.5110   -7.0445    6.1850 C   0  0  2  0  0  0  0  0  0  0  0  0
   -0.1664   -5.8631    5.4422 C   0  0  0  0  0  0  0  0  0  0  0  0
   -0.2767   -4.5881    6.3053 C   0  0  0  0  0  0  0  0  0  0  0  0
    1.0828   -4.1216    6.8948 C   0  0  2  0  0  0  0  0  0  0  0  0
    2.0640   -3.7430    5.7489 C   0  0  0  0  0  0  0  0  0  0  0  0
    0.9718   -2.9034    7.8772 C   0  0  1  0  0  0  0  0  0  0  0  0
    0.3328   -1.5826    7.4914 C   0  0  0  0  0  0  0  0  0  0  0  0
   -0.1693   -1.1804    6.3066 C   0  0  0  0  0  0  0  0  0  0  0  0
   -0.7451    0.0552    6.1526 O   0  0  0  0  0  0  0  0  0  0  0  0
   -1.3719    0.2648    4.9505 C   0  0  0  0  0  0  0  0  0  0  0  0
   -1.2135    1.3055    4.2398 N   0  0  0  0  0  0  0  0  0  0  0  0
   -0.2677    2.3197    4.6660 C   0  0  0  0  0  0  0  0  0  0  0  0
    0.2971    3.0662    3.4388 C   0  0  0  0  0  0  0  0  0  0  0  0
    1.1166    2.1774    2.4853 C   0  0  0  0  0  0  0  0  0  0  0  0
    0.2192    1.3497    1.6653 N   0  0  0  0  0  0  0  0  0  0  0  0
    0.2483   -0.7886    8.7772 C   0  0  0  0  0  0  0  0  0  0  0  0
    0.0347   -1.8440    9.8835 C   0  0  0  0  0  0  0  0  0  0  0  0
    0.2508   -3.2085    9.1946 C   0  0  2  0  0  0  0  0  0  0  0  0
    3.0285   -3.7114    9.8289 H   0  0  0  0  0  0  0  0  0  0  0  0
    2.7144   -4.8967   11.0853 H   0  0  0  0  0  0  0  0  0  0  0  0
    2.2463   -3.2264   11.3309 H   0  0  0  0  0  0  0  0  0  0  0  0
    0.2708   -4.5905   10.8268 H   0  0  0  0  0  0  0  0  0  0  0  0
    1.4468   -6.4141    9.5797 H   0  0  0  0  0  0  0  0  0  0  0  0
   -0.0506   -5.9111    8.8689 H   0  0  0  0  0  0  0  0  0  0  0  0
    2.7180   -5.0297    7.9613 H   0  0  0  0  0  0  0  0  0  0  0  0
    3.8347   -6.9013    7.2991 H   0  0  0  0  0  0  0  0  0  0  0  0
    4.1630   -8.4724    5.5248 H   0  0  0  0  0  0  0  0  0  0  0  0
    3.2107   -9.3418    6.6824 H   0  0  0  0  0  0  0  0  0  0  0  0
    2.0697   -9.8854    4.8327 H   0  0  0  0  0  0  0  0  0  0  0  0
    3.2472   -6.6669    2.3324 H   0  0  0  0  0  0  0  0  0  0  0  0
    3.5596   -6.5680    4.0582 H   0  0  0  0  0  0  0  0  0  0  0  0
    1.9621   -6.2355    3.4156 H   0  0  0  0  0  0  0  0  0  0  0  0
    3.8610   -9.0678    1.8949 H   0  0  0  0  0  0  0  0  0  0  0  0
    3.6194  -10.2329    3.1790 H   0  0  0  0  0  0  0  0  0  0  0  0
    4.6286   -8.8218    3.4456 H   0  0  0  0  0  0  0  0  0  0  0  0
    1.5224   -8.2659    1.4868 H   0  0  0  0  0  0  0  0  0  0  0  0
    0.6325  -10.2093    1.4813 H   0  0  0  0  0  0  0  0  0  0  0  0
   -0.0603   -7.0561    2.9228 H   0  0  0  0  0  0  0  0  0  0  0  0
   -0.8390   -8.4377    2.2342 H   0  0  0  0  0  0  0  0  0  0  0  0
   -1.3966   -8.2898    4.6434 H   0  0  0  0  0  0  0  0  0  0  0  0
   -0.5816   -9.7499    4.2237 H   0  0  0  0  0  0  0  0  0  0  0  0
   -0.7309   -9.4182    6.8907 H   0  0  0  0  0  0  0  0  0  0  0  0
    0.9515   -9.4315    7.4065 H   0  0  0  0  0  0  0  0  0  0  0  0
    0.3973  -10.5248    6.1528 H   0  0  0  0  0  0  0  0  0  0  0  0
   -0.1682   -7.2115    7.0193 H   0  0  0  0  0  0  0  0  0  0  0  0
    0.3604   -5.6042    4.5328 H   0  0  0  0  0  0  0  0  0  0  0  0
   -1.1722   -6.1484    5.1409 H   0  0  0  0  0  0  0  0  0  0  0  0
   -0.7257   -3.8050    5.7018 H   0  0  0  0  0  0  0  0  0  0  0  0
   -0.9872   -4.7862    7.1054 H   0  0  0  0  0  0  0  0  0  0  0  0
    1.6519   -2.9953    5.0740 H   0  0  0  0  0  0  0  0  0  0  0  0
    2.3298   -4.6025    5.1368 H   0  0  0  0  0  0  0  0  0  0  0  0
    3.0021   -3.3496    6.1416 H   0  0  0  0  0  0  0  0  0  0  0  0
    2.0005   -2.6262    8.1237 H   0  0  0  0  0  0  0  0  0  0  0  0
   -0.1341   -1.7697    5.3997 H   0  0  0  0  0  0  0  0  0  0  0  0
   -2.0545   -0.5250    4.6313 H   0  0  0  0  0  0  0  0  0  0  0  0
   -0.7790    3.0380    5.3131 H   0  0  0  0  0  0  0  0  0  0  0  0
    0.5622    1.9033    5.2465 H   0  0  0  0  0  0  0  0  0  0  0  0
   -0.5042    3.5820    2.8992 H   0  0  0  0  0  0  0  0  0  0  0  0
    0.9556    3.8536    3.8029 H   0  0  0  0  0  0  0  0  0  0  0  0
    1.7233    2.7924    1.8216 H   0  0  0  0  0  0  0  0  0  0  0  0
    1.7956    1.5379    3.0482 H   0  0  0  0  0  0  0  0  0  0  0  0
    0.7176    0.7302    1.0372 H   0  0  0  0  0  0  0  0  0  0  0  0
   -0.3613    1.9571    1.1044 H   0  0  0  0  0  0  0  0  0  0  0  0
    1.2196   -0.3157    8.9278 H   0  0  0  0  0  0  0  0  0  0  0  0
   -0.5008    0.0017    8.7604 H   0  0  0  0  0  0  0  0  0  0  0  0
    0.7260   -1.6738   10.7072 H   0  0  0  0  0  0  0  0  0  0  0  0
   -0.9689   -1.7833   10.3060 H   0  0  0  0  0  0  0  0  0  0  0  0
   -0.7476   -3.5601    8.9389 H   0  0  0  0  0  0  0  0  0  0  0  0
   -0.3707    0.8184    2.2903 H   0  0  0  0  0  0  0  0  0  0  0  0
  1  2  1  0
  1 36  1  0
  1 37  1  0
  1 38  1  0
  2 35  1  0
  2  3  1  0
  2 39  1  1
  3  4  1  0
  3 40  1  0
  3 41  1  0
  4 21  1  0
  4  5  1  0
  4 42  1  1
  5 18  1  0
  5  6  2  0
  6  7  1  0
  6 43  1  0
  7  8  1  0
  7 44  1  0
  7 45  1  0
  8 16  1  0
  8  9  1  0
  8 46  1  6
  9 10  1  0
  9 11  1  0
  9 12  1  0
 10 47  1  0
 10 48  1  0
 10 49  1  0
 11 50  1  0
 11 51  1  0
 11 52  1  0
 12 13  1  0
 12 14  1  0
 12 53  1  6
 13 54  1  0
 14 15  1  0
 14 55  1  0
 14 56  1  0
 15 16  1  0
 15 57  1  0
 15 58  1  0
 16 17  1  1
 16 18  1  0
 17 59  1  0
 17 60  1  0
 17 61  1  0
 18 19  1  0
 18 62  1  1
 19 20  1  0
 19 63  1  0
 19 64  1  0
 20 21  1  0
 20 65  1  0
 20 66  1  0
 21 22  1  6
 21 23  1  0
 22 67  1  0
 22 68  1  0
 22 69  1  0
 23 35  1  0
 23 24  1  0
 23 70  1  1
 24 25  2  3
 24 33  1  0
 25 26  1  0
 25 71  1  0
 26 27  1  0
 27 28  2  3
 27 72  1  0
 28 29  1  0
 29 30  1  0
 29 73  1  0
 29 74  1  0
 30 31  1  0
 30 75  1  0
 30 76  1  0
 31 32  1  0
 31 77  1  0
 31 78  1  0
 32 79  1  0
 32 80  1  0
 32 86  1  0
 33 34  1  0
 33 81  1  0
 33 82  1  0
 34 35  1  0
 34 83  1  0
 34 84  1  0
 35 85  1  6
M  CHG  1  32   1
M  END
>  <i_m_ct_stereo_status>  (154) 
1

>  <s_m_source_file>  (154) 
/var/tmp/pbs.5076255.sched01/tmp2obefojl/44ql_32cm2.sdf

>  <i_m_source_file_index>  (154) 
18

>  <i_lp_mmshare_version>  (154) 
48012

>  <i_f3d_flags>  (154) 
0

>  <s_epik_input>  (154) 
W05IMl1bQ0gyXVtDSDJdW0NIMl1cTj1bQ0hdXE9cW0NIXT1DXDFbQ0gyXVtDSDJdW0NASF0oW0NASF0oW0NIM10pW0NIMl0yKVtDQEhdMVtDQF0oW0NIM10pKFtDSDJdW0NIMl1bQ0BIXTM0KVtDQEBIXTJDMz1bQ0hdW0NIMl1bQ0BASF0oW0NAQF00NVtDSDNdKUMoW0NIM10pKFtDSDNdKVtDQEBIXShbT0hdKVtDSDJdW0NIMl01

>  <s_epik_cmdline>  (154) 
J2VwaWtfcHl0aG9uJywgJy1waHQnLCAnMi4wJywgJy1waCcsICc3LjAnLCAnLXRuJywgJzgnLCAnLW1hJywgJzIwMCcsICctaW1hZScsICc8aW5maWxlLm1hZT4nLCAnLW9tYWUnLCAnPG91dGZpbGUubWFlPic=

>  <r_epik_Ionization_Penalty>  (154) 
0.037819

>  <r_epik_Ionization_Penalty_Charging>  (154) 
0.000965727

>  <r_epik_Ionization_Penalty_Neutral>  (154) 
0.0368532

>  <r_epik_State_Penalty>  (154) 
0.0503734

>  <r_epik_Charging_Adjusted_Penalty>  (154) 
0.0513391

>  <i_epik_Tot_Q>  (154) 
1

>  <i_epik_Tot_abs_Q>  (154) 
1

>  <s_epik_Chemistry_Notes>  (154) 
This compound has an imine and may undergo hydrolysis.

>  <s_lp_Force_Field>  (154) 
OPLS3e

>  <r_lp_Energy>  (154) 
68.9373

>  <b_lp_Chiralities_Consistent>  (154) 
1

>  <s_lp_Variant>  (154) 
38:0-3

>  <s_i_glide_gridfile>  (154) 
pfpi4k_grid

>  <i_i_glide_lignum>  (154) 
18

>  <i_i_glide_rotatable_bonds>  (154) 
6

>  <r_i_docking_score>  (154) 
-2.74385

>  <r_i_glide_ligand_efficiency>  (154) 
-0.0783957

>  <r_i_glide_ligand_efficiency_sa>  (154) 
-0.256438

>  <r_i_glide_ligand_efficiency_ln>  (154) 
-0.602336

>  <r_i_glide_gscore>  (154) 
-2.74385

>  <r_i_glide_lipo>  (154) 
0

>  <r_i_glide_hbond>  (154) 
-0.324727

>  <r_i_glide_metal>  (154) 
-0

>  <r_i_glide_rewards>  (154) 
-0.610803

>  <r_i_glide_evdw>  (154) 
-22.1715

>  <r_i_glide_ecoul>  (154) 
-6.15206

>  <r_i_glide_erotb>  (154) 
0.34704

>  <r_i_glide_esite>  (154) 
-0.123976

>  <r_i_glide_emodel>  (154) 
-38.2522

>  <r_i_glide_energy>  (154) 
-28.3236

>  <r_i_glide_einternal>  (154) 
5.92574

>  <r_i_glide_intrahb_reward>  (154) 
-0.5

>  <i_i_glide_confnum>  (154) 
3

>  <i_i_glide_posenum>  (154) 
15

>  <r_i_glide_eff_state_penalty>  (154) 
0

>  <ligand_id>  (154) 
38

>  <original_smiles>  (154) 
CC1CC2C3=CCC4C(C)(C)C(O)CCC4(C)C3CCC2(C)C2C(=COC=NCCCN)CCC12

>  <smiles>  (154) 
[H]OC1([H])C([H])([H])C([H])([H])C2(C([H])([H])[H])C3([H])C(=C([H])C([H])([H])C2([H])C1(C([H])([H])[H])C([H])([H])[H])C1([H])C([H])([H])C([H])(C([H])([H])[H])C2([H])C([H])([H])C([H])([H])C(=C([H])OC([H])=NC([H])([H])C([H])([H])C([H])([H])[N+]([H])([H])[H])C2([H])C1(C([H])([H])[H])C([H])([H])C3([H])[H]

$$$$
38:3:0
     RDKit          3D

 86 90  0  0  1  0  0  0  0  0999 V2000
    4.3411   -3.4171   -1.8342 C   0  0  0  0  0  0  0  0  0  0  0  0
    5.2599   -3.9511   -0.7152 C   0  0  2  0  0  0  0  0  0  0  0  0
    4.6415   -5.1479    0.0364 C   0  0  0  0  0  0  0  0  0  0  0  0
    3.4515   -4.7221    0.9377 C   0  0  1  0  0  0  0  0  0  0  0  0
    2.7819   -5.9390    1.5789 C   0  0  0  0  0  0  0  0  0  0  0  0
    1.6239   -6.4198    1.0888 C   0  0  0  0  0  0  0  0  0  0  0  0
    0.8883   -7.6162    1.6329 C   0  0  0  0  0  0  0  0  0  0  0  0
    1.2635   -7.9846    3.0842 C   0  0  2  0  0  0  0  0  0  0  0  0
    0.2950   -7.3842    4.1711 C   0  0  0  0  0  0  0  0  0  0  0  0
    0.2207   -5.8475    4.1151 C   0  0  0  0  0  0  0  0  0  0  0  0
   -1.1536   -7.9101    3.9582 C   0  0  0  0  0  0  0  0  0  0  0  0
    0.7549   -7.8098    5.5943 C   0  0  1  0  0  0  0  0  0  0  0  0
    0.5117   -9.1827    5.8523 O   0  0  0  0  0  0  0  0  0  0  0  0
    2.2380   -7.5164    5.8580 C   0  0  0  0  0  0  0  0  0  0  0  0
    3.1465   -8.1983    4.8221 C   0  0  0  0  0  0  0  0  0  0  0  0
    2.8232   -7.8941    3.3301 C   0  0  1  0  0  0  0  0  0  0  0  0
    3.4650   -9.0718    2.5407 C   0  0  0  0  0  0  0  0  0  0  0  0
    3.5165   -6.5775    2.7658 C   0  0  2  0  0  0  0  0  0  0  0  0
    4.0097   -5.4982    3.7723 C   0  0  0  0  0  0  0  0  0  0  0  0
    4.6897   -4.2937    3.0932 C   0  0  0  0  0  0  0  0  0  0  0  0
    3.8087   -3.6248    1.9991 C   0  0  2  0  0  0  0  0  0  0  0  0
    2.4804   -3.0869    2.6204 C   0  0  0  0  0  0  0  0  0  0  0  0
    4.5518   -2.4588    1.2477 C   0  0  1  0  0  0  0  0  0  0  0  0
    5.2323   -1.3089    2.0083 C   0  0  0  0  0  0  0  0  0  0  0  0
    5.0537   -0.8351    3.2308 C   0  0  0  0  0  0  0  0  0  0  0  0
    4.0946   -1.2558    4.1138 O   0  0  0  0  0  0  0  0  0  0  0  0
    3.9136   -0.5186    5.2425 C   0  0  0  0  0  0  0  0  0  0  0  0
    3.6276    0.7243    5.2841 N   0  0  0  0  0  0  0  0  0  0  0  0
    3.4248    1.5122    4.0850 C   0  0  0  0  0  0  0  0  0  0  0  0
    2.0055    1.2493    3.5267 C   0  0  0  0  0  0  0  0  0  0  0  0
    1.7114    2.1129    2.3025 C   0  0  0  0  0  0  0  0  0  0  0  0
    0.4255    1.7408    1.6869 N   0  0  0  0  0  0  0  0  0  0  0  0
    6.2718   -0.7245    1.0637 C   0  0  0  0  0  0  0  0  0  0  0  0
    6.3546   -1.6502   -0.1527 C   0  0  0  0  0  0  0  0  0  0  0  0
    5.6951   -2.9297    0.3385 C   0  0  2  0  0  0  0  0  0  0  0  0
    3.4368   -2.9563   -1.4462 H   0  0  0  0  0  0  0  0  0  0  0  0
    4.0474   -4.2369   -2.4847 H   0  0  0  0  0  0  0  0  0  0  0  0
    4.8551   -2.6908   -2.4591 H   0  0  0  0  0  0  0  0  0  0  0  0
    6.1734   -4.2876   -1.2046 H   0  0  0  0  0  0  0  0  0  0  0  0
    4.3221   -5.9094   -0.6762 H   0  0  0  0  0  0  0  0  0  0  0  0
    5.4130   -5.6250    0.6410 H   0  0  0  0  0  0  0  0  0  0  0  0
    2.7075   -4.2817    0.2764 H   0  0  0  0  0  0  0  0  0  0  0  0
    1.1896   -5.9666    0.2120 H   0  0  0  0  0  0  0  0  0  0  0  0
   -0.1783   -7.4598    1.5058 H   0  0  0  0  0  0  0  0  0  0  0  0
    1.1474   -8.4418    0.9822 H   0  0  0  0  0  0  0  0  0  0  0  0
    1.0415   -9.0522    3.1454 H   0  0  0  0  0  0  0  0  0  0  0  0
   -0.4489   -5.4546    4.8807 H   0  0  0  0  0  0  0  0  0  0  0  0
   -0.1362   -5.5081    3.1496 H   0  0  0  0  0  0  0  0  0  0  0  0
    1.1824   -5.3821    4.2689 H   0  0  0  0  0  0  0  0  0  0  0  0
   -1.7772   -7.6961    4.8246 H   0  0  0  0  0  0  0  0  0  0  0  0
   -1.1770   -8.9906    3.8128 H   0  0  0  0  0  0  0  0  0  0  0  0
   -1.6457   -7.4605    3.0989 H   0  0  0  0  0  0  0  0  0  0  0  0
    0.1644   -7.2732    6.3353 H   0  0  0  0  0  0  0  0  0  0  0  0
    0.9142   -9.7025    5.1729 H   0  0  0  0  0  0  0  0  0  0  0  0
    2.4042   -6.4449    5.8911 H   0  0  0  0  0  0  0  0  0  0  0  0
    2.5029   -7.8726    6.8538 H   0  0  0  0  0  0  0  0  0  0  0  0
    4.1891   -7.9801    5.0419 H   0  0  0  0  0  0  0  0  0  0  0  0
    3.0553   -9.2752    4.9894 H   0  0  0  0  0  0  0  0  0  0  0  0
    4.5331   -9.1541    2.7449 H   0  0  0  0  0  0  0  0  0  0  0  0
    3.3526   -8.9572    1.4620 H   0  0  0  0  0  0  0  0  0  0  0  0
    3.0233  -10.0311    2.8062 H   0  0  0  0  0  0  0  0  0  0  0  0
    4.4535   -6.9079    2.3159 H   0  0  0  0  0  0  0  0  0  0  0  0
    3.2058   -5.1217    4.3907 H   0  0  0  0  0  0  0  0  0  0  0  0
    4.7318   -5.9377    4.4563 H   0  0  0  0  0  0  0  0  0  0  0  0
    4.9723   -3.5756    3.8603 H   0  0  0  0  0  0  0  0  0  0  0  0
    5.6317   -4.6341    2.6662 H   0  0  0  0  0  0  0  0  0  0  0  0
    2.5279   -3.0250    3.7035 H   0  0  0  0  0  0  0  0  0  0  0  0
    1.6310   -3.7253    2.4040 H   0  0  0  0  0  0  0  0  0  0  0  0
    2.2273   -2.0970    2.2461 H   0  0  0  0  0  0  0  0  0  0  0  0
    3.8113   -1.9715    0.6024 H   0  0  0  0  0  0  0  0  0  0  0  0
    5.6428   -0.0220    3.6365 H   0  0  0  0  0  0  0  0  0  0  0  0
    4.0200   -1.0892    6.1619 H   0  0  0  0  0  0  0  0  0  0  0  0
    3.5138    2.5788    4.3736 H   0  0  0  0  0  0  0  0  0  0  0  0
    4.1991    1.2835    3.3403 H   0  0  0  0  0  0  0  0  0  0  0  0
    1.9373    0.2004    3.2345 H   0  0  0  0  0  0  0  0  0  0  0  0
    1.2328    1.4145    4.2852 H   0  0  0  0  0  0  0  0  0  0  0  0
    1.6822    3.1728    2.5603 H   0  0  0  0  0  0  0  0  0  0  0  0
    2.4955    1.9823    1.5554 H   0  0  0  0  0  0  0  0  0  0  0  0
    0.2265    2.3857    0.8992 H   0  0  0  0  0  0  0  0  0  0  0  0
   -0.3260    1.8545    2.3576 H   0  0  0  0  0  0  0  0  0  0  0  0
    5.9869    0.2851    0.7675 H   0  0  0  0  0  0  0  0  0  0  0  0
    7.2248   -0.6758    1.5874 H   0  0  0  0  0  0  0  0  0  0  0  0
    5.7908   -1.2091   -0.9754 H   0  0  0  0  0  0  0  0  0  0  0  0
    7.3804   -1.8084   -0.4790 H   0  0  0  0  0  0  0  0  0  0  0  0
    6.4371   -3.4185    0.9650 H   0  0  0  0  0  0  0  0  0  0  0  0
    0.4483    0.7924    1.3315 H   0  0  0  0  0  0  0  0  0  0  0  0
  1  2  1  0
  1 36  1  0
  1 37  1  0
  1 38  1  0
  2 35  1  0
  2  3  1  0
  2 39  1  6
  3  4  1  0
  3 40  1  0
  3 41  1  0
  4 21  1  0
  4  5  1  0
  4 42  1  6
  5 18  1  0
  5  6  2  0
  6  7  1  0
  6 43  1  0
  7  8  1  0
  7 44  1  0
  7 45  1  0
  8 16  1  0
  8  9  1  0
  8 46  1  6
  9 10  1  0
  9 11  1  0
  9 12  1  0
 10 47  1  0
 10 48  1  0
 10 49  1  0
 11 50  1  0
 11 51  1  0
 11 52  1  0
 12 13  1  0
 12 14  1  0
 12 53  1  1
 13 54  1  0
 14 15  1  0
 14 55  1  0
 14 56  1  0
 15 16  1  0
 15 57  1  0
 15 58  1  0
 16 17  1  6
 16 18  1  0
 17 59  1  0
 17 60  1  0
 17 61  1  0
 18 19  1  0
 18 62  1  6
 19 20  1  0
 19 63  1  0
 19 64  1  0
 20 21  1  0
 20 65  1  0
 20 66  1  0
 21 22  1  1
 21 23  1  0
 22 67  1  0
 22 68  1  0
 22 69  1  0
 23 35  1  0
 23 24  1  0
 23 70  1  6
 24 25  2  3
 24 33  1  0
 25 26  1  0
 25 71  1  0
 26 27  1  0
 27 28  2  3
 27 72  1  0
 28 29  1  0
 29 30  1  0
 29 73  1  0
 29 74  1  0
 30 31  1  0
 30 75  1  0
 30 76  1  0
 31 32  1  0
 31 77  1  0
 31 78  1  0
 32 79  1  0
 32 80  1  0
 32 86  1  0
 33 34  1  0
 33 81  1  0
 33 82  1  0
 34 35  1  0
 34 83  1  0
 34 84  1  0
 35 85  1  1
M  CHG  1  32   1
M  END
>  <i_m_ct_stereo_status>  (155) 
1

>  <s_m_source_file>  (155) 
/var/tmp/pbs.5076255.sched01/tmp2obefojl/44ql_32cm2.sdf

>  <i_m_source_file_index>  (155) 
19

>  <i_lp_mmshare_version>  (155) 
48012

>  <i_f3d_flags>  (155) 
0

>  <s_epik_input>  (155) 
W05IMl1bQ0gyXVtDSDJdW0NIMl1cTj1bQ0hdXE9cW0NIXT1DXDFbQ0gyXVtDSDJdW0NASF0oW0NASF0oW0NIM10pW0NIMl0yKVtDQEhdMVtDQF0oW0NIM10pKFtDSDJdW0NIMl1bQ0BIXTM0KVtDQEBIXTJDMz1bQ0hdW0NIMl1bQ0BASF0oW0NAQF00NVtDSDNdKUMoW0NIM10pKFtDSDNdKVtDQEBIXShbT0hdKVtDSDJdW0NIMl01

>  <s_epik_cmdline>  (155) 
J2VwaWtfcHl0aG9uJywgJy1waHQnLCAnMi4wJywgJy1waCcsICc3LjAnLCAnLXRuJywgJzgnLCAnLW1hJywgJzIwMCcsICctaW1hZScsICc8aW5maWxlLm1hZT4nLCAnLW9tYWUnLCAnPG91dGZpbGUubWFlPic=

>  <r_epik_Ionization_Penalty>  (155) 
0.037819

>  <r_epik_Ionization_Penalty_Charging>  (155) 
0.000965727

>  <r_epik_Ionization_Penalty_Neutral>  (155) 
0.0368532

>  <r_epik_State_Penalty>  (155) 
0.0503734

>  <r_epik_Charging_Adjusted_Penalty>  (155) 
0.0513391

>  <i_epik_Tot_Q>  (155) 
1

>  <i_epik_Tot_abs_Q>  (155) 
1

>  <s_epik_Chemistry_Notes>  (155) 
This compound has an imine and may undergo hydrolysis.

>  <s_lp_Force_Field>  (155) 
OPLS3e

>  <r_lp_Energy>  (155) 
73.3309

>  <b_lp_Chiralities_Consistent>  (155) 
1

>  <s_lp_Variant>  (155) 
38:0-4

>  <s_i_glide_gridfile>  (155) 
pfpi4k_grid

>  <i_i_glide_lignum>  (155) 
19

>  <i_i_glide_rotatable_bonds>  (155) 
6

>  <r_i_docking_score>  (155) 
-2.23038

>  <r_i_glide_ligand_efficiency>  (155) 
-0.0637251

>  <r_i_glide_ligand_efficiency_sa>  (155) 
-0.208449

>  <r_i_glide_ligand_efficiency_ln>  (155) 
-0.489618

>  <r_i_glide_gscore>  (155) 
-2.23038

>  <r_i_glide_lipo>  (155) 
-0.413406

>  <r_i_glide_hbond>  (155) 
-0.140631

>  <r_i_glide_metal>  (155) 
-0

>  <r_i_glide_rewards>  (155) 
-0.110803

>  <r_i_glide_evdw>  (155) 
-23.7197

>  <r_i_glide_ecoul>  (155) 
-4.33487

>  <r_i_glide_erotb>  (155) 
0.34704

>  <r_i_glide_esite>  (155) 
-0.0763645

>  <r_i_glide_emodel>  (155) 
-30.4925

>  <r_i_glide_energy>  (155) 
-28.0546

>  <r_i_glide_einternal>  (155) 
3.96834

>  <r_i_glide_intrahb_reward>  (155) 
-0

>  <i_i_glide_confnum>  (155) 
1

>  <i_i_glide_posenum>  (155) 
30

>  <r_i_glide_eff_state_penalty>  (155) 
0

>  <ligand_id>  (155) 
38

>  <original_smiles>  (155) 
CC1CC2C3=CCC4C(C)(C)C(O)CCC4(C)C3CCC2(C)C2C(=COC=NCCCN)CCC12

>  <smiles>  (155) 
[H]OC1([H])C([H])([H])C([H])([H])C2(C([H])([H])[H])C3([H])C(=C([H])C([H])([H])C2([H])C1(C([H])([H])[H])C([H])([H])[H])C1([H])C([H])([H])C([H])(C([H])([H])[H])C2([H])C([H])([H])C([H])([H])C(=C([H])OC([H])=NC([H])([H])C([H])([H])C([H])([H])[N+]([H])([H])[H])C2([H])C1(C([H])([H])[H])C([H])([H])C3([H])[H]

$$$$
38:4:0
     RDKit          3D

 87 91  0  0  1  0  0  0  0  0999 V2000
    6.2614   -3.0547   -1.5628 C   0  0  0  0  0  0  0  0  0  0  0  0
    6.6096   -3.0060   -0.0605 C   0  0  2  0  0  0  0  0  0  0  0  0
    6.4385   -4.3789    0.6264 C   0  0  0  0  0  0  0  0  0  0  0  0
    4.9498   -4.8057    0.7948 C   0  0  1  0  0  0  0  0  0  0  0  0
    4.8460   -6.2072    1.3939 C   0  0  0  0  0  0  0  0  0  0  0  0
    4.5336   -7.2610    0.6200 C   0  0  0  0  0  0  0  0  0  0  0  0
    4.4121   -8.6830    1.1100 C   0  0  0  0  0  0  0  0  0  0  0  0
    4.2247   -8.8215    2.6399 C   0  0  2  0  0  0  0  0  0  0  0  0
    2.7347   -9.0174    3.1023 C   0  0  0  0  0  0  0  0  0  0  0  0
    1.7994   -7.8823    2.6390 C   0  0  0  0  0  0  0  0  0  0  0  0
    2.1517  -10.3126    2.4843 C   0  0  0  0  0  0  0  0  0  0  0  0
    2.6454   -9.1507    4.6469 C   0  0  1  0  0  0  0  0  0  0  0  0
    3.1803  -10.3816    5.1047 O   0  0  0  0  0  0  0  0  0  0  0  0
    3.3834   -8.0225    5.3826 C   0  0  0  0  0  0  0  0  0  0  0  0
    4.8639   -7.9457    4.9632 C   0  0  0  0  0  0  0  0  0  0  0  0
    5.1297   -7.8105    3.4369 C   0  0  1  0  0  0  0  0  0  0  0  0
    6.5976   -8.2944    3.2565 C   0  0  0  0  0  0  0  0  0  0  0  0
    5.1223   -6.3216    2.8934 C   0  0  2  0  0  0  0  0  0  0  0  0
    4.3418   -5.2388    3.6859 C   0  0  0  0  0  0  0  0  0  0  0  0
    4.4744   -3.8260    3.0763 C   0  0  0  0  0  0  0  0  0  0  0  0
    4.0795   -3.7665    1.5741 C   0  0  2  0  0  0  0  0  0  0  0  0
    2.5826   -4.1320    1.3990 C   0  0  0  0  0  0  0  0  0  0  0  0
    4.3143   -2.3860    0.8946 C   0  0  1  0  0  0  0  0  0  0  0  0
    3.7244   -1.1122    1.4235 C   0  0  0  0  0  0  0  0  0  0  0  0
    2.8591   -0.9145    2.4516 C   0  0  0  0  0  0  0  0  0  0  0  0
    2.5173    0.3393    2.8949 O   0  0  0  0  0  0  0  0  0  0  0  0
    1.4703    0.4480    3.7577 C   0  0  0  0  0  0  0  0  0  0  0  0
    1.1196    1.6128    4.2062 N   0  0  0  0  0  0  0  0  0  0  0  0
   -0.1827    1.8763    4.8555 C   0  0  0  0  0  0  0  0  0  0  0  0
   -1.2516    2.4357    3.8759 C   0  0  0  0  0  0  0  0  0  0  0  0
   -1.5226    1.6382    2.5701 C   0  0  0  0  0  0  0  0  0  0  0  0
   -0.4049    1.7493    1.6287 N   0  0  0  0  0  0  0  0  0  0  0  0
    4.3726   -0.0216    0.6363 C   0  0  0  0  0  0  0  0  0  0  0  0
    5.7850   -0.5226    0.3081 C   0  0  0  0  0  0  0  0  0  0  0  0
    5.7916   -1.9945    0.7538 C   0  0  2  0  0  0  0  0  0  0  0  0
    5.2102   -3.2851   -1.7440 H   0  0  0  0  0  0  0  0  0  0  0  0
    6.8483   -3.8344   -2.0585 H   0  0  0  0  0  0  0  0  0  0  0  0
    6.4905   -2.1181   -2.0715 H   0  0  0  0  0  0  0  0  0  0  0  0
    7.6615   -2.7230    0.0115 H   0  0  0  0  0  0  0  0  0  0  0  0
    6.9860   -5.1385    0.0742 H   0  0  0  0  0  0  0  0  0  0  0  0
    6.9162   -4.3337    1.6075 H   0  0  0  0  0  0  0  0  0  0  0  0
    4.5300   -4.8733   -0.2099 H   0  0  0  0  0  0  0  0  0  0  0  0
    4.3815   -7.1253   -0.4434 H   0  0  0  0  0  0  0  0  0  0  0  0
    3.6114   -9.1635    0.5539 H   0  0  0  0  0  0  0  0  0  0  0  0
    5.3216   -9.2003    0.8061 H   0  0  0  0  0  0  0  0  0  0  0  0
    4.6550   -9.8002    2.8546 H   0  0  0  0  0  0  0  0  0  0  0  0
    0.7558   -8.1314    2.8483 H   0  0  0  0  0  0  0  0  0  0  0  0
    1.8790   -7.6939    1.5669 H   0  0  0  0  0  0  0  0  0  0  0  0
    2.0006   -6.9544    3.1568 H   0  0  0  0  0  0  0  0  0  0  0  0
    1.2101  -10.5969    2.9620 H   0  0  0  0  0  0  0  0  0  0  0  0
    2.8355  -11.1579    2.5911 H   0  0  0  0  0  0  0  0  0  0  0  0
    1.9460  -10.1978    1.4202 H   0  0  0  0  0  0  0  0  0  0  0  0
    1.5954   -9.1341    4.9427 H   0  0  0  0  0  0  0  0  0  0  0  0
    2.7053  -10.6722    5.8706 H   0  0  0  0  0  0  0  0  0  0  0  0
    2.8835   -7.0689    5.2182 H   0  0  0  0  0  0  0  0  0  0  0  0
    3.3269   -8.1856    6.4624 H   0  0  0  0  0  0  0  0  0  0  0  0
    5.3460   -7.1327    5.5015 H   0  0  0  0  0  0  0  0  0  0  0  0
    5.3510   -8.8549    5.3318 H   0  0  0  0  0  0  0  0  0  0  0  0
    7.2925   -7.7117    3.8695 H   0  0  0  0  0  0  0  0  0  0  0  0
    6.9343   -8.2144    2.2200 H   0  0  0  0  0  0  0  0  0  0  0  0
    6.7178   -9.3384    3.5538 H   0  0  0  0  0  0  0  0  0  0  0  0
    6.1504   -5.9697    2.9784 H   0  0  0  0  0  0  0  0  0  0  0  0
    3.2860   -5.4718    3.7545 H   0  0  0  0  0  0  0  0  0  0  0  0
    4.7116   -5.1877    4.7121 H   0  0  0  0  0  0  0  0  0  0  0  0
    3.8781   -3.1446    3.6765 H   0  0  0  0  0  0  0  0  0  0  0  0
    5.5030   -3.4993    3.2071 H   0  0  0  0  0  0  0  0  0  0  0  0
    1.9247   -3.5216    2.0185 H   0  0  0  0  0  0  0  0  0  0  0  0
    2.3835   -5.1699    1.6633 H   0  0  0  0  0  0  0  0  0  0  0  0
    2.2643   -4.0115    0.3589 H   0  0  0  0  0  0  0  0  0  0  0  0
    3.9004   -2.4586   -0.1107 H   0  0  0  0  0  0  0  0  0  0  0  0
    2.4544   -1.7280    3.0364 H   0  0  0  0  0  0  0  0  0  0  0  0
    0.8952   -0.4541    3.9812 H   0  0  0  0  0  0  0  0  0  0  0  0
   -0.5426    0.9487    5.3060 H   0  0  0  0  0  0  0  0  0  0  0  0
   -0.0192    2.5874    5.6678 H   0  0  0  0  0  0  0  0  0  0  0  0
   -2.1949    2.4341    4.4141 H   0  0  0  0  0  0  0  0  0  0  0  0
   -1.0901    3.4940    3.6403 H   0  0  0  0  0  0  0  0  0  0  0  0
   -1.6905    0.5861    2.8194 H   0  0  0  0  0  0  0  0  0  0  0  0
   -2.4556    1.9916    2.0916 H   0  0  0  0  0  0  0  0  0  0  0  0
   -0.5528    1.2358    0.7594 H   0  0  0  0  0  0  0  0  0  0  0  0
    0.4423    1.4307    2.0705 H   0  0  0  0  0  0  0  0  0  0  0  0
    3.8404    0.0450   -0.3087 H   0  0  0  0  0  0  0  0  0  0  0  0
    4.3152    0.9328    1.1569 H   0  0  0  0  0  0  0  0  0  0  0  0
    5.9810   -0.3942   -0.7567 H   0  0  0  0  0  0  0  0  0  0  0  0
    6.5437    0.0355    0.8501 H   0  0  0  0  0  0  0  0  0  0  0  0
    6.2199   -1.9742    1.7579 H   0  0  0  0  0  0  0  0  0  0  0  0
   -0.2830    2.7001    1.3254 H   0  0  0  0  0  0  0  0  0  0  0  0
    1.6916    2.4149    3.9383 H   0  0  0  0  0  0  0  0  0  0  0  0
  1  2  1  0
  1 36  1  0
  1 37  1  0
  1 38  1  0
  2 35  1  0
  2  3  1  0
  2 39  1  6
  3  4  1  0
  3 40  1  0
  3 41  1  0
  4 21  1  0
  4  5  1  0
  4 42  1  6
  5 18  1  0
  5  6  2  0
  6  7  1  0
  6 43  1  0
  7  8  1  0
  7 44  1  0
  7 45  1  0
  8 16  1  0
  8  9  1  0
  8 46  1  1
  9 10  1  0
  9 11  1  0
  9 12  1  0
 10 47  1  0
 10 48  1  0
 10 49  1  0
 11 50  1  0
 11 51  1  0
 11 52  1  0
 12 13  1  0
 12 14  1  0
 12 53  1  6
 13 54  1  0
 14 15  1  0
 14 55  1  0
 14 56  1  0
 15 16  1  0
 15 57  1  0
 15 58  1  0
 16 17  1  1
 16 18  1  0
 17 59  1  0
 17 60  1  0
 17 61  1  0
 18 19  1  0
 18 62  1  6
 19 20  1  0
 19 63  1  0
 19 64  1  0
 20 21  1  0
 20 65  1  0
 20 66  1  0
 21 22  1  1
 21 23  1  0
 22 67  1  0
 22 68  1  0
 22 69  1  0
 23 35  1  0
 23 24  1  0
 23 70  1  6
 24 25  2  3
 24 33  1  0
 25 26  1  0
 25 71  1  0
 26 27  1  0
 27 28  2  3
 27 72  1  0
 28 29  1  0
 28 87  1  0
 29 30  1  0
 29 73  1  0
 29 74  1  0
 30 31  1  0
 30 75  1  0
 30 76  1  0
 31 32  1  0
 31 77  1  0
 31 78  1  0
 32 79  1  0
 32 80  1  0
 32 86  1  0
 33 34  1  0
 33 81  1  0
 33 82  1  0
 34 35  1  0
 34 83  1  0
 34 84  1  0
 35 85  1  1
M  CHG  2  28   1  32   1
M  END
>  <i_m_ct_stereo_status>  (156) 
1

>  <s_m_source_file>  (156) 
/var/tmp/pbs.5076255.sched01/tmp2obefojl/44ql_32cm2.sdf

>  <i_m_source_file_index>  (156) 
20

>  <i_lp_mmshare_version>  (156) 
48012

>  <i_f3d_flags>  (156) 
0

>  <s_epik_input>  (156) 
W05IMl1bQ0gyXVtDSDJdW0NIMl1cTj1bQ0hdXE9cW0NIXT1DXDFbQ0gyXVtDSDJdW0NASF0oW0NASF0oW0NIM10pW0NIMl0yKVtDQEhdMVtDQF0oW0NIM10pKFtDSDJdW0NIMl1bQ0BIXTM0KVtDQEBIXTJDMz1bQ0hdW0NIMl1bQ0BASF0oW0NAQF00NVtDSDNdKUMoW0NIM10pKFtDSDNdKVtDQEBIXShbT0hdKVtDSDJdW0NIMl01

>  <s_epik_cmdline>  (156) 
J2VwaWtfcHl0aG9uJywgJy1waHQnLCAnMi4wJywgJy1waCcsICc3LjAnLCAnLXRuJywgJzgnLCAnLW1hJywgJzIwMCcsICctaW1hZScsICc8aW5maWxlLm1hZT4nLCAnLW9tYWUnLCAnPG91dGZpbGUubWFlPic=

>  <r_epik_Ionization_Penalty>  (156) 
1.66561

>  <r_epik_Ionization_Penalty_Charging>  (156) 
1.66561

>  <r_epik_Ionization_Penalty_Neutral>  (156) 
2.61483e-06

>  <r_epik_State_Penalty>  (156) 
1.49159

>  <r_epik_Charging_Adjusted_Penalty>  (156) 
3.1572

>  <i_epik_Tot_Q>  (156) 
2

>  <i_epik_Tot_abs_Q>  (156) 
2

>  <s_epik_Chemistry_Notes>  (156) 
This compound has an imine and may undergo hydrolysis.

>  <s_lp_Force_Field>  (156) 
OPLS3e

>  <r_lp_Energy>  (156) 
77.524

>  <b_lp_Chiralities_Consistent>  (156) 
1

>  <s_lp_Variant>  (156) 
38:0-5

>  <s_i_glide_gridfile>  (156) 
pfpi4k_grid

>  <i_i_glide_lignum>  (156) 
20

>  <i_i_glide_rotatable_bonds>  (156) 
6

>  <r_i_docking_score>  (156) 
-3.77347

>  <r_i_glide_ligand_efficiency>  (156) 
-0.107813

>  <r_i_glide_ligand_efficiency_sa>  (156) 
-0.352665

>  <r_i_glide_ligand_efficiency_ln>  (156) 
-0.82836

>  <r_i_glide_gscore>  (156) 
-3.77347

>  <r_i_glide_lipo>  (156) 
-0.899628

>  <r_i_glide_hbond>  (156) 
-0.4

>  <r_i_glide_metal>  (156) 
-0

>  <r_i_glide_rewards>  (156) 
-0.103931

>  <r_i_glide_evdw>  (156) 
-21.8192

>  <r_i_glide_ecoul>  (156) 
-10.219

>  <r_i_glide_erotb>  (156) 
0.345722

>  <r_i_glide_esite>  (156) 
-0.0918247

>  <r_i_glide_emodel>  (156) 
-37.888

>  <r_i_glide_energy>  (156) 
-32.0382

>  <r_i_glide_einternal>  (156) 
5.48279

>  <r_i_glide_intrahb_reward>  (156) 
-0

>  <i_i_glide_confnum>  (156) 
2

>  <i_i_glide_posenum>  (156) 
27

>  <r_i_glide_eff_state_penalty>  (156) 
0

>  <ligand_id>  (156) 
38

>  <original_smiles>  (156) 
CC1CC2C3=CCC4C(C)(C)C(O)CCC4(C)C3CCC2(C)C2C(=COC=NCCCN)CCC12

>  <smiles>  (156) 
[H]OC1([H])C([H])([H])C([H])([H])C2(C([H])([H])[H])C3([H])C(=C([H])C([H])([H])C2([H])C1(C([H])([H])[H])C([H])([H])[H])C1([H])C([H])([H])C([H])(C([H])([H])[H])C2([H])C([H])([H])C([H])([H])C(=C([H])OC([H])=[N+]([H])C([H])([H])C([H])([H])C([H])([H])[N+]([H])([H])[H])C2([H])C1(C([H])([H])[H])C([H])([H])C3([H])[H]

$$$$
38:4:1
     RDKit          3D

 87 91  0  0  1  0  0  0  0  0999 V2000
    3.4211   -3.6909    9.7819 C   0  0  0  0  0  0  0  0  0  0  0  0
    1.9207   -4.0017    9.6345 C   0  0  2  0  0  0  0  0  0  0  0  0
    1.6698   -5.2465    8.7520 C   0  0  0  0  0  0  0  0  0  0  0  0
    1.9560   -4.9997    7.2436 C   0  0  1  0  0  0  0  0  0  0  0  0
    1.7930   -6.2858    6.4367 C   0  0  0  0  0  0  0  0  0  0  0  0
    2.8619   -6.9782    6.0079 C   0  0  0  0  0  0  0  0  0  0  0  0
    2.8008   -8.2558    5.2103 C   0  0  0  0  0  0  0  0  0  0  0  0
    1.4497   -8.5201    4.5166 C   0  0  2  0  0  0  0  0  0  0  0  0
    1.4005   -8.1100    2.9973 C   0  0  0  0  0  0  0  0  0  0  0  0
    1.7385   -6.6289    2.7534 C   0  0  0  0  0  0  0  0  0  0  0  0
    2.4449   -8.9247    2.1885 C   0  0  0  0  0  0  0  0  0  0  0  0
   -0.0065   -8.3965    2.4061 C   0  0  1  0  0  0  0  0  0  0  0  0
   -0.2713   -9.7764    2.3212 O   0  0  0  0  0  0  0  0  0  0  0  0
   -1.1469   -7.8068    3.2222 C   0  0  0  0  0  0  0  0  0  0  0  0
   -1.0752   -8.3299    4.6523 C   0  0  0  0  0  0  0  0  0  0  0  0
    0.2413   -8.1258    5.4366 C   0  0  1  0  0  0  0  0  0  0  0  0
    0.1976   -9.1783    6.5847 C   0  0  0  0  0  0  0  0  0  0  0  0
    0.3570   -6.7272    6.1673 C   0  0  2  0  0  0  0  0  0  0  0  0
   -0.5032   -5.5472    5.6551 C   0  0  0  0  0  0  0  0  0  0  0  0
   -0.3366   -4.2577    6.4860 C   0  0  0  0  0  0  0  0  0  0  0  0
    1.1449   -3.8083    6.6322 C   0  0  2  0  0  0  0  0  0  0  0  0
    1.7415   -3.4557    5.2438 C   0  0  0  0  0  0  0  0  0  0  0  0
    1.3624   -2.5835    7.5845 C   0  0  1  0  0  0  0  0  0  0  0  0
    0.6630   -1.2548    7.3904 C   0  0  0  0  0  0  0  0  0  0  0  0
   -0.1413   -0.8576    6.3885 C   0  0  0  0  0  0  0  0  0  0  0  0
   -0.7695    0.3564    6.4013 O   0  0  0  0  0  0  0  0  0  0  0  0
   -1.2321    0.8533    5.2421 C   0  0  0  0  0  0  0  0  0  0  0  0
   -1.8264    2.0076    5.2298 N   0  0  0  0  0  0  0  0  0  0  0  0
   -2.2295    2.7133    3.9915 C   0  0  0  0  0  0  0  0  0  0  0  0
   -1.2870    3.8794    3.6389 C   0  0  0  0  0  0  0  0  0  0  0  0
    0.2049    3.4989    3.5722 C   0  0  0  0  0  0  0  0  0  0  0  0
    0.4752    2.5430    2.4767 N   0  0  0  0  0  0  0  0  0  0  0  0
    0.9621   -0.4451    8.6296 C   0  0  0  0  0  0  0  0  0  0  0  0
    1.0854   -1.4794    9.7627 C   0  0  0  0  0  0  0  0  0  0  0  0
    1.0720   -2.8541    9.0618 C   0  0  2  0  0  0  0  0  0  0  0  0
    3.8895   -3.4072    8.8411 H   0  0  0  0  0  0  0  0  0  0  0  0
    3.9458   -4.5697   10.1467 H   0  0  0  0  0  0  0  0  0  0  0  0
    3.6039   -2.8934   10.5010 H   0  0  0  0  0  0  0  0  0  0  0  0
    1.5477   -4.2255   10.6363 H   0  0  0  0  0  0  0  0  0  0  0  0
    2.2650   -6.0827    9.1169 H   0  0  0  0  0  0  0  0  0  0  0  0
    0.6350   -5.5608    8.8791 H   0  0  0  0  0  0  0  0  0  0  0  0
    3.0094   -4.7377    7.1662 H   0  0  0  0  0  0  0  0  0  0  0  0
    3.8606   -6.6465    6.2513 H   0  0  0  0  0  0  0  0  0  0  0  0
    3.6232   -8.2516    4.5055 H   0  0  0  0  0  0  0  0  0  0  0  0
    3.0177   -9.0685    5.8971 H   0  0  0  0  0  0  0  0  0  0  0  0
    1.3971   -9.6105    4.4556 H   0  0  0  0  0  0  0  0  0  0  0  0
    1.8360   -6.4176    1.6871 H   0  0  0  0  0  0  0  0  0  0  0  0
    2.6702   -6.3345    3.2328 H   0  0  0  0  0  0  0  0  0  0  0  0
    0.9661   -5.9738    3.1211 H   0  0  0  0  0  0  0  0  0  0  0  0
    2.2810   -8.8416    1.1144 H   0  0  0  0  0  0  0  0  0  0  0  0
    2.4094   -9.9855    2.4266 H   0  0  0  0  0  0  0  0  0  0  0  0
    3.4658   -8.5935    2.3734 H   0  0  0  0  0  0  0  0  0  0  0  0
   -0.0630   -7.9960    1.3945 H   0  0  0  0  0  0  0  0  0  0  0  0
   -0.1042  -10.0174    1.4175 H   0  0  0  0  0  0  0  0  0  0  0  0
   -1.1357   -6.7225    3.1942 H   0  0  0  0  0  0  0  0  0  0  0  0
   -2.1015   -8.1161    2.7845 H   0  0  0  0  0  0  0  0  0  0  0  0
   -1.9144   -7.9439    5.2006 H   0  0  0  0  0  0  0  0  0  0  0  0
   -1.2346   -9.4013    4.5633 H   0  0  0  0  0  0  0  0  0  0  0  0
   -0.6799   -9.0632    7.2219 H   0  0  0  0  0  0  0  0  0  0  0  0
    1.0717   -9.1179    7.2334 H   0  0  0  0  0  0  0  0  0  0  0  0
    0.1609  -10.1985    6.2044 H   0  0  0  0  0  0  0  0  0  0  0  0
   -0.0459   -6.8814    7.1672 H   0  0  0  0  0  0  0  0  0  0  0  0
   -0.2752   -5.3020    4.6262 H   0  0  0  0  0  0  0  0  0  0  0  0
   -1.5521   -5.8427    5.6937 H   0  0  0  0  0  0  0  0  0  0  0  0
   -0.9424   -3.4741    6.0374 H   0  0  0  0  0  0  0  0  0  0  0  0
   -0.7678   -4.4371    7.4669 H   0  0  0  0  0  0  0  0  0  0  0  0
    1.1518   -2.7203    4.7012 H   0  0  0  0  0  0  0  0  0  0  0  0
    1.8105   -4.3264    4.5991 H   0  0  0  0  0  0  0  0  0  0  0  0
    2.7581   -3.0672    5.3286 H   0  0  0  0  0  0  0  0  0  0  0  0
    2.4151   -2.3215    7.5076 H   0  0  0  0  0  0  0  0  0  0  0  0
   -0.4003   -1.4735    5.5443 H   0  0  0  0  0  0  0  0  0  0  0  0
   -1.0395    0.3062    4.3315 H   0  0  0  0  0  0  0  0  0  0  0  0
   -2.2341    2.0019    3.1723 H   0  0  0  0  0  0  0  0  0  0  0  0
   -3.2562    3.0555    4.1230 H   0  0  0  0  0  0  0  0  0  0  0  0
   -1.6015    4.3411    2.6982 H   0  0  0  0  0  0  0  0  0  0  0  0
   -1.3834    4.6618    4.3856 H   0  0  0  0  0  0  0  0  0  0  0  0
    0.8156    4.3840    3.4069 H   0  0  0  0  0  0  0  0  0  0  0  0
    0.5578    3.0869    4.5095 H   0  0  0  0  0  0  0  0  0  0  0  0
    1.4489    2.2946    2.4497 H   0  0  0  0  0  0  0  0  0  0  0  0
    0.2533    3.1272    1.6360 H   0  0  0  0  0  0  0  0  0  0  0  0
    1.9327    0.0213    8.4738 H   0  0  0  0  0  0  0  0  0  0  0  0
    0.2387    0.3510    8.8209 H   0  0  0  0  0  0  0  0  0  0  0  0
    1.9981   -1.3115   10.3352 H   0  0  0  0  0  0  0  0  0  0  0  0
    0.2472   -1.3963   10.4597 H   0  0  0  0  0  0  0  0  0  0  0  0
    0.0404   -3.1822    9.1214 H   0  0  0  0  0  0  0  0  0  0  0  0
   -0.1022    1.7370    2.5071 H   0  0  0  0  0  0  0  0  0  0  0  0
   -1.9320    2.5105    6.1056 H   0  0  0  0  0  0  0  0  0  0  0  0
  1  2  1  0
  1 36  1  0
  1 37  1  0
  1 38  1  0
  2 35  1  0
  2  3  1  0
  2 39  1  1
  3  4  1  0
  3 40  1  0
  3 41  1  0
  4 21  1  0
  4  5  1  0
  4 42  1  1
  5 18  1  0
  5  6  2  0
  6  7  1  0
  6 43  1  0
  7  8  1  0
  7 44  1  0
  7 45  1  0
  8 16  1  0
  8  9  1  0
  8 46  1  6
  9 10  1  0
  9 11  1  0
  9 12  1  0
 10 47  1  0
 10 48  1  0
 10 49  1  0
 11 50  1  0
 11 51  1  0
 11 52  1  0
 12 13  1  0
 12 14  1  0
 12 53  1  6
 13 54  1  0
 14 15  1  0
 14 55  1  0
 14 56  1  0
 15 16  1  0
 15 57  1  0
 15 58  1  0
 16 17  1  1
 16 18  1  0
 17 59  1  0
 17 60  1  0
 17 61  1  0
 18 19  1  0
 18 62  1  1
 19 20  1  0
 19 63  1  0
 19 64  1  0
 20 21  1  0
 20 65  1  0
 20 66  1  0
 21 22  1  6
 21 23  1  0
 22 67  1  0
 22 68  1  0
 22 69  1  0
 23 35  1  0
 23 24  1  0
 23 70  1  1
 24 25  2  3
 24 33  1  0
 25 26  1  0
 25 71  1  0
 26 27  1  0
 27 28  2  3
 27 72  1  0
 28 29  1  0
 28 87  1  0
 29 30  1  0
 29 73  1  0
 29 74  1  0
 30 31  1  0
 30 75  1  0
 30 76  1  0
 31 32  1  0
 31 77  1  0
 31 78  1  0
 32 79  1  0
 32 80  1  0
 32 86  1  0
 33 34  1  0
 33 81  1  0
 33 82  1  0
 34 35  1  0
 34 83  1  0
 34 84  1  0
 35 85  1  6
M  CHG  2  28   1  32   1
M  END
>  <i_m_ct_stereo_status>  (157) 
1

>  <s_m_source_file>  (157) 
/var/tmp/pbs.5076255.sched01/tmp2obefojl/44ql_32cm2.sdf

>  <i_m_source_file_index>  (157) 
20

>  <i_lp_mmshare_version>  (157) 
48012

>  <i_f3d_flags>  (157) 
0

>  <s_epik_input>  (157) 
W05IMl1bQ0gyXVtDSDJdW0NIMl1cTj1bQ0hdXE9cW0NIXT1DXDFbQ0gyXVtDSDJdW0NASF0oW0NASF0oW0NIM10pW0NIMl0yKVtDQEhdMVtDQF0oW0NIM10pKFtDSDJdW0NIMl1bQ0BIXTM0KVtDQEBIXTJDMz1bQ0hdW0NIMl1bQ0BASF0oW0NAQF00NVtDSDNdKUMoW0NIM10pKFtDSDNdKVtDQEBIXShbT0hdKVtDSDJdW0NIMl01

>  <s_epik_cmdline>  (157) 
J2VwaWtfcHl0aG9uJywgJy1waHQnLCAnMi4wJywgJy1waCcsICc3LjAnLCAnLXRuJywgJzgnLCAnLW1hJywgJzIwMCcsICctaW1hZScsICc8aW5maWxlLm1hZT4nLCAnLW9tYWUnLCAnPG91dGZpbGUubWFlPic=

>  <r_epik_Ionization_Penalty>  (157) 
1.66561

>  <r_epik_Ionization_Penalty_Charging>  (157) 
1.66561

>  <r_epik_Ionization_Penalty_Neutral>  (157) 
2.61483e-06

>  <r_epik_State_Penalty>  (157) 
1.49159

>  <r_epik_Charging_Adjusted_Penalty>  (157) 
3.1572

>  <i_epik_Tot_Q>  (157) 
2

>  <i_epik_Tot_abs_Q>  (157) 
2

>  <s_epik_Chemistry_Notes>  (157) 
This compound has an imine and may undergo hydrolysis.

>  <s_lp_Force_Field>  (157) 
OPLS3e

>  <r_lp_Energy>  (157) 
77.524

>  <b_lp_Chiralities_Consistent>  (157) 
1

>  <s_lp_Variant>  (157) 
38:0-5

>  <s_i_glide_gridfile>  (157) 
pfpi4k_grid

>  <i_i_glide_lignum>  (157) 
20

>  <i_i_glide_rotatable_bonds>  (157) 
6

>  <r_i_docking_score>  (157) 
-3.08285

>  <r_i_glide_ligand_efficiency>  (157) 
-0.0880813

>  <r_i_glide_ligand_efficiency_sa>  (157) 
-0.28812

>  <r_i_glide_ligand_efficiency_ln>  (157) 
-0.676753

>  <r_i_glide_gscore>  (157) 
-3.08285

>  <r_i_glide_lipo>  (157) 
-0.00210507

>  <r_i_glide_hbond>  (157) 
-0.502094

>  <r_i_glide_metal>  (157) 
-0

>  <r_i_glide_rewards>  (157) 
-0.103931

>  <r_i_glide_evdw>  (157) 
-17.0225

>  <r_i_glide_ecoul>  (157) 
-12.216

>  <r_i_glide_erotb>  (157) 
0.345722

>  <r_i_glide_esite>  (157) 
-0.136915

>  <r_i_glide_emodel>  (157) 
-33.5774

>  <r_i_glide_energy>  (157) 
-29.2385

>  <r_i_glide_einternal>  (157) 
5.6467

>  <r_i_glide_intrahb_reward>  (157) 
-0

>  <i_i_glide_confnum>  (157) 
2

>  <i_i_glide_posenum>  (157) 
28

>  <r_i_glide_eff_state_penalty>  (157) 
0

>  <ligand_id>  (157) 
38

>  <original_smiles>  (157) 
CC1CC2C3=CCC4C(C)(C)C(O)CCC4(C)C3CCC2(C)C2C(=COC=NCCCN)CCC12

>  <smiles>  (157) 
[H]OC1([H])C([H])([H])C([H])([H])C2(C([H])([H])[H])C3([H])C(=C([H])C([H])([H])C2([H])C1(C([H])([H])[H])C([H])([H])[H])C1([H])C([H])([H])C([H])(C([H])([H])[H])C2([H])C([H])([H])C([H])([H])C(=C([H])OC([H])=[N+]([H])C([H])([H])C([H])([H])C([H])([H])[N+]([H])([H])[H])C2([H])C1(C([H])([H])[H])C([H])([H])C3([H])[H]

$$$$
38:4:2
     RDKit          3D

 87 91  0  0  1  0  0  0  0  0999 V2000
    2.4946   -3.6298   10.4544 C   0  0  0  0  0  0  0  0  0  0  0  0
    1.0920   -4.0417    9.9722 C   0  0  2  0  0  0  0  0  0  0  0  0
    1.1292   -5.3199    9.1034 C   0  0  0  0  0  0  0  0  0  0  0  0
    1.7500   -5.0915    7.6945 C   0  0  1  0  0  0  0  0  0  0  0  0
    1.8554   -6.4045    6.9172 C   0  0  0  0  0  0  0  0  0  0  0  0
    3.0352   -7.0328    6.7804 C   0  0  0  0  0  0  0  0  0  0  0  0
    3.2411   -8.3293    6.0395 C   0  0  0  0  0  0  0  0  0  0  0  0
    2.1057   -8.6992    5.0597 C   0  0  2  0  0  0  0  0  0  0  0  0
    2.3990   -8.3281    3.5571 C   0  0  0  0  0  0  0  0  0  0  0  0
    2.6934   -6.8297    3.3446 C   0  0  0  0  0  0  0  0  0  0  0  0
    3.6559   -9.0852    3.0500 C   0  0  0  0  0  0  0  0  0  0  0  0
    1.1995   -8.7401    2.6581 C   0  0  1  0  0  0  0  0  0  0  0  0
    1.1089  -10.1468    2.5146 O   0  0  0  0  0  0  0  0  0  0  0  0
   -0.1476   -8.2178    3.1742 C   0  0  0  0  0  0  0  0  0  0  0  0
   -0.4194   -8.6939    4.6084 C   0  0  0  0  0  0  0  0  0  0  0  0
    0.6842   -8.3712    5.6544 C   0  0  1  0  0  0  0  0  0  0  0  0
    0.4406   -9.3904    6.8034 C   0  0  0  0  0  0  0  0  0  0  0  0
    0.5480   -6.9448    6.3335 C   0  0  2  0  0  0  0  0  0  0  0  0
   -0.2296   -5.8289    5.5856 C   0  0  0  0  0  0  0  0  0  0  0  0
   -0.3366   -4.5178    6.3945 C   0  0  0  0  0  0  0  0  0  0  0  0
    1.0384   -3.9688    6.8667 C   0  0  2  0  0  0  0  0  0  0  0  0
    1.9229   -3.6105    5.6426 C   0  0  0  0  0  0  0  0  0  0  0  0
    0.9460   -2.7093    7.7946 C   0  0  1  0  0  0  0  0  0  0  0  0
    0.2325   -1.4372    7.3932 C   0  0  0  0  0  0  0  0  0  0  0  0
   -0.3302   -1.1114    6.2128 C   0  0  0  0  0  0  0  0  0  0  0  0
   -1.0025    0.0624    6.0313 O   0  0  0  0  0  0  0  0  0  0  0  0
   -1.0581    0.5870    4.7962 C   0  0  0  0  0  0  0  0  0  0  0  0
   -1.7608    1.6455    4.5765 N   0  0  0  0  0  0  0  0  0  0  0  0
   -1.8060    2.3687    3.2924 C   0  0  0  0  0  0  0  0  0  0  0  0
   -1.3054    3.8163    3.4204 C   0  0  0  0  0  0  0  0  0  0  0  0
    0.1654    3.9307    3.8666 C   0  0  0  0  0  0  0  0  0  0  0  0
    1.0820    3.3451    2.8831 N   0  0  0  0  0  0  0  0  0  0  0  0
    0.1902   -0.5819    8.6371 C   0  0  0  0  0  0  0  0  0  0  0  0
    0.1011   -1.5810    9.8074 C   0  0  0  0  0  0  0  0  0  0  0  0
    0.3310   -2.9697    9.1734 C   0  0  2  0  0  0  0  0  0  0  0  0
    3.1547   -3.3364    9.6394 H   0  0  0  0  0  0  0  0  0  0  0  0
    2.9699   -4.4637   10.9653 H   0  0  0  0  0  0  0  0  0  0  0  0
    2.4549   -2.8058   11.1659 H   0  0  0  0  0  0  0  0  0  0  0  0
    0.5071   -4.2674   10.8652 H   0  0  0  0  0  0  0  0  0  0  0  0
    1.6702   -6.1068    9.6286 H   0  0  0  0  0  0  0  0  0  0  0  0
    0.1128   -5.6976    8.9943 H   0  0  0  0  0  0  0  0  0  0  0  0
    2.7742   -4.7596    7.8590 H   0  0  0  0  0  0  0  0  0  0  0  0
    3.9265   -6.6265    7.2388 H   0  0  0  0  0  0  0  0  0  0  0  0
    4.2065   -8.2846    5.5475 H   0  0  0  0  0  0  0  0  0  0  0  0
    3.3425   -9.1099    6.7890 H   0  0  0  0  0  0  0  0  0  0  0  0
    2.1438   -9.7900    5.0343 H   0  0  0  0  0  0  0  0  0  0  0  0
    3.0263   -6.6356    2.3233 H   0  0  0  0  0  0  0  0  0  0  0  0
    3.4674   -6.4603    4.0166 H   0  0  0  0  0  0  0  0  0  0  0  0
    1.8169   -6.2193    3.4925 H   0  0  0  0  0  0  0  0  0  0  0  0
    3.7417   -9.0382    1.9637 H   0  0  0  0  0  0  0  0  0  0  0  0
    3.6289  -10.1416    3.3109 H   0  0  0  0  0  0  0  0  0  0  0  0
    4.5830   -8.6816    3.4536 H   0  0  0  0  0  0  0  0  0  0  0  0
    1.3526   -8.3507    1.6525 H   0  0  0  0  0  0  0  0  0  0  0  0
    1.0955  -10.5470    3.3709 H   0  0  0  0  0  0  0  0  0  0  0  0
   -0.1899   -7.1311    3.1041 H   0  0  0  0  0  0  0  0  0  0  0  0
   -0.9479   -8.5793    2.5243 H   0  0  0  0  0  0  0  0  0  0  0  0
   -1.3824   -8.3177    4.9395 H   0  0  0  0  0  0  0  0  0  0  0  0
   -0.5501   -9.7786    4.5570 H   0  0  0  0  0  0  0  0  0  0  0  0
   -0.5713   -9.3191    7.2065 H   0  0  0  0  0  0  0  0  0  0  0  0
    1.1355   -9.2562    7.6330 H   0  0  0  0  0  0  0  0  0  0  0  0
    0.5574  -10.4171    6.4600 H   0  0  0  0  0  0  0  0  0  0  0  0
   -0.0665   -7.0994    7.2199 H   0  0  0  0  0  0  0  0  0  0  0  0
    0.2239   -5.5917    4.6323 H   0  0  0  0  0  0  0  0  0  0  0  0
   -1.2439   -6.1677    5.3696 H   0  0  0  0  0  0  0  0  0  0  0  0
   -0.8606   -3.7815    5.7909 H   0  0  0  0  0  0  0  0  0  0  0  0
   -0.9793   -4.7059    7.2514 H   0  0  0  0  0  0  0  0  0  0  0  0
    1.4334   -2.9282    4.9499 H   0  0  0  0  0  0  0  0  0  0  0  0
    2.1939   -4.4897    5.0637 H   0  0  0  0  0  0  0  0  0  0  0  0
    2.8660   -3.1520    5.9466 H   0  0  0  0  0  0  0  0  0  0  0  0
    1.9717   -2.3825    7.9595 H   0  0  0  0  0  0  0  0  0  0  0  0
   -0.3528   -1.7550    5.3493 H   0  0  0  0  0  0  0  0  0  0  0  0
   -0.4627    0.1171    4.0146 H   0  0  0  0  0  0  0  0  0  0  0  0
   -1.1999    1.8342    2.5617 H   0  0  0  0  0  0  0  0  0  0  0  0
   -2.8353    2.3467    2.9376 H   0  0  0  0  0  0  0  0  0  0  0  0
   -1.4450    4.3431    2.4747 H   0  0  0  0  0  0  0  0  0  0  0  0
   -1.9226    4.3494    4.1396 H   0  0  0  0  0  0  0  0  0  0  0  0
    0.4346    4.9765    4.0187 H   0  0  0  0  0  0  0  0  0  0  0  0
    0.3128    3.4493    4.8318 H   0  0  0  0  0  0  0  0  0  0  0  0
    2.0486    3.4389    3.1581 H   0  0  0  0  0  0  0  0  0  0  0  0
    0.8956    3.8151    1.9742 H   0  0  0  0  0  0  0  0  0  0  0  0
    1.1431   -0.0570    8.6968 H   0  0  0  0  0  0  0  0  0  0  0  0
   -0.5973    0.1723    8.6286 H   0  0  0  0  0  0  0  0  0  0  0  0
    0.8442   -1.3417   10.5677 H   0  0  0  0  0  0  0  0  0  0  0  0
   -0.8721   -1.5370   10.3026 H   0  0  0  0  0  0  0  0  0  0  0  0
   -0.6639   -3.3712    9.0027 H   0  0  0  0  0  0  0  0  0  0  0  0
    0.8682    2.3732    2.7254 H   0  0  0  0  0  0  0  0  0  0  0  0
   -2.2868    2.0516    5.3505 H   0  0  0  0  0  0  0  0  0  0  0  0
  1  2  1  0
  1 36  1  0
  1 37  1  0
  1 38  1  0
  2 35  1  0
  2  3  1  0
  2 39  1  1
  3  4  1  0
  3 40  1  0
  3 41  1  0
  4 21  1  0
  4  5  1  0
  4 42  1  1
  5 18  1  0
  5  6  2  0
  6  7  1  0
  6 43  1  0
  7  8  1  0
  7 44  1  0
  7 45  1  0
  8 16  1  0
  8  9  1  0
  8 46  1  6
  9 10  1  0
  9 11  1  0
  9 12  1  0
 10 47  1  0
 10 48  1  0
 10 49  1  0
 11 50  1  0
 11 51  1  0
 11 52  1  0
 12 13  1  0
 12 14  1  0
 12 53  1  6
 13 54  1  0
 14 15  1  0
 14 55  1  0
 14 56  1  0
 15 16  1  0
 15 57  1  0
 15 58  1  0
 16 17  1  1
 16 18  1  0
 17 59  1  0
 17 60  1  0
 17 61  1  0
 18 19  1  0
 18 62  1  1
 19 20  1  0
 19 63  1  0
 19 64  1  0
 20 21  1  0
 20 65  1  0
 20 66  1  0
 21 22  1  6
 21 23  1  0
 22 67  1  0
 22 68  1  0
 22 69  1  0
 23 35  1  0
 23 24  1  0
 23 70  1  1
 24 25  2  3
 24 33  1  0
 25 26  1  0
 25 71  1  0
 26 27  1  0
 27 28  2  3
 27 72  1  0
 28 29  1  0
 28 87  1  0
 29 30  1  0
 29 73  1  0
 29 74  1  0
 30 31  1  0
 30 75  1  0
 30 76  1  0
 31 32  1  0
 31 77  1  0
 31 78  1  0
 32 79  1  0
 32 80  1  0
 32 86  1  0
 33 34  1  0
 33 81  1  0
 33 82  1  0
 34 35  1  0
 34 83  1  0
 34 84  1  0
 35 85  1  6
M  CHG  2  28   1  32   1
M  END
>  <i_m_ct_stereo_status>  (158) 
1

>  <s_m_source_file>  (158) 
/var/tmp/pbs.5076255.sched01/tmp2obefojl/44ql_32cm2.sdf

>  <i_m_source_file_index>  (158) 
20

>  <i_lp_mmshare_version>  (158) 
48012

>  <i_f3d_flags>  (158) 
0

>  <s_epik_input>  (158) 
W05IMl1bQ0gyXVtDSDJdW0NIMl1cTj1bQ0hdXE9cW0NIXT1DXDFbQ0gyXVtDSDJdW0NASF0oW0NASF0oW0NIM10pW0NIMl0yKVtDQEhdMVtDQF0oW0NIM10pKFtDSDJdW0NIMl1bQ0BIXTM0KVtDQEBIXTJDMz1bQ0hdW0NIMl1bQ0BASF0oW0NAQF00NVtDSDNdKUMoW0NIM10pKFtDSDNdKVtDQEBIXShbT0hdKVtDSDJdW0NIMl01

>  <s_epik_cmdline>  (158) 
J2VwaWtfcHl0aG9uJywgJy1waHQnLCAnMi4wJywgJy1waCcsICc3LjAnLCAnLXRuJywgJzgnLCAnLW1hJywgJzIwMCcsICctaW1hZScsICc8aW5maWxlLm1hZT4nLCAnLW9tYWUnLCAnPG91dGZpbGUubWFlPic=

>  <r_epik_Ionization_Penalty>  (158) 
1.66561

>  <r_epik_Ionization_Penalty_Charging>  (158) 
1.66561

>  <r_epik_Ionization_Penalty_Neutral>  (158) 
2.61483e-06

>  <r_epik_State_Penalty>  (158) 
1.49159

>  <r_epik_Charging_Adjusted_Penalty>  (158) 
3.1572

>  <i_epik_Tot_Q>  (158) 
2

>  <i_epik_Tot_abs_Q>  (158) 
2

>  <s_epik_Chemistry_Notes>  (158) 
This compound has an imine and may undergo hydrolysis.

>  <s_lp_Force_Field>  (158) 
OPLS3e

>  <r_lp_Energy>  (158) 
77.524

>  <b_lp_Chiralities_Consistent>  (158) 
1

>  <s_lp_Variant>  (158) 
38:0-5

>  <s_i_glide_gridfile>  (158) 
pfpi4k_grid

>  <i_i_glide_lignum>  (158) 
20

>  <i_i_glide_rotatable_bonds>  (158) 
6

>  <r_i_docking_score>  (158) 
-2.37965

>  <r_i_glide_ligand_efficiency>  (158) 
-0.06799

>  <r_i_glide_ligand_efficiency_sa>  (158) 
-0.2224

>  <r_i_glide_ligand_efficiency_ln>  (158) 
-0.522386

>  <r_i_glide_gscore>  (158) 
-2.37965

>  <r_i_glide_lipo>  (158) 
0

>  <r_i_glide_hbond>  (158) 
-0.2

>  <r_i_glide_metal>  (158) 
-0

>  <r_i_glide_rewards>  (158) 
-0.103931

>  <r_i_glide_evdw>  (158) 
-20.8129

>  <r_i_glide_ecoul>  (158) 
-8.21132

>  <r_i_glide_erotb>  (158) 
0.345722

>  <r_i_glide_esite>  (158) 
-0.149097

>  <r_i_glide_emodel>  (158) 
-32.5876

>  <r_i_glide_energy>  (158) 
-29.0242

>  <r_i_glide_einternal>  (158) 
4.38961

>  <r_i_glide_intrahb_reward>  (158) 
-0

>  <i_i_glide_confnum>  (158) 
2

>  <i_i_glide_posenum>  (158) 
18

>  <r_i_glide_eff_state_penalty>  (158) 
0

>  <ligand_id>  (158) 
38

>  <original_smiles>  (158) 
CC1CC2C3=CCC4C(C)(C)C(O)CCC4(C)C3CCC2(C)C2C(=COC=NCCCN)CCC12

>  <smiles>  (158) 
[H]OC1([H])C([H])([H])C([H])([H])C2(C([H])([H])[H])C3([H])C(=C([H])C([H])([H])C2([H])C1(C([H])([H])[H])C([H])([H])[H])C1([H])C([H])([H])C([H])(C([H])([H])[H])C2([H])C([H])([H])C([H])([H])C(=C([H])OC([H])=[N+]([H])C([H])([H])C([H])([H])C([H])([H])[N+]([H])([H])[H])C2([H])C1(C([H])([H])[H])C([H])([H])C3([H])[H]

$$$$
38:5:0
     RDKit          3D

 87 91  0  0  1  0  0  0  0  0999 V2000
    1.2392  -10.8458    4.7013 C   0  0  0  0  0  0  0  0  0  0  0  0
    1.3144  -10.0789    3.3626 C   0  0  2  0  0  0  0  0  0  0  0  0
    2.7701   -9.8068    2.9341 C   0  0  0  0  0  0  0  0  0  0  0  0
    3.4794   -8.7333    3.8200 C   0  0  1  0  0  0  0  0  0  0  0  0
    4.9422   -8.5609    3.4368 C   0  0  0  0  0  0  0  0  0  0  0  0
    5.9252   -9.0937    4.1832 C   0  0  0  0  0  0  0  0  0  0  0  0
    7.4030   -9.0033    3.8876 C   0  0  0  0  0  0  0  0  0  0  0  0
    7.7735   -7.8923    2.8921 C   0  0  2  0  0  0  0  0  0  0  0  0
    8.3131   -6.5802    3.5308 C   0  0  0  0  0  0  0  0  0  0  0  0
    7.3156   -5.9258    4.5062 C   0  0  0  0  0  0  0  0  0  0  0  0
    9.6156   -6.8479    4.3137 C   0  0  0  0  0  0  0  0  0  0  0  0
    8.6660   -5.5686    2.4106 C   0  0  1  0  0  0  0  0  0  0  0  0
    9.7928   -5.8518    1.6530 O   0  0  0  0  0  0  0  0  0  0  0  0
    7.5154   -5.2974    1.4307 C   0  0  0  0  0  0  0  0  0  0  0  0
    7.0928   -6.6062    0.7735 C   0  0  0  0  0  0  0  0  0  0  0  0
    6.7148   -7.7751    1.7378 C   0  0  1  0  0  0  0  0  0  0  0  0
    6.8411   -9.0788    0.8947 C   0  0  0  0  0  0  0  0  0  0  0  0
    5.1921   -7.7843    2.1557 C   0  0  2  0  0  0  0  0  0  0  0  0
    4.3937   -6.4609    2.1102 C   0  0  0  0  0  0  0  0  0  0  0  0
    2.9200   -6.6605    2.4957 C   0  0  0  0  0  0  0  0  0  0  0  0
    2.7450   -7.3601    3.8704 C   0  0  2  0  0  0  0  0  0  0  0  0
    3.3554   -6.5085    5.0158 C   0  0  0  0  0  0  0  0  0  0  0  0
    1.2667   -7.6822    4.2237 C   0  0  1  0  0  0  0  0  0  0  0  0
    0.1991   -6.6250    4.2994 C   0  0  0  0  0  0  0  0  0  0  0  0
    0.2098   -5.3004    4.2370 C   0  0  0  0  0  0  0  0  0  0  0  0
    1.2689   -4.4747    3.9630 O   0  0  0  0  0  0  0  0  0  0  0  0
    1.0520   -3.1434    4.0751 C   0  0  0  0  0  0  0  0  0  0  0  0
    1.9567   -2.3566    3.5821 N   0  0  0  0  0  0  0  0  0  0  0  0
    1.8996   -0.9039    3.6584 C   0  0  0  0  0  0  0  0  0  0  0  0
    0.8994   -0.3219    2.6413 C   0  0  0  0  0  0  0  0  0  0  0  0
    1.0029    1.2147    2.4562 C   0  0  0  0  0  0  0  0  0  0  0  0
   -0.1232    1.7409    1.6869 N   0  0  0  0  0  0  0  0  0  0  0  0
   -1.0879   -7.4057    4.4756 C   0  0  0  0  0  0  0  0  0  0  0  0
   -0.9131   -8.6566    3.6059 C   0  0  0  0  0  0  0  0  0  0  0  0
    0.5947   -8.7196    3.2995 C   0  0  2  0  0  0  0  0  0  0  0  0
    1.6292  -10.2775    5.5479 H   0  0  0  0  0  0  0  0  0  0  0  0
    1.8293  -11.7632    4.6384 H   0  0  0  0  0  0  0  0  0  0  0  0
    0.2180  -11.1432    4.9436 H   0  0  0  0  0  0  0  0  0  0  0  0
    0.8653  -10.7147    2.6086 H   0  0  0  0  0  0  0  0  0  0  0  0
    3.3456  -10.7344    2.9465 H   0  0  0  0  0  0  0  0  0  0  0  0
    2.7733   -9.4811    1.8901 H   0  0  0  0  0  0  0  0  0  0  0  0
    3.4848   -9.1216    4.8342 H   0  0  0  0  0  0  0  0  0  0  0  0
    5.6823   -9.6533    5.0679 H   0  0  0  0  0  0  0  0  0  0  0  0
    7.9359   -8.8742    4.8211 H   0  0  0  0  0  0  0  0  0  0  0  0
    7.7164   -9.9663    3.4865 H   0  0  0  0  0  0  0  0  0  0  0  0
    8.6600   -8.2605    2.3832 H   0  0  0  0  0  0  0  0  0  0  0  0
    7.7879   -5.0987    5.0430 H   0  0  0  0  0  0  0  0  0  0  0  0
    6.9493   -6.6365    5.2528 H   0  0  0  0  0  0  0  0  0  0  0  0
    6.4515   -5.4993    4.0005 H   0  0  0  0  0  0  0  0  0  0  0  0
   10.1131   -5.9145    4.5654 H   0  0  0  0  0  0  0  0  0  0  0  0
   10.3178   -7.4436    3.7345 H   0  0  0  0  0  0  0  0  0  0  0  0
    9.4254   -7.3687    5.2502 H   0  0  0  0  0  0  0  0  0  0  0  0
    8.9632   -4.6506    2.8983 H   0  0  0  0  0  0  0  0  0  0  0  0
   10.0259   -6.8079    1.6652 H   0  0  0  0  0  0  0  0  0  0  0  0
    6.6513   -4.8223    1.8860 H   0  0  0  0  0  0  0  0  0  0  0  0
    7.8325   -4.6027    0.6421 H   0  0  0  0  0  0  0  0  0  0  0  0
    6.2477   -6.3662    0.1181 H   0  0  0  0  0  0  0  0  0  0  0  0
    7.9146   -6.9076    0.1104 H   0  0  0  0  0  0  0  0  0  0  0  0
    6.0492   -9.0855    0.1298 H   0  0  0  0  0  0  0  0  0  0  0  0
    6.7197  -10.0062    1.5069 H   0  0  0  0  0  0  0  0  0  0  0  0
    7.8167   -9.0577    0.3824 H   0  0  0  0  0  0  0  0  0  0  0  0
    4.6659   -8.3722    1.3982 H   0  0  0  0  0  0  0  0  0  0  0  0
    4.8354   -5.7225    2.7649 H   0  0  0  0  0  0  0  0  0  0  0  0
    4.4177   -6.0379    1.1019 H   0  0  0  0  0  0  0  0  0  0  0  0
    2.4512   -5.6853    2.4457 H   0  0  0  0  0  0  0  0  0  0  0  0
    2.4437   -7.2377    1.7038 H   0  0  0  0  0  0  0  0  0  0  0  0
    2.9488   -5.5012    5.0873 H   0  0  0  0  0  0  0  0  0  0  0  0
    4.4325   -6.3932    4.9035 H   0  0  0  0  0  0  0  0  0  0  0  0
    3.1994   -6.9842    5.9863 H   0  0  0  0  0  0  0  0  0  0  0  0
    1.2763   -8.0891    5.2444 H   0  0  0  0  0  0  0  0  0  0  0  0
   -0.7045   -4.7977    4.3619 H   0  0  0  0  0  0  0  0  0  0  0  0
    0.1473   -2.7907    4.5491 H   0  0  0  0  0  0  0  0  0  0  0  0
    1.6153   -0.6050    4.6750 H   0  0  0  0  0  0  0  0  0  0  0  0
    2.9119   -0.5296    3.4828 H   0  0  0  0  0  0  0  0  0  0  0  0
    1.0411   -0.7815    1.6569 H   0  0  0  0  0  0  0  0  0  0  0  0
   -0.1227   -0.5656    2.9617 H   0  0  0  0  0  0  0  0  0  0  0  0
    1.0205    1.7236    3.4337 H   0  0  0  0  0  0  0  0  0  0  0  0
    1.9444    1.4732    1.9435 H   0  0  0  0  0  0  0  0  0  0  0  0
   -0.0300    2.7481    1.5109 H   0  0  0  0  0  0  0  0  0  0  0  0
   -1.0028    1.5799    2.1523 H   0  0  0  0  0  0  0  0  0  0  0  0
   -1.0576   -7.7414    5.5137 H   0  0  0  0  0  0  0  0  0  0  0  0
   -2.0345   -6.8846    4.2929 H   0  0  0  0  0  0  0  0  0  0  0  0
   -1.2024   -9.5089    4.1849 H   0  0  0  0  0  0  0  0  0  0  0  0
   -1.5226   -8.6342    2.6913 H   0  0  0  0  0  0  0  0  0  0  0  0
    0.6647   -8.3515    2.2686 H   0  0  0  0  0  0  0  0  0  0  0  0
   -0.1787    1.3058    0.7579 H   0  0  0  0  0  0  0  0  0  0  0  0
    2.7506   -2.7748    3.1387 H   0  0  0  0  0  0  0  0  0  0  0  0
  1  2  1  0
  1 36  1  0
  1 37  1  0
  1 38  1  0
  2 35  1  0
  2  3  1  0
  2 39  1  6
  3  4  1  0
  3 40  1  0
  3 41  1  0
  4 21  1  0
  4  5  1  0
  4 42  1  1
  5 18  1  0
  5  6  2  0
  6  7  1  0
  6 43  1  0
  7  8  1  0
  7 44  1  0
  7 45  1  0
  8 16  1  0
  8  9  1  0
  8 46  1  6
  9 10  1  0
  9 11  1  0
  9 12  1  0
 10 47  1  0
 10 48  1  0
 10 49  1  0
 11 50  1  0
 11 51  1  0
 11 52  1  0
 12 13  1  0
 12 14  1  0
 12 53  1  1
 13 54  1  0
 14 15  1  0
 14 55  1  0
 14 56  1  0
 15 16  1  0
 15 57  1  0
 15 58  1  0
 16 17  1  6
 16 18  1  0
 17 59  1  0
 17 60  1  0
 17 61  1  0
 18 19  1  0
 18 62  1  6
 19 20  1  0
 19 63  1  0
 19 64  1  0
 20 21  1  0
 20 65  1  0
 20 66  1  0
 21 22  1  1
 21 23  1  0
 22 67  1  0
 22 68  1  0
 22 69  1  0
 23 35  1  0
 23 24  1  0
 23 70  1  1
 24 25  2  3
 24 33  1  0
 25 26  1  0
 25 71  1  0
 26 27  1  0
 27 28  2  3
 27 72  1  0
 28 29  1  0
 28 87  1  0
 29 30  1  0
 29 73  1  0
 29 74  1  0
 30 31  1  0
 30 75  1  0
 30 76  1  0
 31 32  1  0
 31 77  1  0
 31 78  1  0
 32 79  1  0
 32 80  1  0
 32 86  1  0
 33 34  1  0
 33 81  1  0
 33 82  1  0
 34 35  1  0
 34 83  1  0
 34 84  1  0
 35 85  1  6
M  CHG  2  28   1  32   1
M  END
>  <i_m_ct_stereo_status>  (159) 
1

>  <s_m_source_file>  (159) 
/var/tmp/pbs.5076255.sched01/tmp2obefojl/44ql_32cm2.sdf

>  <i_m_source_file_index>  (159) 
21

>  <i_lp_mmshare_version>  (159) 
48012

>  <i_f3d_flags>  (159) 
0

>  <s_epik_input>  (159) 
W05IMl1bQ0gyXVtDSDJdW0NIMl1cTj1bQ0hdXE9cW0NIXT1DXDFbQ0gyXVtDSDJdW0NASF0oW0NASF0oW0NIM10pW0NIMl0yKVtDQEhdMVtDQF0oW0NIM10pKFtDSDJdW0NIMl1bQ0BIXTM0KVtDQEBIXTJDMz1bQ0hdW0NIMl1bQ0BASF0oW0NAQF00NVtDSDNdKUMoW0NIM10pKFtDSDNdKVtDQEBIXShbT0hdKVtDSDJdW0NIMl01

>  <s_epik_cmdline>  (159) 
J2VwaWtfcHl0aG9uJywgJy1waHQnLCAnMi4wJywgJy1waCcsICc3LjAnLCAnLXRuJywgJzgnLCAnLW1hJywgJzIwMCcsICctaW1hZScsICc8aW5maWxlLm1hZT4nLCAnLW9tYWUnLCAnPG91dGZpbGUubWFlPic=

>  <r_epik_Ionization_Penalty>  (159) 
1.66561

>  <r_epik_Ionization_Penalty_Charging>  (159) 
1.66561

>  <r_epik_Ionization_Penalty_Neutral>  (159) 
2.61483e-06

>  <r_epik_State_Penalty>  (159) 
1.49159

>  <r_epik_Charging_Adjusted_Penalty>  (159) 
3.1572

>  <i_epik_Tot_Q>  (159) 
2

>  <i_epik_Tot_abs_Q>  (159) 
2

>  <s_epik_Chemistry_Notes>  (159) 
This compound has an imine and may undergo hydrolysis.

>  <s_lp_Force_Field>  (159) 
OPLS3e

>  <r_lp_Energy>  (159) 
79.9052

>  <b_lp_Chiralities_Consistent>  (159) 
1

>  <s_lp_Variant>  (159) 
38:0-6

>  <s_i_glide_gridfile>  (159) 
pfpi4k_grid

>  <i_i_glide_lignum>  (159) 
21

>  <i_i_glide_rotatable_bonds>  (159) 
6

>  <r_i_docking_score>  (159) 
-4.08674

>  <r_i_glide_ligand_efficiency>  (159) 
-0.116764

>  <r_i_glide_ligand_efficiency_sa>  (159) 
-0.381942

>  <r_i_glide_ligand_efficiency_ln>  (159) 
-0.897129

>  <r_i_glide_gscore>  (159) 
-4.08674

>  <r_i_glide_lipo>  (159) 
-0.408329

>  <r_i_glide_hbond>  (159) 
-0.617085

>  <r_i_glide_metal>  (159) 
-0

>  <r_i_glide_rewards>  (159) 
-0.147348

>  <r_i_glide_evdw>  (159) 
-3.84134

>  <r_i_glide_ecoul>  (159) 
-19.236

>  <r_i_glide_erotb>  (159) 
0.242005

>  <r_i_glide_esite>  (159) 
-0.0785073

>  <r_i_glide_emodel>  (159) 
-29.954

>  <r_i_glide_energy>  (159) 
-23.0774

>  <r_i_glide_einternal>  (159) 
3.15463

>  <r_i_glide_intrahb_reward>  (159) 
-0

>  <i_i_glide_confnum>  (159) 
5

>  <i_i_glide_posenum>  (159) 
11

>  <r_i_glide_eff_state_penalty>  (159) 
0

>  <ligand_id>  (159) 
38

>  <original_smiles>  (159) 
CC1CC2C3=CCC4C(C)(C)C(O)CCC4(C)C3CCC2(C)C2C(=COC=NCCCN)CCC12

>  <smiles>  (159) 
[H]OC1([H])C([H])([H])C([H])([H])C2(C([H])([H])[H])C3([H])C(=C([H])C([H])([H])C2([H])C1(C([H])([H])[H])C([H])([H])[H])C1([H])C([H])([H])C([H])(C([H])([H])[H])C2([H])C([H])([H])C([H])([H])C(=C([H])OC([H])=[N+]([H])C([H])([H])C([H])([H])C([H])([H])[N+]([H])([H])[H])C2([H])C1(C([H])([H])[H])C([H])([H])C3([H])[H]

$$$$
38:5:1
     RDKit          3D

 87 91  0  0  1  0  0  0  0  0999 V2000
    0.2542   -9.7451    5.7808 C   0  0  0  0  0  0  0  0  0  0  0  0
    1.6091   -9.0670    6.0680 C   0  0  2  0  0  0  0  0  0  0  0  0
    1.4357   -7.6310    6.6034 C   0  0  0  0  0  0  0  0  0  0  0  0
    0.9489   -6.6286    5.5156 C   0  0  1  0  0  0  0  0  0  0  0  0
    0.6882   -5.2460    6.1213 C   0  0  0  0  0  0  0  0  0  0  0  0
   -0.5647   -4.8133    6.3486 C   0  0  0  0  0  0  0  0  0  0  0  0
   -0.9256   -3.4717    6.9414 C   0  0  0  0  0  0  0  0  0  0  0  0
    0.2121   -2.4216    6.8954 C   0  0  2  0  0  0  0  0  0  0  0  0
    0.1000   -1.3901    5.7107 C   0  0  0  0  0  0  0  0  0  0  0  0
    0.0693   -2.0555    4.3224 C   0  0  0  0  0  0  0  0  0  0  0  0
   -1.2200   -0.5779    5.8314 C   0  0  0  0  0  0  0  0  0  0  0  0
    1.2857   -0.3861    5.7486 C   0  0  1  0  0  0  0  0  0  0  0  0
    1.1715    0.5154    6.8356 O   0  0  0  0  0  0  0  0  0  0  0  0
    2.6546   -1.0746    5.8522 C   0  0  0  0  0  0  0  0  0  0  0  0
    2.7367   -1.9862    7.0886 C   0  0  0  0  0  0  0  0  0  0  0  0
    1.6177   -3.0591    7.2114 C   0  0  1  0  0  0  0  0  0  0  0  0
    1.6011   -3.4331    8.7218 C   0  0  0  0  0  0  0  0  0  0  0  0
    1.9297   -4.4165    6.4529 C   0  0  2  0  0  0  0  0  0  0  0  0
    2.9138   -4.4016    5.2530 C   0  0  0  0  0  0  0  0  0  0  0  0
    3.1728   -5.8069    4.6672 C   0  0  0  0  0  0  0  0  0  0  0  0
    1.8777   -6.5602    4.2517 C   0  0  2  0  0  0  0  0  0  0  0  0
    1.1106   -5.7849    3.1440 C   0  0  0  0  0  0  0  0  0  0  0  0
    2.1102   -8.0383    3.7718 C   0  0  1  0  0  0  0  0  0  0  0  0
    3.0145   -8.4637    2.6205 C   0  0  0  0  0  0  0  0  0  0  0  0
    3.7404   -7.7705    1.7244 C   0  0  0  0  0  0  0  0  0  0  0  0
    3.8120   -6.4110    1.6597 O   0  0  0  0  0  0  0  0  0  0  0  0
    4.0398   -5.8328    0.4657 C   0  0  0  0  0  0  0  0  0  0  0  0
    4.0796   -4.5477    0.3809 N   0  0  0  0  0  0  0  0  0  0  0  0
    4.1853   -3.8271   -0.8967 C   0  0  0  0  0  0  0  0  0  0  0  0
    2.9953   -2.8828   -1.1367 C   0  0  0  0  0  0  0  0  0  0  0  0
    2.8768   -2.4251   -2.6041 C   0  0  0  0  0  0  0  0  0  0  0  0
    2.2280   -3.4517   -3.4417 N   0  0  0  0  0  0  0  0  0  0  0  0
    3.0263   -9.9711    2.6757 C   0  0  0  0  0  0  0  0  0  0  0  0
    2.9767  -10.3112    4.1728 C   0  0  0  0  0  0  0  0  0  0  0  0
    2.5815   -8.9951    4.8768 C   0  0  2  0  0  0  0  0  0  0  0  0
   -0.2991   -9.2684    4.9723 H   0  0  0  0  0  0  0  0  0  0  0  0
   -0.3780   -9.7154    6.6674 H   0  0  0  0  0  0  0  0  0  0  0  0
    0.3748  -10.7974    5.5238 H   0  0  0  0  0  0  0  0  0  0  0  0
    2.0881   -9.6579    6.8501 H   0  0  0  0  0  0  0  0  0  0  0  0
    0.7475   -7.6349    7.4499 H   0  0  0  0  0  0  0  0  0  0  0  0
    2.3900   -7.2964    7.0124 H   0  0  0  0  0  0  0  0  0  0  0  0
   -0.0202   -6.9961    5.1786 H   0  0  0  0  0  0  0  0  0  0  0  0
   -1.4041   -5.4580    6.1273 H   0  0  0  0  0  0  0  0  0  0  0  0
   -1.8280   -3.1227    6.4479 H   0  0  0  0  0  0  0  0  0  0  0  0
   -1.2129   -3.6611    7.9737 H   0  0  0  0  0  0  0  0  0  0  0  0
    0.0142   -1.7842    7.7578 H   0  0  0  0  0  0  0  0  0  0  0  0
   -0.1723   -1.3270    3.5464 H   0  0  0  0  0  0  0  0  0  0  0  0
   -0.6645   -2.8532    4.2727 H   0  0  0  0  0  0  0  0  0  0  0  0
    1.0215   -2.4827    4.0462 H   0  0  0  0  0  0  0  0  0  0  0  0
   -1.2171    0.2858    5.1655 H   0  0  0  0  0  0  0  0  0  0  0  0
   -1.3590   -0.1854    6.8379 H   0  0  0  0  0  0  0  0  0  0  0  0
   -2.1024   -1.1624    5.5746 H   0  0  0  0  0  0  0  0  0  0  0  0
    1.2701    0.2209    4.8418 H   0  0  0  0  0  0  0  0  0  0  0  0
    1.8387    1.1781    6.7472 H   0  0  0  0  0  0  0  0  0  0  0  0
    2.8708   -1.6274    4.9402 H   0  0  0  0  0  0  0  0  0  0  0  0
    3.4430   -0.3218    5.9137 H   0  0  0  0  0  0  0  0  0  0  0  0
    3.7173   -2.4558    7.1311 H   0  0  0  0  0  0  0  0  0  0  0  0
    2.7029   -1.3359    7.9672 H   0  0  0  0  0  0  0  0  0  0  0  0
    2.5776   -3.7868    9.0601 H   0  0  0  0  0  0  0  0  0  0  0  0
    0.8793   -4.2203    8.9452 H   0  0  0  0  0  0  0  0  0  0  0  0
    1.3484   -2.5779    9.3500 H   0  0  0  0  0  0  0  0  0  0  0  0
    2.4610   -5.0397    7.1730 H   0  0  0  0  0  0  0  0  0  0  0  0
    2.5659   -3.7648    4.4497 H   0  0  0  0  0  0  0  0  0  0  0  0
    3.8779   -3.9979    5.5658 H   0  0  0  0  0  0  0  0  0  0  0  0
    3.8650   -5.7004    3.8403 H   0  0  0  0  0  0  0  0  0  0  0  0
    3.7181   -6.3848    5.4104 H   0  0  0  0  0  0  0  0  0  0  0  0
    1.7024   -5.6175    2.2501 H   0  0  0  0  0  0  0  0  0  0  0  0
    0.7802   -4.8030    3.4794 H   0  0  0  0  0  0  0  0  0  0  0  0
    0.2115   -6.3229    2.8398 H   0  0  0  0  0  0  0  0  0  0  0  0
    1.1303   -8.3889    3.4494 H   0  0  0  0  0  0  0  0  0  0  0  0
    4.3843   -8.2701    1.0114 H   0  0  0  0  0  0  0  0  0  0  0  0
    4.1447   -6.4754   -0.4047 H   0  0  0  0  0  0  0  0  0  0  0  0
    5.1242   -3.2762   -0.8745 H   0  0  0  0  0  0  0  0  0  0  0  0
    4.2506   -4.5540   -1.7097 H   0  0  0  0  0  0  0  0  0  0  0  0
    2.0494   -3.3428   -0.8357 H   0  0  0  0  0  0  0  0  0  0  0  0
    3.1044   -1.9964   -0.5090 H   0  0  0  0  0  0  0  0  0  0  0  0
    2.2834   -1.5077   -2.6677 H   0  0  0  0  0  0  0  0  0  0  0  0
    3.8610   -2.1711   -3.0111 H   0  0  0  0  0  0  0  0  0  0  0  0
    2.1632   -3.1283   -4.3970 H   0  0  0  0  0  0  0  0  0  0  0  0
    1.2873   -3.6465   -3.1234 H   0  0  0  0  0  0  0  0  0  0  0  0
    2.1055  -10.3161    2.2051 H   0  0  0  0  0  0  0  0  0  0  0  0
    3.8631  -10.4249    2.1443 H   0  0  0  0  0  0  0  0  0  0  0  0
    2.2827  -11.1296    4.3699 H   0  0  0  0  0  0  0  0  0  0  0  0
    3.9603  -10.6334    4.5211 H   0  0  0  0  0  0  0  0  0  0  0  0
    3.5179   -8.5947    5.2657 H   0  0  0  0  0  0  0  0  0  0  0  0
    2.7377   -4.3246   -3.4010 H   0  0  0  0  0  0  0  0  0  0  0  0
    3.9752   -3.9957    1.2303 H   0  0  0  0  0  0  0  0  0  0  0  0
  1  2  1  0
  1 36  1  0
  1 37  1  0
  1 38  1  0
  2 35  1  0
  2  3  1  0
  2 39  1  1
  3  4  1  0
  3 40  1  0
  3 41  1  0
  4 21  1  0
  4  5  1  0
  4 42  1  6
  5 18  1  0
  5  6  2  0
  6  7  1  0
  6 43  1  0
  7  8  1  0
  7 44  1  0
  7 45  1  0
  8 16  1  0
  8  9  1  0
  8 46  1  1
  9 10  1  0
  9 11  1  0
  9 12  1  0
 10 47  1  0
 10 48  1  0
 10 49  1  0
 11 50  1  0
 11 51  1  0
 11 52  1  0
 12 13  1  0
 12 14  1  0
 12 53  1  6
 13 54  1  0
 14 15  1  0
 14 55  1  0
 14 56  1  0
 15 16  1  0
 15 57  1  0
 15 58  1  0
 16 17  1  1
 16 18  1  0
 17 59  1  0
 17 60  1  0
 17 61  1  0
 18 19  1  0
 18 62  1  1
 19 20  1  0
 19 63  1  0
 19 64  1  0
 20 21  1  0
 20 65  1  0
 20 66  1  0
 21 22  1  6
 21 23  1  0
 22 67  1  0
 22 68  1  0
 22 69  1  0
 23 35  1  0
 23 24  1  0
 23 70  1  6
 24 25  2  3
 24 33  1  0
 25 26  1  0
 25 71  1  0
 26 27  1  0
 27 28  2  3
 27 72  1  0
 28 29  1  0
 28 87  1  0
 29 30  1  0
 29 73  1  0
 29 74  1  0
 30 31  1  0
 30 75  1  0
 30 76  1  0
 31 32  1  0
 31 77  1  0
 31 78  1  0
 32 79  1  0
 32 80  1  0
 32 86  1  0
 33 34  1  0
 33 81  1  0
 33 82  1  0
 34 35  1  0
 34 83  1  0
 34 84  1  0
 35 85  1  1
M  CHG  2  28   1  32   1
M  END
>  <i_m_ct_stereo_status>  (160) 
1

>  <s_m_source_file>  (160) 
/var/tmp/pbs.5076255.sched01/tmp2obefojl/44ql_32cm2.sdf

>  <i_m_source_file_index>  (160) 
21

>  <i_lp_mmshare_version>  (160) 
48012

>  <i_f3d_flags>  (160) 
0

>  <s_epik_input>  (160) 
W05IMl1bQ0gyXVtDSDJdW0NIMl1cTj1bQ0hdXE9cW0NIXT1DXDFbQ0gyXVtDSDJdW0NASF0oW0NASF0oW0NIM10pW0NIMl0yKVtDQEhdMVtDQF0oW0NIM10pKFtDSDJdW0NIMl1bQ0BIXTM0KVtDQEBIXTJDMz1bQ0hdW0NIMl1bQ0BASF0oW0NAQF00NVtDSDNdKUMoW0NIM10pKFtDSDNdKVtDQEBIXShbT0hdKVtDSDJdW0NIMl01

>  <s_epik_cmdline>  (160) 
J2VwaWtfcHl0aG9uJywgJy1waHQnLCAnMi4wJywgJy1waCcsICc3LjAnLCAnLXRuJywgJzgnLCAnLW1hJywgJzIwMCcsICctaW1hZScsICc8aW5maWxlLm1hZT4nLCAnLW9tYWUnLCAnPG91dGZpbGUubWFlPic=

>  <r_epik_Ionization_Penalty>  (160) 
1.66561

>  <r_epik_Ionization_Penalty_Charging>  (160) 
1.66561

>  <r_epik_Ionization_Penalty_Neutral>  (160) 
2.61483e-06

>  <r_epik_State_Penalty>  (160) 
1.49159

>  <r_epik_Charging_Adjusted_Penalty>  (160) 
3.1572

>  <i_epik_Tot_Q>  (160) 
2

>  <i_epik_Tot_abs_Q>  (160) 
2

>  <s_epik_Chemistry_Notes>  (160) 
This compound has an imine and may undergo hydrolysis.

>  <s_lp_Force_Field>  (160) 
OPLS3e

>  <r_lp_Energy>  (160) 
79.9052

>  <b_lp_Chiralities_Consistent>  (160) 
1

>  <s_lp_Variant>  (160) 
38:0-6

>  <s_i_glide_gridfile>  (160) 
pfpi4k_grid

>  <i_i_glide_lignum>  (160) 
21

>  <i_i_glide_rotatable_bonds>  (160) 
6

>  <r_i_docking_score>  (160) 
-2.65338

>  <r_i_glide_ligand_efficiency>  (160) 
-0.0758109

>  <r_i_glide_ligand_efficiency_sa>  (160) 
-0.247983

>  <r_i_glide_ligand_efficiency_ln>  (160) 
-0.582476

>  <r_i_glide_gscore>  (160) 
-2.65338

>  <r_i_glide_lipo>  (160) 
-0.0665325

>  <r_i_glide_hbond>  (160) 
0

>  <r_i_glide_metal>  (160) 
-0

>  <r_i_glide_rewards>  (160) 
-0.210736

>  <r_i_glide_evdw>  (160) 
-21.8117

>  <r_i_glide_ecoul>  (160) 
-10.875

>  <r_i_glide_erotb>  (160) 
0.345722

>  <r_i_glide_esite>  (160) 
0

>  <r_i_glide_emodel>  (160) 
-36.3721

>  <r_i_glide_energy>  (160) 
-32.6867

>  <r_i_glide_einternal>  (160) 
4.69227

>  <r_i_glide_intrahb_reward>  (160) 
-0

>  <i_i_glide_confnum>  (160) 
4

>  <i_i_glide_posenum>  (160) 
32

>  <r_i_glide_eff_state_penalty>  (160) 
0

>  <ligand_id>  (160) 
38

>  <original_smiles>  (160) 
CC1CC2C3=CCC4C(C)(C)C(O)CCC4(C)C3CCC2(C)C2C(=COC=NCCCN)CCC12

>  <smiles>  (160) 
[H]OC1([H])C([H])([H])C([H])([H])C2(C([H])([H])[H])C3([H])C(=C([H])C([H])([H])C2([H])C1(C([H])([H])[H])C([H])([H])[H])C1([H])C([H])([H])C([H])(C([H])([H])[H])C2([H])C([H])([H])C([H])([H])C(=C([H])OC([H])=[N+]([H])C([H])([H])C([H])([H])C([H])([H])[N+]([H])([H])[H])C2([H])C1(C([H])([H])[H])C([H])([H])C3([H])[H]

$$$$
38:5:2
     RDKit          3D

 87 91  0  0  1  0  0  0  0  0999 V2000
    0.2354   -9.7451    5.6838 C   0  0  0  0  0  0  0  0  0  0  0  0
    1.5960   -9.0856    5.9947 C   0  0  2  0  0  0  0  0  0  0  0  0
    1.4325   -7.6565    6.5483 C   0  0  0  0  0  0  0  0  0  0  0  0
    0.9675   -6.6331    5.4712 C   0  0  1  0  0  0  0  0  0  0  0  0
    0.7169   -5.2585    6.0960 C   0  0  0  0  0  0  0  0  0  0  0  0
   -0.5335   -4.8159    6.3189 C   0  0  0  0  0  0  0  0  0  0  0  0
   -0.8856   -3.4783    6.9263 C   0  0  0  0  0  0  0  0  0  0  0  0
    0.2645   -2.4405    6.9068 C   0  0  2  0  0  0  0  0  0  0  0  0
    0.1746   -1.3908    5.7370 C   0  0  0  0  0  0  0  0  0  0  0  0
    0.1473   -2.0367    4.3364 C   0  0  0  0  0  0  0  0  0  0  0  0
   -1.1377   -0.5652    5.8550 C   0  0  0  0  0  0  0  0  0  0  0  0
    1.3707   -0.3994    5.8051 C   0  0  1  0  0  0  0  0  0  0  0  0
    1.2552    0.4982    6.8958 O   0  0  0  0  0  0  0  0  0  0  0  0
    2.7316   -1.1046    5.9079 C   0  0  0  0  0  0  0  0  0  0  0  0
    2.7937   -2.0362    7.1308 C   0  0  0  0  0  0  0  0  0  0  0  0
    1.6606   -3.0979    7.2261 C   0  0  1  0  0  0  0  0  0  0  0  0
    1.6254   -3.4928    8.7308 C   0  0  0  0  0  0  0  0  0  0  0  0
    1.9642   -4.4471    6.4497 C   0  0  2  0  0  0  0  0  0  0  0  0
    2.9602   -4.4257    5.2601 C   0  0  0  0  0  0  0  0  0  0  0  0
    3.2089   -5.8245    4.6559 C   0  0  0  0  0  0  0  0  0  0  0  0
    1.9091   -6.5566    4.2182 C   0  0  2  0  0  0  0  0  0  0  0  0
    1.1602   -5.7572    3.1137 C   0  0  0  0  0  0  0  0  0  0  0  0
    2.1297   -8.0289    3.7194 C   0  0  1  0  0  0  0  0  0  0  0  0
    3.0394   -8.4493    2.5678 C   0  0  0  0  0  0  0  0  0  0  0  0
    3.7827   -7.7519    1.6909 C   0  0  0  0  0  0  0  0  0  0  0  0
    3.8687   -6.3924    1.6420 O   0  0  0  0  0  0  0  0  0  0  0  0
    4.1115   -5.7998    0.4560 C   0  0  0  0  0  0  0  0  0  0  0  0
    4.1568   -4.5152    0.3916 N   0  0  0  0  0  0  0  0  0  0  0  0
    4.2715   -3.7730   -0.8726 C   0  0  0  0  0  0  0  0  0  0  0  0
    3.1731   -2.7078   -1.0325 C   0  0  0  0  0  0  0  0  0  0  0  0
    3.0604   -2.1716   -2.4736 C   0  0  0  0  0  0  0  0  0  0  0  0
    2.2286   -3.0587   -3.3121 N   0  0  0  0  0  0  0  0  0  0  0  0
    3.0333   -9.9569    2.6049 C   0  0  0  0  0  0  0  0  0  0  0  0
    2.9657  -10.3190    4.0949 C   0  0  0  0  0  0  0  0  0  0  0  0
    2.5788   -9.0079    4.8134 C   0  0  2  0  0  0  0  0  0  0  0  0
   -0.3052   -9.2508    4.8780 H   0  0  0  0  0  0  0  0  0  0  0  0
   -0.4052   -9.7213    6.5648 H   0  0  0  0  0  0  0  0  0  0  0  0
    0.3456  -10.7947    5.4128 H   0  0  0  0  0  0  0  0  0  0  0  0
    2.0598   -9.6956    6.7718 H   0  0  0  0  0  0  0  0  0  0  0  0
    0.7372   -7.6664    7.3884 H   0  0  0  0  0  0  0  0  0  0  0  0
    2.3868   -7.3408    6.9712 H   0  0  0  0  0  0  0  0  0  0  0  0
   -0.0025   -6.9858    5.1204 H   0  0  0  0  0  0  0  0  0  0  0  0
   -1.3778   -5.4504    6.0857 H   0  0  0  0  0  0  0  0  0  0  0  0
   -1.7780   -3.1102    6.4285 H   0  0  0  0  0  0  0  0  0  0  0  0
   -1.1857   -3.6771    7.9536 H   0  0  0  0  0  0  0  0  0  0  0  0
    0.0621   -1.8156    7.7765 H   0  0  0  0  0  0  0  0  0  0  0  0
   -0.0742   -1.2943    3.5681 H   0  0  0  0  0  0  0  0  0  0  0  0
   -0.5966   -2.8243    4.2600 H   0  0  0  0  0  0  0  0  0  0  0  0
    1.0977   -2.4710    4.0628 H   0  0  0  0  0  0  0  0  0  0  0  0
   -1.1160    0.3079    5.2015 H   0  0  0  0  0  0  0  0  0  0  0  0
   -1.2842   -0.1851    6.8656 H   0  0  0  0  0  0  0  0  0  0  0  0
   -2.0242   -1.1346    5.5785 H   0  0  0  0  0  0  0  0  0  0  0  0
    1.3704    0.2203    4.9076 H   0  0  0  0  0  0  0  0  0  0  0  0
    1.4129    0.0268    7.6983 H   0  0  0  0  0  0  0  0  0  0  0  0
    2.9511   -1.6446    4.9892 H   0  0  0  0  0  0  0  0  0  0  0  0
    3.5243   -0.3582    5.9870 H   0  0  0  0  0  0  0  0  0  0  0  0
    3.7688   -2.5188    7.1725 H   0  0  0  0  0  0  0  0  0  0  0  0
    2.7664   -1.4019    8.0195 H   0  0  0  0  0  0  0  0  0  0  0  0
    2.5940   -3.8630    9.0729 H   0  0  0  0  0  0  0  0  0  0  0  0
    0.8931   -4.2752    8.9356 H   0  0  0  0  0  0  0  0  0  0  0  0
    1.3763   -2.6454    9.3707 H   0  0  0  0  0  0  0  0  0  0  0  0
    2.4818   -5.0865    7.1653 H   0  0  0  0  0  0  0  0  0  0  0  0
    2.6279   -3.7735    4.4630 H   0  0  0  0  0  0  0  0  0  0  0  0
    3.9253   -4.0385    5.5869 H   0  0  0  0  0  0  0  0  0  0  0  0
    3.9093   -5.7157    3.8368 H   0  0  0  0  0  0  0  0  0  0  0  0
    3.7401   -6.4204    5.3951 H   0  0  0  0  0  0  0  0  0  0  0  0
    1.7625   -5.5837    2.2288 H   0  0  0  0  0  0  0  0  0  0  0  0
    0.8393   -4.7765    3.4603 H   0  0  0  0  0  0  0  0  0  0  0  0
    0.2574   -6.2786    2.7939 H   0  0  0  0  0  0  0  0  0  0  0  0
    1.1499   -8.3661    3.3810 H   0  0  0  0  0  0  0  0  0  0  0  0
    4.4291   -8.2477    0.9742 H   0  0  0  0  0  0  0  0  0  0  0  0
    4.2200   -6.4298   -0.4224 H   0  0  0  0  0  0  0  0  0  0  0  0
    5.2613   -3.3164   -0.8785 H   0  0  0  0  0  0  0  0  0  0  0  0
    4.2302   -4.4800   -1.7033 H   0  0  0  0  0  0  0  0  0  0  0  0
    2.1985   -3.0860   -0.7124 H   0  0  0  0  0  0  0  0  0  0  0  0
    3.3925   -1.8680   -0.3695 H   0  0  0  0  0  0  0  0  0  0  0  0
    2.6089   -1.1765   -2.4665 H   0  0  0  0  0  0  0  0  0  0  0  0
    4.0516   -2.0525   -2.9207 H   0  0  0  0  0  0  0  0  0  0  0  0
    2.1614   -2.6855   -4.2518 H   0  0  0  0  0  0  0  0  0  0  0  0
    1.2975   -3.1172   -2.9256 H   0  0  0  0  0  0  0  0  0  0  0  0
    2.1139  -10.2838    2.1171 H   0  0  0  0  0  0  0  0  0  0  0  0
    3.8731  -10.4151    2.0820 H   0  0  0  0  0  0  0  0  0  0  0  0
    2.2614  -11.1317    4.2723 H   0  0  0  0  0  0  0  0  0  0  0  0
    3.9427  -10.6576    4.4448 H   0  0  0  0  0  0  0  0  0  0  0  0
    3.5169   -8.6257    5.2168 H   0  0  0  0  0  0  0  0  0  0  0  0
    2.6149   -3.9869   -3.3375 H   0  0  0  0  0  0  0  0  0  0  0  0
    4.0490   -3.9767    1.2498 H   0  0  0  0  0  0  0  0  0  0  0  0
  1  2  1  0
  1 36  1  0
  1 37  1  0
  1 38  1  0
  2 35  1  0
  2  3  1  0
  2 39  1  1
  3  4  1  0
  3 40  1  0
  3 41  1  0
  4 21  1  0
  4  5  1  0
  4 42  1  6
  5 18  1  0
  5  6  2  0
  6  7  1  0
  6 43  1  0
  7  8  1  0
  7 44  1  0
  7 45  1  0
  8 16  1  0
  8  9  1  0
  8 46  1  1
  9 10  1  0
  9 11  1  0
  9 12  1  0
 10 47  1  0
 10 48  1  0
 10 49  1  0
 11 50  1  0
 11 51  1  0
 11 52  1  0
 12 13  1  0
 12 14  1  0
 12 53  1  6
 13 54  1  0
 14 15  1  0
 14 55  1  0
 14 56  1  0
 15 16  1  0
 15 57  1  0
 15 58  1  0
 16 17  1  1
 16 18  1  0
 17 59  1  0
 17 60  1  0
 17 61  1  0
 18 19  1  0
 18 62  1  1
 19 20  1  0
 19 63  1  0
 19 64  1  0
 20 21  1  0
 20 65  1  0
 20 66  1  0
 21 22  1  6
 21 23  1  0
 22 67  1  0
 22 68  1  0
 22 69  1  0
 23 35  1  0
 23 24  1  0
 23 70  1  6
 24 25  2  3
 24 33  1  0
 25 26  1  0
 25 71  1  0
 26 27  1  0
 27 28  2  3
 27 72  1  0
 28 29  1  0
 28 87  1  0
 29 30  1  0
 29 73  1  0
 29 74  1  0
 30 31  1  0
 30 75  1  0
 30 76  1  0
 31 32  1  0
 31 77  1  0
 31 78  1  0
 32 79  1  0
 32 80  1  0
 32 86  1  0
 33 34  1  0
 33 81  1  0
 33 82  1  0
 34 35  1  0
 34 83  1  0
 34 84  1  0
 35 85  1  1
M  CHG  2  28   1  32   1
M  END
>  <i_m_ct_stereo_status>  (161) 
1

>  <s_m_source_file>  (161) 
/var/tmp/pbs.5076255.sched01/tmp2obefojl/44ql_32cm2.sdf

>  <i_m_source_file_index>  (161) 
21

>  <i_lp_mmshare_version>  (161) 
48012

>  <i_f3d_flags>  (161) 
0

>  <s_epik_input>  (161) 
W05IMl1bQ0gyXVtDSDJdW0NIMl1cTj1bQ0hdXE9cW0NIXT1DXDFbQ0gyXVtDSDJdW0NASF0oW0NASF0oW0NIM10pW0NIMl0yKVtDQEhdMVtDQF0oW0NIM10pKFtDSDJdW0NIMl1bQ0BIXTM0KVtDQEBIXTJDMz1bQ0hdW0NIMl1bQ0BASF0oW0NAQF00NVtDSDNdKUMoW0NIM10pKFtDSDNdKVtDQEBIXShbT0hdKVtDSDJdW0NIMl01

>  <s_epik_cmdline>  (161) 
J2VwaWtfcHl0aG9uJywgJy1waHQnLCAnMi4wJywgJy1waCcsICc3LjAnLCAnLXRuJywgJzgnLCAnLW1hJywgJzIwMCcsICctaW1hZScsICc8aW5maWxlLm1hZT4nLCAnLW9tYWUnLCAnPG91dGZpbGUubWFlPic=

>  <r_epik_Ionization_Penalty>  (161) 
1.66561

>  <r_epik_Ionization_Penalty_Charging>  (161) 
1.66561

>  <r_epik_Ionization_Penalty_Neutral>  (161) 
2.61483e-06

>  <r_epik_State_Penalty>  (161) 
1.49159

>  <r_epik_Charging_Adjusted_Penalty>  (161) 
3.1572

>  <i_epik_Tot_Q>  (161) 
2

>  <i_epik_Tot_abs_Q>  (161) 
2

>  <s_epik_Chemistry_Notes>  (161) 
This compound has an imine and may undergo hydrolysis.

>  <s_lp_Force_Field>  (161) 
OPLS3e

>  <r_lp_Energy>  (161) 
79.9052

>  <b_lp_Chiralities_Consistent>  (161) 
1

>  <s_lp_Variant>  (161) 
38:0-6

>  <s_i_glide_gridfile>  (161) 
pfpi4k_grid

>  <i_i_glide_lignum>  (161) 
21

>  <i_i_glide_rotatable_bonds>  (161) 
6

>  <r_i_docking_score>  (161) 
-2.34053

>  <r_i_glide_ligand_efficiency>  (161) 
-0.0668723

>  <r_i_glide_ligand_efficiency_sa>  (161) 
-0.218744

>  <r_i_glide_ligand_efficiency_ln>  (161) 
-0.513799

>  <r_i_glide_gscore>  (161) 
-2.34053

>  <r_i_glide_lipo>  (161) 
-0.0704488

>  <r_i_glide_hbond>  (161) 
0

>  <r_i_glide_metal>  (161) 
-0

>  <r_i_glide_rewards>  (161) 
-0.222324

>  <r_i_glide_evdw>  (161) 
-22.369

>  <r_i_glide_ecoul>  (161) 
-8.50021

>  <r_i_glide_erotb>  (161) 
0.345722

>  <r_i_glide_esite>  (161) 
0

>  <r_i_glide_emodel>  (161) 
-33.8646

>  <r_i_glide_energy>  (161) 
-30.8692

>  <r_i_glide_einternal>  (161) 
4.5965

>  <r_i_glide_intrahb_reward>  (161) 
-0

>  <i_i_glide_confnum>  (161) 
4

>  <i_i_glide_posenum>  (161) 
3

>  <r_i_glide_eff_state_penalty>  (161) 
0

>  <ligand_id>  (161) 
38

>  <original_smiles>  (161) 
CC1CC2C3=CCC4C(C)(C)C(O)CCC4(C)C3CCC2(C)C2C(=COC=NCCCN)CCC12

>  <smiles>  (161) 
[H]OC1([H])C([H])([H])C([H])([H])C2(C([H])([H])[H])C3([H])C(=C([H])C([H])([H])C2([H])C1(C([H])([H])[H])C([H])([H])[H])C1([H])C([H])([H])C([H])(C([H])([H])[H])C2([H])C([H])([H])C([H])([H])C(=C([H])OC([H])=[N+]([H])C([H])([H])C([H])([H])C([H])([H])[N+]([H])([H])[H])C2([H])C1(C([H])([H])[H])C([H])([H])C3([H])[H]

$$$$
39:0:0
     RDKit          3D

 98105  0  0  1  0  0  0  0  0999 V2000
    3.6528   -6.6160    6.4703 C   0  0  0  0  0  0  0  0  0  0  0  0
    3.5321   -6.0071    5.0596 C   0  0  2  0  0  0  0  0  0  0  0  0
    4.0628   -7.0187    4.0098 C   0  0  0  0  0  0  0  0  0  0  0  0
    3.9769   -6.5252    2.5440 C   0  0  0  0  0  0  0  0  0  0  0  0
    4.7572   -7.5016    1.6415 C   0  0  0  0  0  0  0  0  0  0  0  0
    2.5030   -6.4874    2.0729 C   0  0  0  0  0  0  0  0  0  0  0  0
    4.6151   -5.1233    2.4400 C   0  0  0  0  0  0  0  0  0  0  0  0
    3.9521   -4.1571    3.4285 C   0  0  0  0  0  0  0  0  0  0  0  0
    3.1888   -3.0913    3.0368 C   0  0  0  0  0  0  0  0  0  0  0  0
    3.1420   -2.6781    1.5750 C   0  0  0  0  0  0  0  0  0  0  0  0
    4.3627   -1.7989    1.3396 C   0  0  0  0  0  0  0  0  0  0  0  0
    5.3002   -2.1537    0.6297 O   0  0  0  0  0  0  0  0  0  0  0  0
    4.3655   -0.4472    2.0530 C   0  0  1  0  0  0  0  0  0  0  0  0
    3.1217    0.3556    1.6835 C   0  0  0  0  0  0  0  0  0  0  0  0
    2.1628    0.3795    2.8968 C   0  0  2  0  0  0  0  0  0  0  0  0
    1.3918    1.8615    2.9227 C   0  0  2  0  0  0  0  0  0  0  0  0
    2.3698    3.1549    2.9185 C   0  0  0  0  0  0  0  0  0  0  0  0
    2.3685    4.1086    4.1855 C   0  0  0  0  0  0  0  0  0  0  0  0
    2.3794    3.3916    5.5938 C   0  0  1  0  0  0  0  0  0  0  0  0
    3.7401    3.7826    6.2458 C   0  0  0  0  0  0  0  0  0  0  0  0
    1.2111    3.6424    6.5707 C   0  0  2  0  0  0  0  0  0  0  0  0
    1.3421    2.6188    7.8045 C   0  0  0  0  0  0  0  0  0  0  0  0
    2.3687    1.3784    7.7116 C   0  0  0  0  0  0  0  0  0  0  0  0
    2.6658    0.9358    6.2727 C   0  0  0  0  0  0  0  0  0  0  0  0
    3.0062   -0.2363    5.6719 C   0  0  0  0  0  0  0  0  0  0  0  0
    2.8790   -0.6289    4.0954 C   0  0  2  0  0  0  0  0  0  0  0  0
    4.3488   -0.5571    3.5908 C   0  0  0  0  0  0  0  0  0  0  0  0
    2.3442   -2.1962    3.9999 C   0  0  1  0  0  0  0  0  0  0  0  0
    0.8492   -2.3165    3.5629 C   0  0  0  0  0  0  0  0  0  0  0  0
    2.2687   -2.9665    5.3654 C   0  0  0  0  0  0  0  0  0  0  0  0
    3.6076   -3.5225    5.8415 C   0  0  0  0  0  0  0  0  0  0  0  0
    4.1814   -4.5910    4.8881 C   0  0  1  0  0  0  0  0  0  0  0  0
    5.6998   -4.6371    5.2167 C   0  0  0  0  0  0  0  0  0  0  0  0
    2.2153    1.8969    5.3473 C   0  0  1  0  0  0  0  0  0  0  0  0
    0.7756    1.3184    5.1184 C   0  0  0  0  0  0  0  0  0  0  0  0
    0.1705    1.9647    3.9625 C   0  0  2  0  0  0  0  0  0  0  0  0
   -0.8275    3.0297    4.6131 C   0  0  0  0  0  0  0  0  0  0  0  0
   -1.4283    4.0288    3.5663 C   0  0  0  0  0  0  0  0  0  0  0  0
   -2.0853    2.2619    5.0938 C   0  0  0  0  0  0  0  0  0  0  0  0
   -0.2318    3.8493    5.8858 C   0  0  0  0  0  0  0  0  0  0  0  0
    4.6916   -6.7482    6.7738 H   0  0  0  0  0  0  0  0  0  0  0  0
    3.1817   -7.5994    6.5012 H   0  0  0  0  0  0  0  0  0  0  0  0
    3.1503   -6.0134    7.2258 H   0  0  0  0  0  0  0  0  0  0  0  0
    2.4637   -5.9064    4.8780 H   0  0  0  0  0  0  0  0  0  0  0  0
    5.0990   -7.2658    4.2409 H   0  0  0  0  0  0  0  0  0  0  0  0
    3.5232   -7.9634    4.1064 H   0  0  0  0  0  0  0  0  0  0  0  0
    4.7258   -7.1940    0.5953 H   0  0  0  0  0  0  0  0  0  0  0  0
    4.3545   -8.5153    1.7007 H   0  0  0  0  0  0  0  0  0  0  0  0
    5.8070   -7.5519    1.9350 H   0  0  0  0  0  0  0  0  0  0  0  0
    2.4270   -6.1596    1.0352 H   0  0  0  0  0  0  0  0  0  0  0  0
    1.9014   -5.7999    2.6708 H   0  0  0  0  0  0  0  0  0  0  0  0
    2.0332   -7.4720    2.1460 H   0  0  0  0  0  0  0  0  0  0  0  0
    5.6808   -5.1825    2.6511 H   0  0  0  0  0  0  0  0  0  0  0  0
    4.5829   -4.7912    1.4081 H   0  0  0  0  0  0  0  0  0  0  0  0
    3.1493   -3.5281    0.8973 H   0  0  0  0  0  0  0  0  0  0  0  0
    2.2438   -2.1287    1.3199 H   0  0  0  0  0  0  0  0  0  0  0  0
    5.2691    0.0750    1.7316 H   0  0  0  0  0  0  0  0  0  0  0  0
    3.4436    1.3411    1.3696 H   0  0  0  0  0  0  0  0  0  0  0  0
    2.6117   -0.0350    0.8025 H   0  0  0  0  0  0  0  0  0  0  0  0
    1.3153   -0.1724    2.5261 H   0  0  0  0  0  0  0  0  0  0  0  0
    0.9062    1.9214    1.9443 H   0  0  0  0  0  0  0  0  0  0  0  0
    3.4064    2.8559    2.7782 H   0  0  0  0  0  0  0  0  0  0  0  0
    2.1257    3.7674    2.0498 H   0  0  0  0  0  0  0  0  0  0  0  0
    3.2268    4.7745    4.0813 H   0  0  0  0  0  0  0  0  0  0  0  0
    1.5306    4.8009    4.1230 H   0  0  0  0  0  0  0  0  0  0  0  0
    3.8147    3.5235    7.2981 H   0  0  0  0  0  0  0  0  0  0  0  0
    3.8955    4.8614    6.2110 H   0  0  0  0  0  0  0  0  0  0  0  0
    4.5779    3.3109    5.7292 H   0  0  0  0  0  0  0  0  0  0  0  0
    1.4087    4.6197    7.0138 H   0  0  0  0  0  0  0  0  0  0  0  0
    1.6178    3.1958    8.6868 H   0  0  0  0  0  0  0  0  0  0  0  0
    0.3511    2.2339    8.0466 H   0  0  0  0  0  0  0  0  0  0  0  0
    3.3170    1.6356    8.1847 H   0  0  0  0  0  0  0  0  0  0  0  0
    1.9805    0.5272    8.2748 H   0  0  0  0  0  0  0  0  0  0  0  0
    3.3214   -0.9837    6.3723 H   0  0  0  0  0  0  0  0  0  0  0  0
    4.9653   -1.3792    3.9603 H   0  0  0  0  0  0  0  0  0  0  0  0
    4.8188    0.3483    3.9765 H   0  0  0  0  0  0  0  0  0  0  0  0
    0.1803   -1.7385    4.1969 H   0  0  0  0  0  0  0  0  0  0  0  0
    0.5006   -3.3495    3.6022 H   0  0  0  0  0  0  0  0  0  0  0  0
    0.6355   -2.0517    2.5320 H   0  0  0  0  0  0  0  0  0  0  0  0
    1.7661   -2.3888    6.1401 H   0  0  0  0  0  0  0  0  0  0  0  0
    1.6242   -3.8412    5.2846 H   0  0  0  0  0  0  0  0  0  0  0  0
    4.3286   -2.7110    5.9049 H   0  0  0  0  0  0  0  0  0  0  0  0
    3.5164   -3.9014    6.8572 H   0  0  0  0  0  0  0  0  0  0  0  0
    5.8720   -4.7328    6.2893 H   0  0  0  0  0  0  0  0  0  0  0  0
    6.1909   -3.7172    4.8943 H   0  0  0  0  0  0  0  0  0  0  0  0
    6.2311   -5.4602    4.7424 H   0  0  0  0  0  0  0  0  0  0  0  0
    3.0285    1.7569    4.6455 H   0  0  0  0  0  0  0  0  0  0  0  0
    0.6976    0.2567    4.9238 H   0  0  0  0  0  0  0  0  0  0  0  0
    0.1696    1.3455    6.0147 H   0  0  0  0  0  0  0  0  0  0  0  0
    0.4508    2.9565    3.8246 H   0  0  0  0  0  0  0  0  0  0  0  0
   -2.1943    4.6562    4.0193 H   0  0  0  0  0  0  0  0  0  0  0  0
   -1.8885    3.4944    2.7328 H   0  0  0  0  0  0  0  0  0  0  0  0
   -0.6730    4.6928    3.1386 H   0  0  0  0  0  0  0  0  0  0  0  0
   -2.8719    2.9440    5.4197 H   0  0  0  0  0  0  0  0  0  0  0  0
   -1.9026    1.5940    5.9334 H   0  0  0  0  0  0  0  0  0  0  0  0
   -2.4977    1.6578    4.2849 H   0  0  0  0  0  0  0  0  0  0  0  0
   -0.9704    3.8296    6.6893 H   0  0  0  0  0  0  0  0  0  0  0  0
   -0.2430    4.8983    5.5892 H   0  0  0  0  0  0  0  0  0  0  0  0
  1  2  1  0
  1 41  1  0
  1 42  1  0
  1 43  1  0
  2 32  1  0
  2  3  1  0
  2 44  1  6
  3  4  1  0
  3 45  1  0
  3 46  1  0
  4  5  1  0
  4  6  1  0
  4  7  1  0
  5 47  1  0
  5 48  1  0
  5 49  1  0
  6 50  1  0
  6 51  1  0
  6 52  1  0
  7  8  1  0
  7 53  1  0
  7 54  1  0
  8 32  1  0
  8  9  2  0
  9 28  1  0
  9 10  1  0
 10 11  1  0
 10 55  1  0
 10 56  1  0
 11 12  2  0
 11 13  1  0
 13 27  1  0
 13 14  1  0
 13 57  1  1
 14 15  1  0
 14 58  1  0
 14 59  1  0
 15 26  1  0
 15 16  1  0
 15 60  1  6
 16 36  1  0
 16 17  1  0
 16 61  1  6
 17 18  1  0
 17 62  1  0
 17 63  1  0
 18 19  1  0
 18 64  1  0
 18 65  1  0
 19 34  1  0
 19 20  1  1
 19 21  1  0
 20 66  1  0
 20 67  1  0
 20 68  1  0
 21 40  1  0
 21 22  1  0
 21 69  1  1
 22 23  1  0
 22 70  1  0
 22 71  1  0
 23 24  1  0
 23 72  1  0
 23 73  1  0
 24 25  2  3
 24 34  1  0
 25 26  1  0
 25 74  1  0
 26 27  1  6
 26 28  1  0
 27 75  1  0
 27 76  1  0
 28 29  1  6
 28 30  1  0
 29 77  1  0
 29 78  1  0
 29 79  1  0
 30 31  1  0
 30 80  1  0
 30 81  1  0
 31 32  1  0
 31 82  1  0
 31 83  1  0
 32 33  1  1
 33 84  1  0
 33 85  1  0
 33 86  1  0
 34 35  1  0
 34 87  1  6
 35 36  1  0
 35 88  1  0
 35 89  1  0
 36 37  1  0
 36 90  1  6
 37 38  1  0
 37 39  1  0
 37 40  1  0
 38 91  1  0
 38 92  1  0
 38 93  1  0
 39 94  1  0
 39 95  1  0
 39 96  1  0
 40 97  1  0
 40 98  1  0
M  END
>  <i_m_ct_stereo_status>  (162) 
1

>  <s_m_source_file>  (162) 
/var/tmp/pbs.5076255.sched01/tmp2obefojl/44ql_32cm2.sdf

>  <i_m_source_file_index>  (162) 
24

>  <i_lp_mmshare_version>  (162) 
48012

>  <i_f3d_flags>  (162) 
0

>  <s_epik_input>  (162) 
W0NIM11DKFtDSDNdKShbQ0gyXTEpW0NIMl1bQ0BASF0oW0NIM10pW0NAXShbQ0gzXSkoW0NIMl1bQ0gyXVtDQF0yM1tDSDNdKUMxPUMyW0NIMl1DKD1PKVtDQEhdKFtDSDJdNClbQ0gyXVtDQEBIXShbQ0BAXTM0NSlbQ0BIXTZbQ0BIXTdbQ0gyXVtDQEhdOFtDQEBdKFtDSDNdKShbQ0gyXVtDSDJdNilbQ0BASF0oW0NIMl1DNyhbQ0gzXSlbQ0gzXSlbQ0gyXVtDSDJdL0M4PVtDSF0vNQ==

>  <s_epik_cmdline>  (162) 
J2VwaWtfcHl0aG9uJywgJy1waHQnLCAnMi4wJywgJy1waCcsICc3LjAnLCAnLXRuJywgJzgnLCAnLW1hJywgJzIwMCcsICctaW1hZScsICc8aW5maWxlLm1hZT4nLCAnLW9tYWUnLCAnPG91dGZpbGUubWFlPic=

>  <r_lp_tautomer_probability>  (162) 
1

>  <r_epik_Ionization_Penalty>  (162) 
5.73594e-14

>  <r_epik_Ionization_Penalty_Charging>  (162) 
0

>  <r_epik_Ionization_Penalty_Neutral>  (162) 
5.73594e-14

>  <r_epik_State_Penalty>  (162) 
-0

>  <r_epik_Charging_Adjusted_Penalty>  (162) 
0

>  <i_epik_Tot_Q>  (162) 
0

>  <i_epik_Tot_abs_Q>  (162) 
0

>  <s_lp_Force_Field>  (162) 
OPLS3e

>  <r_lp_Energy>  (162) 
337.784

>  <b_lp_Chiralities_Consistent>  (162) 
1

>  <s_lp_Variant>  (162) 
39:0-1

>  <s_i_glide_gridfile>  (162) 
pfpi4k_grid

>  <i_i_glide_lignum>  (162) 
24

>  <i_i_glide_rotatable_bonds>  (162) 
0

>  <r_i_docking_score>  (162) 
-1.97614

>  <r_i_glide_ligand_efficiency>  (162) 
-0.0494035

>  <r_i_glide_ligand_efficiency_sa>  (162) 
-0.168958

>  <r_i_glide_ligand_efficiency_ln>  (162) 
-0.421453

>  <r_i_glide_gscore>  (162) 
-1.97614

>  <r_i_glide_lipo>  (162) 
-0.344556

>  <r_i_glide_hbond>  (162) 
0

>  <r_i_glide_metal>  (162) 
-0

>  <r_i_glide_rewards>  (162) 
-0.00773052

>  <r_i_glide_evdw>  (162) 
-30.0705

>  <r_i_glide_ecoul>  (162) 
-0.802212

>  <r_i_glide_erotb>  (162) 
0

>  <r_i_glide_esite>  (162) 
0

>  <r_i_glide_emodel>  (162) 
-34.5533

>  <r_i_glide_energy>  (162) 
-30.8727

>  <r_i_glide_einternal>  (162) 
0

>  <r_i_glide_intrahb_reward>  (162) 
-0

>  <i_i_glide_confnum>  (162) 
1

>  <i_i_glide_posenum>  (162) 
25

>  <r_i_glide_eff_state_penalty>  (162) 
0

>  <ligand_id>  (162) 
39

>  <original_smiles>  (162) 
CC1CC(C)(C)CC2=C3CC(=O)C4CC5C6CCC7(C)C8CCC(=CC5(C4)C3(C)CCC21C)C7CC6C(C)(C)C8

>  <smiles>  (162) 
[H]C1=C2C([H])([H])C([H])([H])C3([H])C([H])([H])C(C([H])([H])[H])(C([H])([H])[H])C4([H])C([H])([H])C2([H])C3(C([H])([H])[H])C([H])([H])C([H])([H])C4([H])C2([H])C([H])([H])C3([H])C(=O)C([H])([H])C4=C5C([H])([H])C(C([H])([H])[H])(C([H])([H])[H])C([H])([H])C([H])(C([H])([H])[H])C5(C([H])([H])[H])C([H])([H])C([H])([H])C4(C([H])([H])[H])C12C3([H])[H]

$$$$
39:0:1
     RDKit          3D

 98105  0  0  1  0  0  0  0  0999 V2000
    3.1545    3.5347    4.2033 C   0  0  0  0  0  0  0  0  0  0  0  0
    2.0987    2.4344    3.9935 C   0  0  2  0  0  0  0  0  0  0  0  0
    0.7213    3.0868    3.7236 C   0  0  0  0  0  0  0  0  0  0  0  0
   -0.4270    2.0803    3.4711 C   0  0  0  0  0  0  0  0  0  0  0  0
   -1.7646    2.8470    3.4583 C   0  0  0  0  0  0  0  0  0  0  0  0
   -0.2443    1.3708    2.1067 C   0  0  0  0  0  0  0  0  0  0  0  0
   -0.4496    1.0458    4.6154 C   0  0  0  0  0  0  0  0  0  0  0  0
    0.9189    0.3628    4.7451 C   0  0  0  0  0  0  0  0  0  0  0  0
    1.1267   -0.9584    4.4655 C   0  0  0  0  0  0  0  0  0  0  0  0
   -0.0515   -1.8774    4.2311 C   0  0  0  0  0  0  0  0  0  0  0  0
   -0.5435   -2.3164    5.6002 C   0  0  0  0  0  0  0  0  0  0  0  0
   -1.6372   -1.9742    6.0408 O   0  0  0  0  0  0  0  0  0  0  0  0
    0.3949   -3.2217    6.3953 C   0  0  1  0  0  0  0  0  0  0  0  0
    0.7432   -4.4755    5.5961 C   0  0  0  0  0  0  0  0  0  0  0  0
    2.2081   -4.3555    5.1014 C   0  0  2  0  0  0  0  0  0  0  0  0
    2.8840   -5.8836    5.1128 C   0  0  2  0  0  0  0  0  0  0  0  0
    2.7872   -6.6756    6.5254 C   0  0  0  0  0  0  0  0  0  0  0  0
    4.1353   -7.0223    7.2880 C   0  0  0  0  0  0  0  0  0  0  0  0
    5.2144   -5.8698    7.3512 C   0  0  1  0  0  0  0  0  0  0  0  0
    5.3437   -5.5073    8.8610 C   0  0  0  0  0  0  0  0  0  0  0  0
    6.6038   -6.1127    6.7269 C   0  0  2  0  0  0  0  0  0  0  0  0
    7.4096   -4.7231    6.7129 C   0  0  0  0  0  0  0  0  0  0  0  0
    6.6311   -3.3404    7.0091 C   0  0  0  0  0  0  0  0  0  0  0  0
    5.1348   -3.3976    6.6772 C   0  0  0  0  0  0  0  0  0  0  0  0
    4.1942   -2.4977    6.2818 C   0  0  0  0  0  0  0  0  0  0  0  0
    2.7550   -2.7943    5.5768 C   0  0  2  0  0  0  0  0  0  0  0  0
    1.7415   -2.5549    6.7330 C   0  0  0  0  0  0  0  0  0  0  0  0
    2.5208   -1.6571    4.3900 C   0  0  1  0  0  0  0  0  0  0  0  0
    2.6893   -2.2186    2.9348 C   0  0  0  0  0  0  0  0  0  0  0  0
    3.5832   -0.5023    4.3476 C   0  0  0  0  0  0  0  0  0  0  0  0
    3.3429    0.6055    5.3718 C   0  0  0  0  0  0  0  0  0  0  0  0
    2.0196    1.3633    5.1337 C   0  0  1  0  0  0  0  0  0  0  0  0
    1.6913    2.0307    6.4988 C   0  0  0  0  0  0  0  0  0  0  0  0
    4.7157   -4.7264    6.4760 C   0  0  1  0  0  0  0  0  0  0  0  0
    4.9527   -4.7942    4.9270 C   0  0  0  0  0  0  0  0  0  0  0  0
    4.3185   -5.9912    4.3932 C   0  0  2  0  0  0  0  0  0  0  0  0
    5.5409   -6.9999    4.1856 C   0  0  0  0  0  0  0  0  0  0  0  0
    5.0832   -8.4621    3.8441 C   0  0  0  0  0  0  0  0  0  0  0  0
    6.2908   -6.5715    2.8939 C   0  0  0  0  0  0  0  0  0  0  0  0
    6.6219   -7.0293    5.4018 C   0  0  0  0  0  0  0  0  0  0  0  0
    2.9795    4.1120    5.1107 H   0  0  0  0  0  0  0  0  0  0  0  0
    3.1466    4.2321    3.3645 H   0  0  0  0  0  0  0  0  0  0  0  0
    4.1631    3.1265    4.2466 H   0  0  0  0  0  0  0  0  0  0  0  0
    2.3886    1.9253    3.0754 H   0  0  0  0  0  0  0  0  0  0  0  0
    0.4567    3.7324    4.5584 H   0  0  0  0  0  0  0  0  0  0  0  0
    0.8048    3.7673    2.8768 H   0  0  0  0  0  0  0  0  0  0  0  0
   -2.6081    2.1765    3.2881 H   0  0  0  0  0  0  0  0  0  0  0  0
   -1.7814    3.6066    2.6735 H   0  0  0  0  0  0  0  0  0  0  0  0
   -1.9369    3.3531    4.4088 H   0  0  0  0  0  0  0  0  0  0  0  0
   -1.0622    0.6790    1.8992 H   0  0  0  0  0  0  0  0  0  0  0  0
    0.6824    0.7977    2.0551 H   0  0  0  0  0  0  0  0  0  0  0  0
   -0.2074    2.0915    1.2864 H   0  0  0  0  0  0  0  0  0  0  0  0
   -0.7018    1.5344    5.5537 H   0  0  0  0  0  0  0  0  0  0  0  0
   -1.2778    0.3639    4.4581 H   0  0  0  0  0  0  0  0  0  0  0  0
   -0.8499   -1.3909    3.6799 H   0  0  0  0  0  0  0  0  0  0  0  0
    0.2074   -2.7447    3.6360 H   0  0  0  0  0  0  0  0  0  0  0  0
   -0.1281   -3.4925    7.3144 H   0  0  0  0  0  0  0  0  0  0  0  0
    0.5613   -5.3384    6.2282 H   0  0  0  0  0  0  0  0  0  0  0  0
    0.0711   -4.6359    4.7517 H   0  0  0  0  0  0  0  0  0  0  0  0
    2.0899   -4.2979    4.0328 H   0  0  0  0  0  0  0  0  0  0  0  0
    2.2256   -6.4629    4.4620 H   0  0  0  0  0  0  0  0  0  0  0  0
    2.1714   -6.1313    7.2394 H   0  0  0  0  0  0  0  0  0  0  0  0
    2.2607   -7.6146    6.3523 H   0  0  0  0  0  0  0  0  0  0  0  0
    3.8605   -7.3527    8.2913 H   0  0  0  0  0  0  0  0  0  0  0  0
    4.5765   -7.9224    6.8636 H   0  0  0  0  0  0  0  0  0  0  0  0
    6.1879   -4.8638    9.0901 H   0  0  0  0  0  0  0  0  0  0  0  0
    5.5020   -6.4000    9.4674 H   0  0  0  0  0  0  0  0  0  0  0  0
    4.4437   -5.0129    9.2295 H   0  0  0  0  0  0  0  0  0  0  0  0
    7.1462   -6.7234    7.4487 H   0  0  0  0  0  0  0  0  0  0  0  0
    8.2188   -4.7944    7.4404 H   0  0  0  0  0  0  0  0  0  0  0  0
    7.9235   -4.6516    5.7550 H   0  0  0  0  0  0  0  0  0  0  0  0
    6.7301   -3.0681    8.0598 H   0  0  0  0  0  0  0  0  0  0  0  0
    7.0905   -2.5190    6.4579 H   0  0  0  0  0  0  0  0  0  0  0  0
    4.5153   -1.4829    6.4035 H   0  0  0  0  0  0  0  0  0  0  0  0
    1.6330   -1.4993    6.9896 H   0  0  0  0  0  0  0  0  0  0  0  0
    2.1090   -3.0327    7.6421 H   0  0  0  0  0  0  0  0  0  0  0  0
    3.6560   -2.6991    2.7917 H   0  0  0  0  0  0  0  0  0  0  0  0
    2.6268   -1.4272    2.1862 H   0  0  0  0  0  0  0  0  0  0  0  0
    1.9242   -2.9093    2.5929 H   0  0  0  0  0  0  0  0  0  0  0  0
    4.6051   -0.8780    4.3840 H   0  0  0  0  0  0  0  0  0  0  0  0
    3.5650    0.0069    3.3843 H   0  0  0  0  0  0  0  0  0  0  0  0
    3.3000    0.1704    6.3675 H   0  0  0  0  0  0  0  0  0  0  0  0
    4.1919    1.2849    5.3953 H   0  0  0  0  0  0  0  0  0  0  0  0
    2.5523    2.5743    6.8889 H   0  0  0  0  0  0  0  0  0  0  0  0
    1.4193    1.2802    7.2433 H   0  0  0  0  0  0  0  0  0  0  0  0
    0.8701    2.7434    6.4564 H   0  0  0  0  0  0  0  0  0  0  0  0
    3.7368   -4.5966    6.9202 H   0  0  0  0  0  0  0  0  0  0  0  0
    4.5655   -3.9759    4.3335 H   0  0  0  0  0  0  0  0  0  0  0  0
    5.9961   -4.6835    4.6606 H   0  0  0  0  0  0  0  0  0  0  0  0
    4.3177   -6.8050    5.0412 H   0  0  0  0  0  0  0  0  0  0  0  0
    5.9354   -9.1008    3.6028 H   0  0  0  0  0  0  0  0  0  0  0  0
    4.4113   -8.4727    2.9844 H   0  0  0  0  0  0  0  0  0  0  0  0
    4.5565   -8.9420    4.6716 H   0  0  0  0  0  0  0  0  0  0  0  0
    7.0521   -7.3012    2.6150 H   0  0  0  0  0  0  0  0  0  0  0  0
    6.8103   -5.6185    2.9782 H   0  0  0  0  0  0  0  0  0  0  0  0
    5.6018   -6.4889    2.0532 H   0  0  0  0  0  0  0  0  0  0  0  0
    7.6246   -6.9568    4.9769 H   0  0  0  0  0  0  0  0  0  0  0  0
    6.6089   -8.0519    5.7796 H   0  0  0  0  0  0  0  0  0  0  0  0
  1  2  1  0
  1 41  1  0
  1 42  1  0
  1 43  1  0
  2 32  1  0
  2  3  1  0
  2 44  1  6
  3  4  1  0
  3 45  1  0
  3 46  1  0
  4  5  1  0
  4  6  1  0
  4  7  1  0
  5 47  1  0
  5 48  1  0
  5 49  1  0
  6 50  1  0
  6 51  1  0
  6 52  1  0
  7  8  1  0
  7 53  1  0
  7 54  1  0
  8 32  1  0
  8  9  2  0
  9 28  1  0
  9 10  1  0
 10 11  1  0
 10 55  1  0
 10 56  1  0
 11 12  2  0
 11 13  1  0
 13 27  1  0
 13 14  1  0
 13 57  1  1
 14 15  1  0
 14 58  1  0
 14 59  1  0
 15 26  1  0
 15 16  1  0
 15 60  1  6
 16 36  1  0
 16 17  1  0
 16 61  1  6
 17 18  1  0
 17 62  1  0
 17 63  1  0
 18 19  1  0
 18 64  1  0
 18 65  1  0
 19 34  1  0
 19 20  1  1
 19 21  1  0
 20 66  1  0
 20 67  1  0
 20 68  1  0
 21 40  1  0
 21 22  1  0
 21 69  1  1
 22 23  1  0
 22 70  1  0
 22 71  1  0
 23 24  1  0
 23 72  1  0
 23 73  1  0
 24 25  2  3
 24 34  1  0
 25 26  1  0
 25 74  1  0
 26 27  1  1
 26 28  1  0
 27 75  1  0
 27 76  1  0
 28 29  1  6
 28 30  1  0
 29 77  1  0
 29 78  1  0
 29 79  1  0
 30 31  1  0
 30 80  1  0
 30 81  1  0
 31 32  1  0
 31 82  1  0
 31 83  1  0
 32 33  1  1
 33 84  1  0
 33 85  1  0
 33 86  1  0
 34 35  1  0
 34 87  1  6
 35 36  1  0
 35 88  1  0
 35 89  1  0
 36 37  1  0
 36 90  1  6
 37 38  1  0
 37 39  1  0
 37 40  1  0
 38 91  1  0
 38 92  1  0
 38 93  1  0
 39 94  1  0
 39 95  1  0
 39 96  1  0
 40 97  1  0
 40 98  1  0
M  END
>  <i_m_ct_stereo_status>  (163) 
1

>  <s_m_source_file>  (163) 
/var/tmp/pbs.5076255.sched01/tmp2obefojl/44ql_32cm2.sdf

>  <i_m_source_file_index>  (163) 
24

>  <i_lp_mmshare_version>  (163) 
48012

>  <i_f3d_flags>  (163) 
0

>  <s_epik_input>  (163) 
W0NIM11DKFtDSDNdKShbQ0gyXTEpW0NIMl1bQ0BASF0oW0NIM10pW0NAXShbQ0gzXSkoW0NIMl1bQ0gyXVtDQF0yM1tDSDNdKUMxPUMyW0NIMl1DKD1PKVtDQEhdKFtDSDJdNClbQ0gyXVtDQEBIXShbQ0BAXTM0NSlbQ0BIXTZbQ0BIXTdbQ0gyXVtDQEhdOFtDQEBdKFtDSDNdKShbQ0gyXVtDSDJdNilbQ0BASF0oW0NIMl1DNyhbQ0gzXSlbQ0gzXSlbQ0gyXVtDSDJdL0M4PVtDSF0vNQ==

>  <s_epik_cmdline>  (163) 
J2VwaWtfcHl0aG9uJywgJy1waHQnLCAnMi4wJywgJy1waCcsICc3LjAnLCAnLXRuJywgJzgnLCAnLW1hJywgJzIwMCcsICctaW1hZScsICc8aW5maWxlLm1hZT4nLCAnLW9tYWUnLCAnPG91dGZpbGUubWFlPic=

>  <r_lp_tautomer_probability>  (163) 
1

>  <r_epik_Ionization_Penalty>  (163) 
5.73594e-14

>  <r_epik_Ionization_Penalty_Charging>  (163) 
0

>  <r_epik_Ionization_Penalty_Neutral>  (163) 
5.73594e-14

>  <r_epik_State_Penalty>  (163) 
-0

>  <r_epik_Charging_Adjusted_Penalty>  (163) 
0

>  <i_epik_Tot_Q>  (163) 
0

>  <i_epik_Tot_abs_Q>  (163) 
0

>  <s_lp_Force_Field>  (163) 
OPLS3e

>  <r_lp_Energy>  (163) 
337.784

>  <b_lp_Chiralities_Consistent>  (163) 
1

>  <s_lp_Variant>  (163) 
39:0-1

>  <s_i_glide_gridfile>  (163) 
pfpi4k_grid

>  <i_i_glide_lignum>  (163) 
24

>  <i_i_glide_rotatable_bonds>  (163) 
0

>  <r_i_docking_score>  (163) 
-1.83117

>  <r_i_glide_ligand_efficiency>  (163) 
-0.0457792

>  <r_i_glide_ligand_efficiency_sa>  (163) 
-0.156563

>  <r_i_glide_ligand_efficiency_ln>  (163) 
-0.390534

>  <r_i_glide_gscore>  (163) 
-1.83117

>  <r_i_glide_lipo>  (163) 
-0.0566766

>  <r_i_glide_hbond>  (163) 
-0.000239438

>  <r_i_glide_metal>  (163) 
-0

>  <r_i_glide_rewards>  (163) 
0

>  <r_i_glide_evdw>  (163) 
-25.5042

>  <r_i_glide_ecoul>  (163) 
-3.13991

>  <r_i_glide_erotb>  (163) 
0

>  <r_i_glide_esite>  (163) 
-0.028057

>  <r_i_glide_emodel>  (163) 
-32.0351

>  <r_i_glide_energy>  (163) 
-28.6441

>  <r_i_glide_einternal>  (163) 
0

>  <r_i_glide_intrahb_reward>  (163) 
-0

>  <i_i_glide_confnum>  (163) 
1

>  <i_i_glide_posenum>  (163) 
20

>  <r_i_glide_eff_state_penalty>  (163) 
0

>  <ligand_id>  (163) 
39

>  <original_smiles>  (163) 
CC1CC(C)(C)CC2=C3CC(=O)C4CC5C6CCC7(C)C8CCC(=CC5(C4)C3(C)CCC21C)C7CC6C(C)(C)C8

>  <smiles>  (163) 
[H]C1=C2C([H])([H])C([H])([H])C3([H])C([H])([H])C(C([H])([H])[H])(C([H])([H])[H])C4([H])C([H])([H])C2([H])C3(C([H])([H])[H])C([H])([H])C([H])([H])C4([H])C2([H])C([H])([H])C3([H])C(=O)C([H])([H])C4=C5C([H])([H])C(C([H])([H])[H])(C([H])([H])[H])C([H])([H])C([H])(C([H])([H])[H])C5(C([H])([H])[H])C([H])([H])C([H])([H])C4(C([H])([H])[H])C12C3([H])[H]

$$$$
39:0:2
     RDKit          3D

 98105  0  0  1  0  0  0  0  0999 V2000
   -1.7833    3.9160    3.1486 C   0  0  0  0  0  0  0  0  0  0  0  0
   -1.2243    3.0145    4.2625 C   0  0  2  0  0  0  0  0  0  0  0  0
   -1.5868    3.6284    5.6347 C   0  0  0  0  0  0  0  0  0  0  0  0
   -1.0989    2.8100    6.8481 C   0  0  0  0  0  0  0  0  0  0  0  0
   -1.3004    3.6393    8.1306 C   0  0  0  0  0  0  0  0  0  0  0  0
   -1.9210    1.5125    6.9810 C   0  0  0  0  0  0  0  0  0  0  0  0
    0.3986    2.4828    6.6823 C   0  0  0  0  0  0  0  0  0  0  0  0
    0.6529    1.7735    5.3506 C   0  0  0  0  0  0  0  0  0  0  0  0
    1.0701    0.4815    5.2621 C   0  0  0  0  0  0  0  0  0  0  0  0
    1.5102   -0.2771    6.5008 C   0  0  0  0  0  0  0  0  0  0  0  0
    2.9663    0.0939    6.7243 C   0  0  0  0  0  0  0  0  0  0  0  0
    3.3264    0.7639    7.6831 O   0  0  0  0  0  0  0  0  0  0  0  0
    3.9558   -0.4117    5.6767 C   0  0  1  0  0  0  0  0  0  0  0  0
    3.8754   -1.9305    5.5401 C   0  0  0  0  0  0  0  0  0  0  0  0
    3.1630   -2.2699    4.2024 C   0  0  2  0  0  0  0  0  0  0  0  0
    3.8177   -3.6718    3.5997 C   0  0  2  0  0  0  0  0  0  0  0  0
    5.4108   -3.6435    3.4249 C   0  0  0  0  0  0  0  0  0  0  0  0
    6.0485   -3.7577    1.9603 C   0  0  0  0  0  0  0  0  0  0  0  0
    5.3835   -2.8632    0.8705 C   0  0  1  0  0  0  0  0  0  0  0  0
    6.4660   -1.8267    0.4291 C   0  0  0  0  0  0  0  0  0  0  0  0
    4.7877   -3.5698   -0.3389 C   0  0  2  0  0  0  0  0  0  0  0  0
    3.9466   -2.5019   -1.1916 C   0  0  0  0  0  0  0  0  0  0  0  0
    3.6457   -1.0626   -0.5427 C   0  0  0  0  0  0  0  0  0  0  0  0
    3.5804   -1.0737    0.9887 C   0  0  0  0  0  0  0  0  0  0  0  0
    2.9224   -0.3652    1.9476 C   0  0  0  0  0  0  0  0  0  0  0  0
    2.6891   -0.7730    3.5108 C   0  0  2  0  0  0  0  0  0  0  0  0
    3.6994    0.1416    4.2611 C   0  0  0  0  0  0  0  0  0  0  0  0
    1.1480   -0.3447    3.9412 C   0  0  1  0  0  0  0  0  0  0  0  0
    0.1943   -1.5749    4.0944 C   0  0  0  0  0  0  0  0  0  0  0  0
    0.3581    0.4724    2.8612 C   0  0  0  0  0  0  0  0  0  0  0  0
    0.6929    1.9590    2.8509 C   0  0  0  0  0  0  0  0  0  0  0  0
    0.3014    2.6719    4.1578 C   0  0  1  0  0  0  0  0  0  0  0  0
    1.1607    3.9660    4.1700 C   0  0  0  0  0  0  0  0  0  0  0  0
    4.1406   -2.2529    1.4917 C   0  0  1  0  0  0  0  0  0  0  0  0
    2.8295   -3.1089    1.5727 C   0  0  0  0  0  0  0  0  0  0  0  0
    3.0612   -4.3169    2.3548 C   0  0  2  0  0  0  0  0  0  0  0  0
    3.2545   -5.4468    1.2556 C   0  0  0  0  0  0  0  0  0  0  0  0
    3.7760   -6.8128    1.8209 C   0  0  0  0  0  0  0  0  0  0  0  0
    1.8419   -5.8168    0.7566 C   0  0  0  0  0  0  0  0  0  0  0  0
    4.1702   -5.0068   -0.0054 C   0  0  0  0  0  0  0  0  0  0  0  0
   -1.2701    4.8746    3.0956 H   0  0  0  0  0  0  0  0  0  0  0  0
   -2.8478    4.1092    3.2925 H   0  0  0  0  0  0  0  0  0  0  0  0
   -1.6954    3.4413    2.1732 H   0  0  0  0  0  0  0  0  0  0  0  0
   -1.7817    2.0835    4.1791 H   0  0  0  0  0  0  0  0  0  0  0  0
   -1.1682    4.6304    5.7021 H   0  0  0  0  0  0  0  0  0  0  0  0
   -2.6695    3.7547    5.7019 H   0  0  0  0  0  0  0  0  0  0  0  0
   -0.9693    3.0967    9.0178 H   0  0  0  0  0  0  0  0  0  0  0  0
   -2.3488    3.9107    8.2803 H   0  0  0  0  0  0  0  0  0  0  0  0
   -0.7275    4.5652    8.0875 H   0  0  0  0  0  0  0  0  0  0  0  0
   -1.5948    0.9412    7.8505 H   0  0  0  0  0  0  0  0  0  0  0  0
   -1.8128    0.8662    6.1054 H   0  0  0  0  0  0  0  0  0  0  0  0
   -2.9892    1.7193    7.0948 H   0  0  0  0  0  0  0  0  0  0  0  0
    0.9823    3.3993    6.7246 H   0  0  0  0  0  0  0  0  0  0  0  0
    0.7442    1.9312    7.5503 H   0  0  0  0  0  0  0  0  0  0  0  0
    0.9143   -0.0309    7.3767 H   0  0  0  0  0  0  0  0  0  0  0  0
    1.4140   -1.3519    6.3998 H   0  0  0  0  0  0  0  0  0  0  0  0
    4.9519   -0.1174    6.0140 H   0  0  0  0  0  0  0  0  0  0  0  0
    4.8798   -2.3306    5.6291 H   0  0  0  0  0  0  0  0  0  0  0  0
    3.3499   -2.3949    6.3757 H   0  0  0  0  0  0  0  0  0  0  0  0
    2.2532   -2.7330    4.5417 H   0  0  0  0  0  0  0  0  0  0  0  0
    3.6836   -4.3996    4.4028 H   0  0  0  0  0  0  0  0  0  0  0  0
    5.8092   -2.7288    3.8541 H   0  0  0  0  0  0  0  0  0  0  0  0
    5.8383   -4.4552    4.0183 H   0  0  0  0  0  0  0  0  0  0  0  0
    7.1166   -3.5359    1.9612 H   0  0  0  0  0  0  0  0  0  0  0  0
    6.0824   -4.7991    1.6541 H   0  0  0  0  0  0  0  0  0  0  0  0
    6.2047   -1.2731   -0.4694 H   0  0  0  0  0  0  0  0  0  0  0  0
    7.4094   -2.3139    0.1791 H   0  0  0  0  0  0  0  0  0  0  0  0
    6.6635   -1.0976    1.2195 H   0  0  0  0  0  0  0  0  0  0  0  0
    5.6266   -3.8140   -0.9943 H   0  0  0  0  0  0  0  0  0  0  0  0
    4.4609   -2.3309   -2.1356 H   0  0  0  0  0  0  0  0  0  0  0  0
    2.9991   -2.9553   -1.4924 H   0  0  0  0  0  0  0  0  0  0  0  0
    4.3716   -0.3181   -0.8649 H   0  0  0  0  0  0  0  0  0  0  0  0
    2.6965   -0.6970   -0.9257 H   0  0  0  0  0  0  0  0  0  0  0  0
    2.4527    0.5185    1.5601 H   0  0  0  0  0  0  0  0  0  0  0  0
    3.3955    1.1909    4.2730 H   0  0  0  0  0  0  0  0  0  0  0  0
    4.6578    0.1326    3.7384 H   0  0  0  0  0  0  0  0  0  0  0  0
    0.2061   -2.2009    3.2044 H   0  0  0  0  0  0  0  0  0  0  0  0
   -0.8385   -1.2635    4.2541 H   0  0  0  0  0  0  0  0  0  0  0  0
    0.3641   -2.2275    4.9456 H   0  0  0  0  0  0  0  0  0  0  0  0
    0.4283    0.0328    1.8649 H   0  0  0  0  0  0  0  0  0  0  0  0
   -0.7130    0.4333    3.0473 H   0  0  0  0  0  0  0  0  0  0  0  0
    1.7629    2.0899    2.7005 H   0  0  0  0  0  0  0  0  0  0  0  0
    0.2287    2.4359    1.9910 H   0  0  0  0  0  0  0  0  0  0  0  0
    1.0802    4.5057    3.2227 H   0  0  0  0  0  0  0  0  0  0  0  0
    2.2175    3.7303    4.3124 H   0  0  0  0  0  0  0  0  0  0  0  0
    0.8906    4.6728    4.9528 H   0  0  0  0  0  0  0  0  0  0  0  0
    4.5946   -1.7785    2.3518 H   0  0  0  0  0  0  0  0  0  0  0  0
    1.9679   -2.6404    2.0280 H   0  0  0  0  0  0  0  0  0  0  0  0
    2.3961   -3.2851    0.5979 H   0  0  0  0  0  0  0  0  0  0  0  0
    4.0195   -4.7125    2.2794 H   0  0  0  0  0  0  0  0  0  0  0  0
    3.7657   -7.5877    1.0518 H   0  0  0  0  0  0  0  0  0  0  0  0
    3.1550   -7.1626    2.6483 H   0  0  0  0  0  0  0  0  0  0  0  0
    4.8040   -6.7509    2.1862 H   0  0  0  0  0  0  0  0  0  0  0  0
    1.8501   -6.6546    0.0826 H   0  0  0  0  0  0  0  0  0  0  0  0
    1.4068   -5.0426    0.1521 H   0  0  0  0  0  0  0  0  0  0  0  0
    1.1738   -6.0625    1.5793 H   0  0  0  0  0  0  0  0  0  0  0  0
    3.5917   -5.1857   -0.8758 H   0  0  0  0  0  0  0  0  0  0  0  0
    4.9972   -5.7203   -0.0752 H   0  0  0  0  0  0  0  0  0  0  0  0
  1  2  1  0
  1 41  1  0
  1 42  1  0
  1 43  1  0
  2 32  1  0
  2  3  1  0
  2 44  1  1
  3  4  1  0
  3 45  1  0
  3 46  1  0
  4  5  1  0
  4  6  1  0
  4  7  1  0
  5 47  1  0
  5 48  1  0
  5 49  1  0
  6 50  1  0
  6 51  1  0
  6 52  1  0
  7  8  1  0
  7 53  1  0
  7 54  1  0
  8 32  1  0
  8  9  2  0
  9 28  1  0
  9 10  1  0
 10 11  1  0
 10 55  1  0
 10 56  1  0
 11 12  2  0
 11 13  1  0
 13 27  1  0
 13 14  1  0
 13 57  1  1
 14 15  1  0
 14 58  1  0
 14 59  1  0
 15 26  1  0
 15 16  1  0
 15 60  1  1
 16 36  1  0
 16 17  1  0
 16 61  1  1
 17 18  1  0
 17 62  1  0
 17 63  1  0
 18 19  1  0
 18 64  1  0
 18 65  1  0
 19 34  1  0
 19 20  1  6
 19 21  1  0
 20 66  1  0
 20 67  1  0
 20 68  1  0
 21 40  1  0
 21 22  1  0
 21 69  1  6
 22 23  1  0
 22 70  1  0
 22 71  1  0
 23 24  1  0
 23 72  1  0
 23 73  1  0
 24 25  2  3
 24 34  1  0
 25 26  1  0
 25 74  1  0
 26 27  1  1
 26 28  1  0
 27 75  1  0
 27 76  1  0
 28 29  1  1
 28 30  1  0
 29 77  1  0
 29 78  1  0
 29 79  1  0
 30 31  1  0
 30 80  1  0
 30 81  1  0
 31 32  1  0
 31 82  1  0
 31 83  1  0
 32 33  1  1
 33 84  1  0
 33 85  1  0
 33 86  1  0
 34 35  1  0
 34 87  1  1
 35 36  1  0
 35 88  1  0
 35 89  1  0
 36 37  1  0
 36 90  1  1
 37 38  1  0
 37 39  1  0
 37 40  1  0
 38 91  1  0
 38 92  1  0
 38 93  1  0
 39 94  1  0
 39 95  1  0
 39 96  1  0
 40 97  1  0
 40 98  1  0
M  END
>  <i_m_ct_stereo_status>  (164) 
1

>  <s_m_source_file>  (164) 
/var/tmp/pbs.5076255.sched01/tmp2obefojl/44ql_32cm2.sdf

>  <i_m_source_file_index>  (164) 
24

>  <i_lp_mmshare_version>  (164) 
48012

>  <i_f3d_flags>  (164) 
0

>  <s_epik_input>  (164) 
W0NIM11DKFtDSDNdKShbQ0gyXTEpW0NIMl1bQ0BASF0oW0NIM10pW0NAXShbQ0gzXSkoW0NIMl1bQ0gyXVtDQF0yM1tDSDNdKUMxPUMyW0NIMl1DKD1PKVtDQEhdKFtDSDJdNClbQ0gyXVtDQEBIXShbQ0BAXTM0NSlbQ0BIXTZbQ0BIXTdbQ0gyXVtDQEhdOFtDQEBdKFtDSDNdKShbQ0gyXVtDSDJdNilbQ0BASF0oW0NIMl1DNyhbQ0gzXSlbQ0gzXSlbQ0gyXVtDSDJdL0M4PVtDSF0vNQ==

>  <s_epik_cmdline>  (164) 
J2VwaWtfcHl0aG9uJywgJy1waHQnLCAnMi4wJywgJy1waCcsICc3LjAnLCAnLXRuJywgJzgnLCAnLW1hJywgJzIwMCcsICctaW1hZScsICc8aW5maWxlLm1hZT4nLCAnLW9tYWUnLCAnPG91dGZpbGUubWFlPic=

>  <r_lp_tautomer_probability>  (164) 
1

>  <r_epik_Ionization_Penalty>  (164) 
5.73594e-14

>  <r_epik_Ionization_Penalty_Charging>  (164) 
0

>  <r_epik_Ionization_Penalty_Neutral>  (164) 
5.73594e-14

>  <r_epik_State_Penalty>  (164) 
-0

>  <r_epik_Charging_Adjusted_Penalty>  (164) 
0

>  <i_epik_Tot_Q>  (164) 
0

>  <i_epik_Tot_abs_Q>  (164) 
0

>  <s_lp_Force_Field>  (164) 
OPLS3e

>  <r_lp_Energy>  (164) 
337.784

>  <b_lp_Chiralities_Consistent>  (164) 
1

>  <s_lp_Variant>  (164) 
39:0-1

>  <s_i_glide_gridfile>  (164) 
pfpi4k_grid

>  <i_i_glide_lignum>  (164) 
24

>  <i_i_glide_rotatable_bonds>  (164) 
0

>  <r_i_docking_score>  (164) 
-1.82084

>  <r_i_glide_ligand_efficiency>  (164) 
-0.045521

>  <r_i_glide_ligand_efficiency_sa>  (164) 
-0.15568

>  <r_i_glide_ligand_efficiency_ln>  (164) 
-0.388331

>  <r_i_glide_gscore>  (164) 
-1.82084

>  <r_i_glide_lipo>  (164) 
-0.259657

>  <r_i_glide_hbond>  (164) 
0

>  <r_i_glide_metal>  (164) 
-0

>  <r_i_glide_rewards>  (164) 
0

>  <r_i_glide_evdw>  (164) 
-30.0564

>  <r_i_glide_ecoul>  (164) 
-0.389089

>  <r_i_glide_erotb>  (164) 
0

>  <r_i_glide_esite>  (164) 
0

>  <r_i_glide_emodel>  (164) 
-33.6948

>  <r_i_glide_energy>  (164) 
-30.4455

>  <r_i_glide_einternal>  (164) 
0

>  <r_i_glide_intrahb_reward>  (164) 
-0

>  <i_i_glide_confnum>  (164) 
1

>  <i_i_glide_posenum>  (164) 
1

>  <r_i_glide_eff_state_penalty>  (164) 
0

>  <ligand_id>  (164) 
39

>  <original_smiles>  (164) 
CC1CC(C)(C)CC2=C3CC(=O)C4CC5C6CCC7(C)C8CCC(=CC5(C4)C3(C)CCC21C)C7CC6C(C)(C)C8

>  <smiles>  (164) 
[H]C1=C2C([H])([H])C([H])([H])C3([H])C([H])([H])C(C([H])([H])[H])(C([H])([H])[H])C4([H])C([H])([H])C2([H])C3(C([H])([H])[H])C([H])([H])C([H])([H])C4([H])C2([H])C([H])([H])C3([H])C(=O)C([H])([H])C4=C5C([H])([H])C(C([H])([H])[H])(C([H])([H])[H])C([H])([H])C([H])(C([H])([H])[H])C5(C([H])([H])[H])C([H])([H])C([H])([H])C4(C([H])([H])[H])C12C3([H])[H]

$$$$
40:0:0
     RDKit          3D

 87 92  0  0  1  0  0  0  0  0999 V2000
    6.7379   -5.6076    0.4914 C   0  0  0  0  0  0  0  0  0  0  0  0
    7.2220   -6.4903    1.6351 C   0  0  0  0  0  0  0  0  0  0  0  0
    8.1570   -7.5752    1.0815 C   0  0  0  0  0  0  0  0  0  0  0  0
    6.0572   -7.0554    2.4536 C   0  0  0  0  0  0  0  0  0  0  0  0
    5.8828   -8.3671    2.7261 C   0  0  0  0  0  0  0  0  0  0  0  0
    4.7060   -8.5515    3.6250 C   0  0  2  0  0  0  0  0  0  0  0  0
    3.5370   -8.5502    2.6654 C   0  0  0  0  0  0  0  0  0  0  0  0
    2.9749   -7.3858    2.2847 C   0  0  0  0  0  0  0  0  0  0  0  0
    1.7763   -7.4028    1.3582 C   0  0  0  0  0  0  0  0  0  0  0  0
    0.5525   -6.6235    1.8051 C   0  0  0  0  0  0  0  0  0  0  0  0
    0.2487   -6.5592    3.3063 C   0  0  1  0  0  0  0  0  0  0  0  0
   -0.3571   -7.8763    3.8779 C   0  0  0  0  0  0  0  0  0  0  0  0
   -1.5900   -8.3505    3.0621 C   0  0  0  0  0  0  0  0  0  0  0  0
    0.6043   -9.0725    3.9702 C   0  0  0  0  0  0  0  0  0  0  0  0
   -0.8890   -7.5803    5.2863 C   0  0  0  0  0  0  0  0  0  0  0  0
    0.1819   -7.0010    6.2088 C   0  0  0  0  0  0  0  0  0  0  0  0
    0.6974   -5.6654    5.6816 C   0  0  0  0  0  0  0  0  0  0  0  0
    1.1745   -5.6101    4.1958 C   0  0  2  0  0  0  0  0  0  0  0  0
    0.8653   -4.1250    3.8224 C   0  0  0  0  0  0  0  0  0  0  0  0
    2.7752   -5.7780    4.1161 C   0  0  1  0  0  0  0  0  0  0  0  0
    3.4672   -6.7486    5.1150 C   0  0  0  0  0  0  0  0  0  0  0  0
    4.7594   -7.2304    4.4334 C   0  0  2  0  0  0  0  0  0  0  0  0
    5.0850   -6.2301    3.3107 C   0  0  1  0  0  0  0  0  0  0  0  0
    5.7611   -4.9710    3.9254 C   0  0  0  0  0  0  0  0  0  0  0  0
    5.7982   -3.9358    3.2097 O   0  0  0  0  0  0  0  0  0  0  0  0
    6.2351   -5.0272    5.0628 O   0  0  0  0  0  0  0  0  0  0  0  0
    3.5726   -6.0484    2.7907 C   0  0  1  0  0  0  0  0  0  0  0  0
    3.3765   -4.8951    1.7705 C   0  0  0  0  0  0  0  0  0  0  0  0
    3.8218   -5.2997    0.4788 O   0  0  0  0  0  0  0  0  0  0  0  0
    3.7374   -4.3288   -0.5338 C   0  0  2  0  0  0  0  0  0  0  0  0
    4.5701   -3.2140   -0.3070 O   0  0  0  0  0  0  0  0  0  0  0  0
    4.6282   -2.2079   -1.3501 C   0  0  1  0  0  0  0  0  0  0  0  0
    5.2754   -2.7609   -2.6399 C   0  0  0  0  0  0  0  0  0  0  0  0
    6.6451   -3.0071   -2.4778 O   0  0  0  0  0  0  0  0  0  0  0  0
    3.2038   -1.7009   -1.5853 C   0  0  1  0  0  0  0  0  0  0  0  0
    3.1493   -0.7051   -2.5813 O   0  0  0  0  0  0  0  0  0  0  0  0
    2.2124   -2.8596   -1.9165 C   0  0  1  0  0  0  0  0  0  0  0  0
    2.4685   -3.4546   -3.1905 O   0  0  0  0  0  0  0  0  0  0  0  0
    2.2954   -3.8359   -0.7914 C   0  0  1  0  0  0  0  0  0  0  0  0
    1.4052   -4.8936   -1.0779 O   0  0  0  0  0  0  0  0  0  0  0  0
    6.1690   -4.7775    0.8981 H   0  0  0  0  0  0  0  0  0  0  0  0
    6.0904   -6.1854   -0.1697 H   0  0  0  0  0  0  0  0  0  0  0  0
    7.5653   -5.1697   -0.0708 H   0  0  0  0  0  0  0  0  0  0  0  0
    7.8215   -5.8697    2.3023 H   0  0  0  0  0  0  0  0  0  0  0  0
    8.6344   -8.0895    1.9140 H   0  0  0  0  0  0  0  0  0  0  0  0
    8.9229   -7.1353    0.4420 H   0  0  0  0  0  0  0  0  0  0  0  0
    7.6326   -8.3211    0.4804 H   0  0  0  0  0  0  0  0  0  0  0  0
    6.4763   -9.1903    2.3834 H   0  0  0  0  0  0  0  0  0  0  0  0
    4.7284   -9.4441    4.2546 H   0  0  0  0  0  0  0  0  0  0  0  0
    3.1953   -9.5111    2.2889 H   0  0  0  0  0  0  0  0  0  0  0  0
    2.0799   -6.9089    0.4603 H   0  0  0  0  0  0  0  0  0  0  0  0
    1.4894   -8.4293    1.1115 H   0  0  0  0  0  0  0  0  0  0  0  0
    0.6182   -5.6209    1.4186 H   0  0  0  0  0  0  0  0  0  0  0  0
   -0.2972   -6.9939    1.2392 H   0  0  0  0  0  0  0  0  0  0  0  0
   -0.6445   -5.9587    3.2983 H   0  0  0  0  0  0  0  0  0  0  0  0
   -2.1198   -9.1469    3.5844 H   0  0  0  0  0  0  0  0  0  0  0  0
   -1.3106   -8.7606    2.0929 H   0  0  0  0  0  0  0  0  0  0  0  0
   -2.3133   -7.5508    2.9004 H   0  0  0  0  0  0  0  0  0  0  0  0
    0.1703   -9.8787    4.5683 H   0  0  0  0  0  0  0  0  0  0  0  0
    1.5368   -8.8037    4.4487 H   0  0  0  0  0  0  0  0  0  0  0  0
    0.8343   -9.4888    2.9911 H   0  0  0  0  0  0  0  0  0  0  0  0
   -1.6985   -6.8446    5.2067 H   0  0  0  0  0  0  0  0  0  0  0  0
   -1.3169   -8.5105    5.6812 H   0  0  0  0  0  0  0  0  0  0  0  0
   -0.2489   -6.8167    7.1906 H   0  0  0  0  0  0  0  0  0  0  0  0
    0.9699   -7.7243    6.3825 H   0  0  0  0  0  0  0  0  0  0  0  0
   -0.1103   -4.9524    5.8263 H   0  0  0  0  0  0  0  0  0  0  0  0
    1.4897   -5.3032    6.3281 H   0  0  0  0  0  0  0  0  0  0  0  0
    1.4461   -3.4317    4.4203 H   0  0  0  0  0  0  0  0  0  0  0  0
   -0.1814   -3.8983    4.0229 H   0  0  0  0  0  0  0  0  0  0  0  0
    1.0002   -3.8445    2.7926 H   0  0  0  0  0  0  0  0  0  0  0  0
    3.1477   -4.8059    4.4302 H   0  0  0  0  0  0  0  0  0  0  0  0
    3.7050   -6.1882    6.0234 H   0  0  0  0  0  0  0  0  0  0  0  0
    2.8651   -7.5958    5.4126 H   0  0  0  0  0  0  0  0  0  0  0  0
    5.5515   -7.3159    5.1776 H   0  0  0  0  0  0  0  0  0  0  0  0
    2.3315   -4.7374    1.6470 H   0  0  0  0  0  0  0  0  0  0  0  0
    3.8125   -3.9349    2.0285 H   0  0  0  0  0  0  0  0  0  0  0  0
    4.2115   -4.8449   -1.3725 H   0  0  0  0  0  0  0  0  0  0  0  0
    5.2276   -1.3881   -0.9644 H   0  0  0  0  0  0  0  0  0  0  0  0
    4.8407   -3.6903   -2.9756 H   0  0  0  0  0  0  0  0  0  0  0  0
    5.1571   -2.0459   -3.4486 H   0  0  0  0  0  0  0  0  0  0  0  0
    6.9985   -3.3950   -3.2991 H   0  0  0  0  0  0  0  0  0  0  0  0
    2.9384   -1.2444   -0.6423 H   0  0  0  0  0  0  0  0  0  0  0  0
    2.2754   -0.2733   -2.5550 H   0  0  0  0  0  0  0  0  0  0  0  0
    1.1417   -2.6639   -1.8187 H   0  0  0  0  0  0  0  0  0  0  0  0
    1.8000   -4.1383   -3.3536 H   0  0  0  0  0  0  0  0  0  0  0  0
    1.9134   -3.3174    0.0932 H   0  0  0  0  0  0  0  0  0  0  0  0
    1.8613   -5.5230   -1.6762 H   0  0  0  0  0  0  0  0  0  0  0  0
  1  2  1  0
  1 41  1  0
  1 42  1  0
  1 43  1  0
  2  3  1  0
  2  4  1  0
  2 44  1  0
  3 45  1  0
  3 46  1  0
  3 47  1  0
  4 23  1  0
  4  5  2  0
  5  6  1  0
  5 48  1  0
  6 22  1  0
  6  7  1  0
  6 49  1  1
  7  8  2  0
  7 50  1  0
  8 27  1  0
  8  9  1  0
  9 10  1  0
  9 51  1  0
  9 52  1  0
 10 11  1  0
 10 53  1  0
 10 54  1  0
 11 18  1  0
 11 12  1  0
 11 55  1  6
 12 13  1  0
 12 14  1  0
 12 15  1  0
 13 56  1  0
 13 57  1  0
 13 58  1  0
 14 59  1  0
 14 60  1  0
 14 61  1  0
 15 16  1  0
 15 62  1  0
 15 63  1  0
 16 17  1  0
 16 64  1  0
 16 65  1  0
 17 18  1  0
 17 66  1  0
 17 67  1  0
 18 19  1  6
 18 20  1  0
 19 68  1  0
 19 69  1  0
 19 70  1  0
 20 27  1  0
 20 21  1  0
 20 71  1  1
 21 22  1  0
 21 72  1  0
 21 73  1  0
 22 23  1  0
 22 74  1  1
 23 24  1  1
 23 27  1  0
 24 25  2  0
 24 26  1  0
 27 28  1  6
 28 29  1  0
 28 75  1  0
 28 76  1  0
 29 30  1  0
 30 39  1  0
 30 31  1  0
 30 77  1  6
 31 32  1  0
 32 33  1  0
 32 35  1  0
 32 78  1  1
 33 34  1  0
 33 79  1  0
 33 80  1  0
 34 81  1  0
 35 36  1  0
 35 37  1  0
 35 82  1  1
 36 83  1  0
 37 38  1  0
 37 39  1  0
 37 84  1  6
 38 85  1  0
 39 40  1  0
 39 86  1  1
 40 87  1  0
M  CHG  1  26  -1
M  END
>  <i_m_ct_stereo_status>  (165) 
1

>  <s_m_source_file>  (165) 
/var/tmp/pbs.5076255.sched01/tmp2obefojl/44ql_32cm2.sdf

>  <i_m_source_file_index>  (165) 
26

>  <i_lp_mmshare_version>  (165) 
48012

>  <i_f3d_flags>  (165) 
2

>  <s_epik_input>  (165) 
Tz1DKFtPSF0pQzEyQyhbQ0hdKFtDSDNdKVtDSDNdKT1bQ0hdW0NASF0oW0NIXT0zKVtDQEhdMVtDSDJdW0NASF00W0NAQF0yKEMzW0NIMl1bQ0gyXVtDQEhdKFtDQF00NVtDSDNdKUMoW0NIM10pKFtDSDNdKVtDSDJdW0NIMl1bQ0gyXTUpW0NIMl1PW0NAQEhdNk9bQ0BASF0oW0NIMl1bT0hdKVtDQEBIXShbT0hdKVtDQEBIXShbT0hdKVtDQEhdNltPSF0=

>  <s_epik_cmdline>  (165) 
J2VwaWtfcHl0aG9uJywgJy1waHQnLCAnMi4wJywgJy1waCcsICc3LjAnLCAnLXRuJywgJzgnLCAnLW1hJywgJzIwMCcsICctaW1hZScsICc8aW5maWxlLm1hZT4nLCAnLW9tYWUnLCAnPG91dGZpbGUubWFlPic=

>  <r_epik_Ionization_Penalty>  (165) 
0.0026776

>  <r_epik_Ionization_Penalty_Charging>  (165) 
0.00267526

>  <r_epik_Ionization_Penalty_Neutral>  (165) 
2.34253e-06

>  <r_epik_State_Penalty>  (165) 
0.00186382

>  <r_epik_Charging_Adjusted_Penalty>  (165) 
0.00453908

>  <i_epik_Tot_Q>  (165) 
-1

>  <i_epik_Tot_abs_Q>  (165) 
1

>  <s_epik_Chemistry_Notes>  (165) 
This compound contains an acetal/aminal-like group ( X-CH(R)-Y where X, Y are N, S, or O) that may be acid/base labile, releasing an aldehyde.

>  <s_lp_Force_Field>  (165) 
OPLS3e

>  <r_lp_Energy>  (165) 
96.1638

>  <b_lp_Chiralities_Consistent>  (165) 
0

>  <s_lp_Variant>  (165) 
40:0-1

>  <s_i_glide_gridfile>  (165) 
pfpi4k_grid

>  <i_i_glide_lignum>  (165) 
26

>  <i_i_glide_rotatable_bonds>  (165) 
10

>  <r_i_docking_score>  (165) 
-3.17479

>  <r_i_glide_ligand_efficiency>  (165) 
-0.0793697

>  <r_i_glide_ligand_efficiency_sa>  (165) 
-0.27144

>  <r_i_glide_ligand_efficiency_ln>  (165) 
-0.677089

>  <r_i_glide_gscore>  (165) 
-3.17479

>  <r_i_glide_lipo>  (165) 
-0.351009

>  <r_i_glide_hbond>  (165) 
0

>  <r_i_glide_metal>  (165) 
-0

>  <r_i_glide_rewards>  (165) 
-0.00303388

>  <r_i_glide_evdw>  (165) 
-16.1482

>  <r_i_glide_ecoul>  (165) 
-14.0634

>  <r_i_glide_erotb>  (165) 
0.130317

>  <r_i_glide_esite>  (165) 
-0.0341391

>  <r_i_glide_emodel>  (165) 
-34.8318

>  <r_i_glide_energy>  (165) 
-30.2116

>  <r_i_glide_einternal>  (165) 
3.88092

>  <r_i_glide_intrahb_reward>  (165) 
-0

>  <i_i_glide_confnum>  (165) 
4

>  <i_i_glide_posenum>  (165) 
7

>  <r_i_glide_eff_state_penalty>  (165) 
0

>  <ligand_id>  (165) 
40

>  <original_smiles>  (165) 
CC(C)C1=CC2C=C3CCC4C(C)(C)CCCC4(C)C4CC2C1(C(=O)O)C34COC1OC(CO)C(O)C(O)C1O

>  <smiles>  (165) 
[H]OC([H])([H])C1([H])OC([H])(OC([H])([H])C23C4=C([H])C5([H])C([H])=C(C([H])(C([H])([H])[H])C([H])([H])[H])C2(C(=O)[O-])C5([H])C([H])([H])C3([H])C2(C([H])([H])[H])C([H])([H])C([H])([H])C([H])([H])C(C([H])([H])[H])(C([H])([H])[H])C2([H])C([H])([H])C4([H])[H])C([H])(O[H])C([H])(O[H])C1([H])O[H]

$$$$
40:0:1
     RDKit          3D

 87 92  0  0  1  0  0  0  0  0999 V2000
    8.2418   -5.9843    0.7282 C   0  0  0  0  0  0  0  0  0  0  0  0
    7.8073   -6.0039    2.2091 C   0  0  0  0  0  0  0  0  0  0  0  0
    9.0502   -6.2600    3.0876 C   0  0  0  0  0  0  0  0  0  0  0  0
    6.6514   -6.9874    2.4535 C   0  0  0  0  0  0  0  0  0  0  0  0
    6.4610   -8.1164    1.7820 C   0  0  0  0  0  0  0  0  0  0  0  0
    5.2558   -8.8362    2.3061 C   0  0  2  0  0  0  0  0  0  0  0  0
    4.1204   -8.1564    1.5658 C   0  0  0  0  0  0  0  0  0  0  0  0
    3.5785   -7.0139    2.0428 C   0  0  0  0  0  0  0  0  0  0  0  0
    2.3966   -6.3806    1.3091 C   0  0  0  0  0  0  0  0  0  0  0  0
    1.1651   -6.0738    2.1772 C   0  0  0  0  0  0  0  0  0  0  0  0
    0.8141   -7.0371    3.3353 C   0  0  1  0  0  0  0  0  0  0  0  0
    0.1845   -8.4063    2.9021 C   0  0  0  0  0  0  0  0  0  0  0  0
   -1.0252   -8.2019    1.9568 C   0  0  0  0  0  0  0  0  0  0  0  0
    1.1441   -9.3769    2.1873 C   0  0  0  0  0  0  0  0  0  0  0  0
   -0.3734   -9.0953    4.1461 C   0  0  0  0  0  0  0  0  0  0  0  0
    0.6816   -9.3335    5.2174 C   0  0  0  0  0  0  0  0  0  0  0  0
    1.2267   -7.9922    5.7144 C   0  0  0  0  0  0  0  0  0  0  0  0
    1.7396   -6.9729    4.6311 C   0  0  2  0  0  0  0  0  0  0  0  0
    1.4313   -5.6059    5.3283 C   0  0  0  0  0  0  0  0  0  0  0  0
    3.3380   -7.0569    4.4790 C   0  0  1  0  0  0  0  0  0  0  0  0
    3.9865   -8.4593    4.5897 C   0  0  0  0  0  0  0  0  0  0  0  0
    5.2951   -8.3903    3.7884 C   0  0  2  0  0  0  0  0  0  0  0  0
    5.6646   -6.8984    3.6407 C   0  0  1  0  0  0  0  0  0  0  0  0
    6.3403   -6.3612    4.9443 C   0  0  0  0  0  0  0  0  0  0  0  0
    6.4541   -5.1472    5.1332 O   0  0  0  0  0  0  0  0  0  0  0  0
    6.8763   -7.2106    5.7181 O   0  0  0  0  0  0  0  0  0  0  0  0
    4.1576   -6.3672    3.3334 C   0  0  1  0  0  0  0  0  0  0  0  0
    4.0072   -4.8161    3.3297 C   0  0  0  0  0  0  0  0  0  0  0  0
    4.7337   -4.2994    2.2152 O   0  0  0  0  0  0  0  0  0  0  0  0
    4.1142   -3.2377    1.5135 C   0  0  2  0  0  0  0  0  0  0  0  0
    4.6408   -3.0710    0.2185 O   0  0  0  0  0  0  0  0  0  0  0  0
    6.0395   -2.7480    0.1868 C   0  0  1  0  0  0  0  0  0  0  0  0
    6.4723   -2.7471   -1.2925 C   0  0  0  0  0  0  0  0  0  0  0  0
    7.8221   -2.3008   -1.4486 O   0  0  0  0  0  0  0  0  0  0  0  0
    6.2095   -1.3818    0.8817 C   0  0  1  0  0  0  0  0  0  0  0  0
    5.6023   -0.3677    0.0858 O   0  0  0  0  0  0  0  0  0  0  0  0
    5.6044   -1.4092    2.2960 C   0  0  1  0  0  0  0  0  0  0  0  0
    5.7515   -0.1489    2.9582 O   0  0  0  0  0  0  0  0  0  0  0  0
    4.1515   -1.9128    2.2913 C   0  0  1  0  0  0  0  0  0  0  0  0
    3.2525   -1.0189    1.6423 O   0  0  0  0  0  0  0  0  0  0  0  0
    7.3931   -5.7914    0.0796 H   0  0  0  0  0  0  0  0  0  0  0  0
    8.7034   -6.9241    0.4124 H   0  0  0  0  0  0  0  0  0  0  0  0
    8.9807   -5.1983    0.5562 H   0  0  0  0  0  0  0  0  0  0  0  0
    7.4145   -5.0248    2.4531 H   0  0  0  0  0  0  0  0  0  0  0  0
    8.8695   -6.1547    4.1538 H   0  0  0  0  0  0  0  0  0  0  0  0
    9.8297   -5.5354    2.8528 H   0  0  0  0  0  0  0  0  0  0  0  0
    9.4721   -7.2525    2.9314 H   0  0  0  0  0  0  0  0  0  0  0  0
    7.0501   -8.5053    0.9583 H   0  0  0  0  0  0  0  0  0  0  0  0
    5.2599   -9.9179    2.1604 H   0  0  0  0  0  0  0  0  0  0  0  0
    3.7759   -8.6321    0.6570 H   0  0  0  0  0  0  0  0  0  0  0  0
    2.7267   -5.4960    0.7704 H   0  0  0  0  0  0  0  0  0  0  0  0
    2.0718   -7.0419    0.5063 H   0  0  0  0  0  0  0  0  0  0  0  0
    1.1937   -5.0596    2.5581 H   0  0  0  0  0  0  0  0  0  0  0  0
    0.3214   -6.0106    1.5044 H   0  0  0  0  0  0  0  0  0  0  0  0
   -0.0932   -6.5581    3.7006 H   0  0  0  0  0  0  0  0  0  0  0  0
   -1.5651   -9.1373    1.7956 H   0  0  0  0  0  0  0  0  0  0  0  0
   -0.7214   -7.8552    0.9703 H   0  0  0  0  0  0  0  0  0  0  0  0
   -1.7430   -7.4889    2.3633 H   0  0  0  0  0  0  0  0  0  0  0  0
    0.6911  -10.3637    2.0698 H   0  0  0  0  0  0  0  0  0  0  0  0
    2.0658   -9.5306    2.7272 H   0  0  0  0  0  0  0  0  0  0  0  0
    1.4181   -9.0180    1.2008 H   0  0  0  0  0  0  0  0  0  0  0  0
   -1.1802   -8.5056    4.5821 H   0  0  0  0  0  0  0  0  0  0  0  0
   -0.8067  -10.0347    3.8193 H   0  0  0  0  0  0  0  0  0  0  0  0
    0.2268   -9.8575    6.0535 H   0  0  0  0  0  0  0  0  0  0  0  0
    1.4582  -10.0003    4.8639 H   0  0  0  0  0  0  0  0  0  0  0  0
    0.4204   -7.5440    6.3014 H   0  0  0  0  0  0  0  0  0  0  0  0
    2.0150   -8.1805    6.4387 H   0  0  0  0  0  0  0  0  0  0  0  0
    1.9686   -5.5085    6.2750 H   0  0  0  0  0  0  0  0  0  0  0  0
    0.3704   -5.5103    5.5643 H   0  0  0  0  0  0  0  0  0  0  0  0
    1.6529   -4.7236    4.7398 H   0  0  0  0  0  0  0  0  0  0  0  0
    3.6954   -6.5680    5.3797 H   0  0  0  0  0  0  0  0  0  0  0  0
    4.2215   -8.6755    5.6342 H   0  0  0  0  0  0  0  0  0  0  0  0
    3.3944   -9.2934    4.2383 H   0  0  0  0  0  0  0  0  0  0  0  0
    6.0742   -8.9728    4.2830 H   0  0  0  0  0  0  0  0  0  0  0  0
    2.9769   -4.5282    3.2154 H   0  0  0  0  0  0  0  0  0  0  0  0
    4.2921   -4.2863    4.2388 H   0  0  0  0  0  0  0  0  0  0  0  0
    3.0697   -3.5182    1.3325 H   0  0  0  0  0  0  0  0  0  0  0  0
    6.5873   -3.5170    0.7297 H   0  0  0  0  0  0  0  0  0  0  0  0
    6.3682   -3.7377   -1.7342 H   0  0  0  0  0  0  0  0  0  0  0  0
    5.8241   -2.0915   -1.8687 H   0  0  0  0  0  0  0  0  0  0  0  0
    8.4207   -3.0199   -1.2322 H   0  0  0  0  0  0  0  0  0  0  0  0
    7.2755   -1.1676    0.9685 H   0  0  0  0  0  0  0  0  0  0  0  0
    5.7816    0.4927    0.4841 H   0  0  0  0  0  0  0  0  0  0  0  0
    6.1703   -2.1392    2.8698 H   0  0  0  0  0  0  0  0  0  0  0  0
    5.3630   -0.2045    3.8364 H   0  0  0  0  0  0  0  0  0  0  0  0
    3.8051   -2.0651    3.3139 H   0  0  0  0  0  0  0  0  0  0  0  0
    3.5783   -0.8997    0.7345 H   0  0  0  0  0  0  0  0  0  0  0  0
  1  2  1  0
  1 41  1  0
  1 42  1  0
  1 43  1  0
  2  3  1  0
  2  4  1  0
  2 44  1  0
  3 45  1  0
  3 46  1  0
  3 47  1  0
  4 23  1  0
  4  5  2  0
  5  6  1  0
  5 48  1  0
  6 22  1  0
  6  7  1  0
  6 49  1  1
  7  8  2  0
  7 50  1  0
  8 27  1  0
  8  9  1  0
  9 10  1  0
  9 51  1  0
  9 52  1  0
 10 11  1  0
 10 53  1  0
 10 54  1  0
 11 18  1  0
 11 12  1  0
 11 55  1  1
 12 13  1  0
 12 14  1  0
 12 15  1  0
 13 56  1  0
 13 57  1  0
 13 58  1  0
 14 59  1  0
 14 60  1  0
 14 61  1  0
 15 16  1  0
 15 62  1  0
 15 63  1  0
 16 17  1  0
 16 64  1  0
 16 65  1  0
 17 18  1  0
 17 66  1  0
 17 67  1  0
 18 19  1  1
 18 20  1  0
 19 68  1  0
 19 69  1  0
 19 70  1  0
 20 27  1  0
 20 21  1  0
 20 71  1  1
 21 22  1  0
 21 72  1  0
 21 73  1  0
 22 23  1  0
 22 74  1  1
 23 24  1  1
 23 27  1  0
 24 25  2  0
 24 26  1  0
 27 28  1  6
 28 29  1  0
 28 75  1  0
 28 76  1  0
 29 30  1  0
 30 39  1  0
 30 31  1  0
 30 77  1  6
 31 32  1  0
 32 33  1  0
 32 35  1  0
 32 78  1  1
 33 34  1  0
 33 79  1  0
 33 80  1  0
 34 81  1  0
 35 36  1  0
 35 37  1  0
 35 82  1  1
 36 83  1  0
 37 38  1  0
 37 39  1  0
 37 84  1  1
 38 85  1  0
 39 40  1  0
 39 86  1  1
 40 87  1  0
M  CHG  1  26  -1
M  END
>  <i_m_ct_stereo_status>  (166) 
1

>  <s_m_source_file>  (166) 
/var/tmp/pbs.5076255.sched01/tmp2obefojl/44ql_32cm2.sdf

>  <i_m_source_file_index>  (166) 
26

>  <i_lp_mmshare_version>  (166) 
48012

>  <i_f3d_flags>  (166) 
2

>  <s_epik_input>  (166) 
Tz1DKFtPSF0pQzEyQyhbQ0hdKFtDSDNdKVtDSDNdKT1bQ0hdW0NASF0oW0NIXT0zKVtDQEhdMVtDSDJdW0NASF00W0NAQF0yKEMzW0NIMl1bQ0gyXVtDQEhdKFtDQF00NVtDSDNdKUMoW0NIM10pKFtDSDNdKVtDSDJdW0NIMl1bQ0gyXTUpW0NIMl1PW0NAQEhdNk9bQ0BASF0oW0NIMl1bT0hdKVtDQEBIXShbT0hdKVtDQEBIXShbT0hdKVtDQEhdNltPSF0=

>  <s_epik_cmdline>  (166) 
J2VwaWtfcHl0aG9uJywgJy1waHQnLCAnMi4wJywgJy1waCcsICc3LjAnLCAnLXRuJywgJzgnLCAnLW1hJywgJzIwMCcsICctaW1hZScsICc8aW5maWxlLm1hZT4nLCAnLW9tYWUnLCAnPG91dGZpbGUubWFlPic=

>  <r_epik_Ionization_Penalty>  (166) 
0.0026776

>  <r_epik_Ionization_Penalty_Charging>  (166) 
0.00267526

>  <r_epik_Ionization_Penalty_Neutral>  (166) 
2.34253e-06

>  <r_epik_State_Penalty>  (166) 
0.00186382

>  <r_epik_Charging_Adjusted_Penalty>  (166) 
0.00453908

>  <i_epik_Tot_Q>  (166) 
-1

>  <i_epik_Tot_abs_Q>  (166) 
1

>  <s_epik_Chemistry_Notes>  (166) 
This compound contains an acetal/aminal-like group ( X-CH(R)-Y where X, Y are N, S, or O) that may be acid/base labile, releasing an aldehyde.

>  <s_lp_Force_Field>  (166) 
OPLS3e

>  <r_lp_Energy>  (166) 
96.1638

>  <b_lp_Chiralities_Consistent>  (166) 
0

>  <s_lp_Variant>  (166) 
40:0-1

>  <s_i_glide_gridfile>  (166) 
pfpi4k_grid

>  <i_i_glide_lignum>  (166) 
26

>  <i_i_glide_rotatable_bonds>  (166) 
10

>  <r_i_docking_score>  (166) 
-2.63181

>  <r_i_glide_ligand_efficiency>  (166) 
-0.0657952

>  <r_i_glide_ligand_efficiency_sa>  (166) 
-0.225016

>  <r_i_glide_ligand_efficiency_ln>  (166) 
-0.561287

>  <r_i_glide_gscore>  (166) 
-2.63181

>  <r_i_glide_lipo>  (166) 
-0.528239

>  <r_i_glide_hbond>  (166) 
0

>  <r_i_glide_metal>  (166) 
-0

>  <r_i_glide_rewards>  (166) 
-0.509435

>  <r_i_glide_evdw>  (166) 
-26.4578

>  <r_i_glide_ecoul>  (166) 
-3.04938

>  <r_i_glide_erotb>  (166) 
0.186167

>  <r_i_glide_esite>  (166) 
0

>  <r_i_glide_emodel>  (166) 
-36.8891

>  <r_i_glide_energy>  (166) 
-29.5072

>  <r_i_glide_einternal>  (166) 
7.47058

>  <r_i_glide_intrahb_reward>  (166) 
-0.5

>  <i_i_glide_confnum>  (166) 
1

>  <i_i_glide_posenum>  (166) 
12

>  <r_i_glide_eff_state_penalty>  (166) 
0

>  <ligand_id>  (166) 
40

>  <original_smiles>  (166) 
CC(C)C1=CC2C=C3CCC4C(C)(C)CCCC4(C)C4CC2C1(C(=O)O)C34COC1OC(CO)C(O)C(O)C1O

>  <smiles>  (166) 
[H]OC([H])([H])C1([H])OC([H])(OC([H])([H])C23C4=C([H])C5([H])C([H])=C(C([H])(C([H])([H])[H])C([H])([H])[H])C2(C(=O)[O-])C5([H])C([H])([H])C3([H])C2(C([H])([H])[H])C([H])([H])C([H])([H])C([H])([H])C(C([H])([H])[H])(C([H])([H])[H])C2([H])C([H])([H])C4([H])[H])C([H])(O[H])C([H])(O[H])C1([H])O[H]

$$$$
40:0:2
     RDKit          3D

 87 92  0  0  1  0  0  0  0  0999 V2000
    8.4426   -6.1391    0.7125 C   0  0  0  0  0  0  0  0  0  0  0  0
    8.0602   -5.9378    2.1995 C   0  0  0  0  0  0  0  0  0  0  0  0
    9.3356   -6.1393    3.0557 C   0  0  0  0  0  0  0  0  0  0  0  0
    6.8707   -6.8045    2.6123 C   0  0  0  0  0  0  0  0  0  0  0  0
    6.6354   -8.0466    2.1452 C   0  0  0  0  0  0  0  0  0  0  0  0
    5.3842   -8.6000    2.7408 C   0  0  2  0  0  0  0  0  0  0  0  0
    4.2878   -8.0486    1.8597 C   0  0  0  0  0  0  0  0  0  0  0  0
    3.7783   -6.8161    2.0468 C   0  0  0  0  0  0  0  0  0  0  0  0
    2.6324   -6.3235    1.2028 C   0  0  0  0  0  0  0  0  0  0  0  0
    1.3930   -5.8232    1.9346 C   0  0  0  0  0  0  0  0  0  0  0  0
    0.9602   -6.5170    3.2459 C   0  0  1  0  0  0  0  0  0  0  0  0
    0.2980   -7.9349    3.0615 C   0  0  0  0  0  0  0  0  0  0  0  0
   -0.8700   -7.8723    2.0482 C   0  0  0  0  0  0  0  0  0  0  0  0
    1.2473   -9.0483    2.5744 C   0  0  0  0  0  0  0  0  0  0  0  0
   -0.3301   -8.3415    4.4057 C   0  0  0  0  0  0  0  0  0  0  0  0
    0.6969   -8.3766    5.5324 C   0  0  0  0  0  0  0  0  0  0  0  0
    1.2808   -6.9774    5.7723 C   0  0  0  0  0  0  0  0  0  0  0  0
    1.8499   -6.2142    4.5316 C   0  0  2  0  0  0  0  0  0  0  0  0
    1.5976   -4.7188    4.9105 C   0  0  0  0  0  0  0  0  0  0  0  0
    3.4422   -6.3895    4.4588 C   0  0  1  0  0  0  0  0  0  0  0  0
    4.0651   -7.7531    4.8620 C   0  0  0  0  0  0  0  0  0  0  0  0
    5.4034   -7.8642    4.1125 C   0  0  2  0  0  0  0  0  0  0  0  0
    5.8107   -6.4388    3.6974 C   0  0  1  0  0  0  0  0  0  0  0  0
    6.4301   -5.7137    4.9280 C   0  0  0  0  0  0  0  0  0  0  0  0
    6.0137   -4.6001    5.2879 O   0  0  0  0  0  0  0  0  0  0  0  0
    7.3491   -6.3065    5.5611 O   0  0  0  0  0  0  0  0  0  0  0  0
    4.3302   -5.9484    3.2297 C   0  0  1  0  0  0  0  0  0  0  0  0
    4.2948   -4.4230    2.8850 C   0  0  0  0  0  0  0  0  0  0  0  0
    5.2718   -4.1186    1.8879 O   0  0  0  0  0  0  0  0  0  0  0  0
    5.2517   -2.7848    1.4520 C   0  0  2  0  0  0  0  0  0  0  0  0
    4.1260   -2.4875    0.6347 O   0  0  0  0  0  0  0  0  0  0  0  0
    4.0626   -3.2096   -0.5986 C   0  0  1  0  0  0  0  0  0  0  0  0
    2.7173   -2.8969   -1.2822 C   0  0  0  0  0  0  0  0  0  0  0  0
    2.6365   -3.4539   -2.5938 O   0  0  0  0  0  0  0  0  0  0  0  0
    5.2791   -2.8635   -1.4599 C   0  0  1  0  0  0  0  0  0  0  0  0
    5.1957   -1.5239   -1.9470 O   0  0  0  0  0  0  0  0  0  0  0  0
    6.5650   -3.1267   -0.6599 C   0  0  1  0  0  0  0  0  0  0  0  0
    7.7227   -2.8205   -1.4346 O   0  0  0  0  0  0  0  0  0  0  0  0
    6.5393   -2.4296    0.7019 C   0  0  1  0  0  0  0  0  0  0  0  0
    6.5528   -1.0173    0.5560 O   0  0  0  0  0  0  0  0  0  0  0  0
    7.5714   -6.0260    0.0751 H   0  0  0  0  0  0  0  0  0  0  0  0
    8.8517   -7.1313    0.5118 H   0  0  0  0  0  0  0  0  0  0  0  0
    9.1969   -5.4093    0.4149 H   0  0  0  0  0  0  0  0  0  0  0  0
    7.7232   -4.9090    2.3078 H   0  0  0  0  0  0  0  0  0  0  0  0
    9.2214   -5.8517    4.0966 H   0  0  0  0  0  0  0  0  0  0  0  0
   10.1363   -5.5145    2.6664 H   0  0  0  0  0  0  0  0  0  0  0  0
    9.6937   -7.1681    3.0292 H   0  0  0  0  0  0  0  0  0  0  0  0
    7.2313   -8.6070    1.4381 H   0  0  0  0  0  0  0  0  0  0  0  0
    5.3442   -9.6917    2.8275 H   0  0  0  0  0  0  0  0  0  0  0  0
    3.9510   -8.6826    1.0412 H   0  0  0  0  0  0  0  0  0  0  0  0
    2.9483   -5.5304    0.5586 H   0  0  0  0  0  0  0  0  0  0  0  0
    2.3074   -7.1005    0.5220 H   0  0  0  0  0  0  0  0  0  0  0  0
    1.4423   -4.7555    2.1113 H   0  0  0  0  0  0  0  0  0  0  0  0
    0.5795   -5.8913    1.2288 H   0  0  0  0  0  0  0  0  0  0  0  0
    0.0619   -5.9383    3.4834 H   0  0  0  0  0  0  0  0  0  0  0  0
   -1.4424   -8.8005    2.0500 H   0  0  0  0  0  0  0  0  0  0  0  0
   -0.5207   -7.7397    1.0238 H   0  0  0  0  0  0  0  0  0  0  0  0
   -1.5640   -7.0612    2.2755 H   0  0  0  0  0  0  0  0  0  0  0  0
    0.7714  -10.0261    2.6480 H   0  0  0  0  0  0  0  0  0  0  0  0
    2.1529   -9.1008    3.1616 H   0  0  0  0  0  0  0  0  0  0  0  0
    1.5391   -8.9153    1.5344 H   0  0  0  0  0  0  0  0  0  0  0  0
   -1.1075   -7.6271    4.6803 H   0  0  0  0  0  0  0  0  0  0  0  0
   -0.8247   -9.3097    4.3239 H   0  0  0  0  0  0  0  0  0  0  0  0
    0.2028   -8.7067    6.4468 H   0  0  0  0  0  0  0  0  0  0  0  0
    1.4594   -9.1291    5.3426 H   0  0  0  0  0  0  0  0  0  0  0  0
    0.4759   -6.3982    6.2208 H   0  0  0  0  0  0  0  0  0  0  0  0
    2.0387   -7.0382    6.5490 H   0  0  0  0  0  0  0  0  0  0  0  0
    2.0987   -4.4484    5.8420 H   0  0  0  0  0  0  0  0  0  0  0  0
    0.5368   -4.5321    5.0775 H   0  0  0  0  0  0  0  0  0  0  0  0
    1.9114   -4.0044    4.1534 H   0  0  0  0  0  0  0  0  0  0  0  0
    3.7830   -5.7354    5.2606 H   0  0  0  0  0  0  0  0  0  0  0  0
    4.2493   -7.7499    5.9367 H   0  0  0  0  0  0  0  0  0  0  0  0
    3.4443   -8.6136    4.6627 H   0  0  0  0  0  0  0  0  0  0  0  0
    6.1408   -8.3432    4.7587 H   0  0  0  0  0  0  0  0  0  0  0  0
    3.3438   -4.1046    2.4948 H   0  0  0  0  0  0  0  0  0  0  0  0
    4.4498   -3.7790    3.7486 H   0  0  0  0  0  0  0  0  0  0  0  0
    5.1453   -2.1620    2.3485 H   0  0  0  0  0  0  0  0  0  0  0  0
    4.1502   -4.2672   -0.3972 H   0  0  0  0  0  0  0  0  0  0  0  0
    1.8661   -3.2540   -0.7015 H   0  0  0  0  0  0  0  0  0  0  0  0
    2.6145   -1.8159   -1.3636 H   0  0  0  0  0  0  0  0  0  0  0  0
    2.6895   -4.4183   -2.5502 H   0  0  0  0  0  0  0  0  0  0  0  0
    5.2785   -3.5392   -2.3046 H   0  0  0  0  0  0  0  0  0  0  0  0
    4.3241   -1.4288   -2.3711 H   0  0  0  0  0  0  0  0  0  0  0  0
    6.5635   -4.1948   -0.4584 H   0  0  0  0  0  0  0  0  0  0  0  0
    8.5271   -3.0731   -0.9444 H   0  0  0  0  0  0  0  0  0  0  0  0
    7.4037   -2.7418    1.2939 H   0  0  0  0  0  0  0  0  0  0  0  0
    5.7733   -0.7856    0.0289 H   0  0  0  0  0  0  0  0  0  0  0  0
  1  2  1  0
  1 41  1  0
  1 42  1  0
  1 43  1  0
  2  3  1  0
  2  4  1  0
  2 44  1  0
  3 45  1  0
  3 46  1  0
  3 47  1  0
  4 23  1  0
  4  5  2  0
  5  6  1  0
  5 48  1  0
  6 22  1  0
  6  7  1  0
  6 49  1  1
  7  8  2  0
  7 50  1  0
  8 27  1  0
  8  9  1  0
  9 10  1  0
  9 51  1  0
  9 52  1  0
 10 11  1  0
 10 53  1  0
 10 54  1  0
 11 18  1  0
 11 12  1  0
 11 55  1  1
 12 13  1  0
 12 14  1  0
 12 15  1  0
 13 56  1  0
 13 57  1  0
 13 58  1  0
 14 59  1  0
 14 60  1  0
 14 61  1  0
 15 16  1  0
 15 62  1  0
 15 63  1  0
 16 17  1  0
 16 64  1  0
 16 65  1  0
 17 18  1  0
 17 66  1  0
 17 67  1  0
 18 19  1  1
 18 20  1  0
 19 68  1  0
 19 69  1  0
 19 70  1  0
 20 27  1  0
 20 21  1  0
 20 71  1  1
 21 22  1  0
 21 72  1  0
 21 73  1  0
 22 23  1  0
 22 74  1  1
 23 24  1  1
 23 27  1  0
 24 25  2  0
 24 26  1  0
 27 28  1  6
 28 29  1  0
 28 75  1  0
 28 76  1  0
 29 30  1  0
 30 39  1  0
 30 31  1  0
 30 77  1  1
 31 32  1  0
 32 33  1  0
 32 35  1  0
 32 78  1  1
 33 34  1  0
 33 79  1  0
 33 80  1  0
 34 81  1  0
 35 36  1  0
 35 37  1  0
 35 82  1  6
 36 83  1  0
 37 38  1  0
 37 39  1  0
 37 84  1  1
 38 85  1  0
 39 40  1  0
 39 86  1  1
 40 87  1  0
M  CHG  1  26  -1
M  END
>  <i_m_ct_stereo_status>  (167) 
1

>  <s_m_source_file>  (167) 
/var/tmp/pbs.5076255.sched01/tmp2obefojl/44ql_32cm2.sdf

>  <i_m_source_file_index>  (167) 
26

>  <i_lp_mmshare_version>  (167) 
48012

>  <i_f3d_flags>  (167) 
2

>  <s_epik_input>  (167) 
Tz1DKFtPSF0pQzEyQyhbQ0hdKFtDSDNdKVtDSDNdKT1bQ0hdW0NASF0oW0NIXT0zKVtDQEhdMVtDSDJdW0NASF00W0NAQF0yKEMzW0NIMl1bQ0gyXVtDQEhdKFtDQF00NVtDSDNdKUMoW0NIM10pKFtDSDNdKVtDSDJdW0NIMl1bQ0gyXTUpW0NIMl1PW0NAQEhdNk9bQ0BASF0oW0NIMl1bT0hdKVtDQEBIXShbT0hdKVtDQEBIXShbT0hdKVtDQEhdNltPSF0=

>  <s_epik_cmdline>  (167) 
J2VwaWtfcHl0aG9uJywgJy1waHQnLCAnMi4wJywgJy1waCcsICc3LjAnLCAnLXRuJywgJzgnLCAnLW1hJywgJzIwMCcsICctaW1hZScsICc8aW5maWxlLm1hZT4nLCAnLW9tYWUnLCAnPG91dGZpbGUubWFlPic=

>  <r_epik_Ionization_Penalty>  (167) 
0.0026776

>  <r_epik_Ionization_Penalty_Charging>  (167) 
0.00267526

>  <r_epik_Ionization_Penalty_Neutral>  (167) 
2.34253e-06

>  <r_epik_State_Penalty>  (167) 
0.00186382

>  <r_epik_Charging_Adjusted_Penalty>  (167) 
0.00453908

>  <i_epik_Tot_Q>  (167) 
-1

>  <i_epik_Tot_abs_Q>  (167) 
1

>  <s_epik_Chemistry_Notes>  (167) 
This compound contains an acetal/aminal-like group ( X-CH(R)-Y where X, Y are N, S, or O) that may be acid/base labile, releasing an aldehyde.

>  <s_lp_Force_Field>  (167) 
OPLS3e

>  <r_lp_Energy>  (167) 
96.1638

>  <b_lp_Chiralities_Consistent>  (167) 
0

>  <s_lp_Variant>  (167) 
40:0-1

>  <s_i_glide_gridfile>  (167) 
pfpi4k_grid

>  <i_i_glide_lignum>  (167) 
26

>  <i_i_glide_rotatable_bonds>  (167) 
10

>  <r_i_docking_score>  (167) 
-2.57463

>  <r_i_glide_ligand_efficiency>  (167) 
-0.0643657

>  <r_i_glide_ligand_efficiency_sa>  (167) 
-0.220127

>  <r_i_glide_ligand_efficiency_ln>  (167) 
-0.549092

>  <r_i_glide_gscore>  (167) 
-2.57463

>  <r_i_glide_lipo>  (167) 
-0.33432

>  <r_i_glide_hbond>  (167) 
0

>  <r_i_glide_metal>  (167) 
-0

>  <r_i_glide_rewards>  (167) 
-0.0700573

>  <r_i_glide_evdw>  (167) 
-30.3575

>  <r_i_glide_ecoul>  (167) 
-5.5903

>  <r_i_glide_erotb>  (167) 
0.186167

>  <r_i_glide_esite>  (167) 
0

>  <r_i_glide_emodel>  (167) 
-40.2912

>  <r_i_glide_energy>  (167) 
-35.9477

>  <r_i_glide_einternal>  (167) 
3.1276

>  <r_i_glide_intrahb_reward>  (167) 
-0

>  <i_i_glide_confnum>  (167) 
1

>  <i_i_glide_posenum>  (167) 
1

>  <r_i_glide_eff_state_penalty>  (167) 
0

>  <ligand_id>  (167) 
40

>  <original_smiles>  (167) 
CC(C)C1=CC2C=C3CCC4C(C)(C)CCCC4(C)C4CC2C1(C(=O)O)C34COC1OC(CO)C(O)C(O)C1O

>  <smiles>  (167) 
[H]OC([H])([H])C1([H])OC([H])(OC([H])([H])C23C4=C([H])C5([H])C([H])=C(C([H])(C([H])([H])[H])C([H])([H])[H])C2(C(=O)[O-])C5([H])C([H])([H])C3([H])C2(C([H])([H])[H])C([H])([H])C([H])([H])C([H])([H])C(C([H])([H])[H])(C([H])([H])[H])C2([H])C([H])([H])C4([H])[H])C([H])(O[H])C([H])(O[H])C1([H])O[H]

$$$$
41:0:0
     RDKit          3D

 63 70  0  0  1  0  0  0  0  0999 V2000
    2.2241   -3.0675   -2.1755 C   0  0  0  0  0  0  0  0  0  0  0  0
    3.0155   -3.0685   -0.8430 C   0  0  2  0  0  0  0  0  0  0  0  0
    4.5103   -2.7539   -0.9655 C   0  0  2  0  0  0  0  0  0  0  0  0
    5.0003   -4.0240   -1.6441 C   0  0  0  0  0  0  0  0  0  0  0  0
    4.4884   -5.0282   -0.6014 C   0  0  1  0  0  0  0  0  0  0  0  0
    5.6087   -5.0874    0.4668 C   0  0  1  0  0  0  0  0  0  0  0  0
    6.1100   -3.7517    0.6659 O   0  0  0  0  0  0  0  0  0  0  0  0
    5.1752   -2.6695    0.4754 C   0  0  1  0  0  0  0  0  0  0  0  0
    5.9574   -1.3682    0.5955 C   0  0  0  0  0  0  0  0  0  0  0  0
    7.1763   -1.3291    0.4309 O   0  0  0  0  0  0  0  0  0  0  0  0
    5.1442   -0.1295    0.8955 C   0  0  0  0  0  0  0  0  0  0  0  0
    4.3565   -0.3172    2.2013 C   0  0  0  0  0  0  0  0  0  0  0  0
    3.4355   -1.5437    2.1072 C   0  0  0  0  0  0  0  0  0  0  0  0
    4.1840   -2.8311    1.6747 C   0  0  1  0  0  0  0  0  0  0  0  0
    3.2424   -4.0813    1.4863 C   0  0  1  0  0  0  0  0  0  0  0  0
    3.1417   -4.3914   -0.0474 C   0  0  1  0  0  0  0  0  0  0  0  0
    1.9890   -5.1594   -0.3135 O   0  0  0  0  0  0  0  0  0  0  0  0
    3.7771   -5.3103    2.2847 C   0  0  1  0  0  0  0  0  0  0  0  0
    3.6088   -5.0867    3.8107 C   0  0  0  0  0  0  0  0  0  0  0  0
    3.7759   -4.0397    4.4384 O   0  0  0  0  0  0  0  0  0  0  0  0
    3.1255   -6.3883    4.4296 C   0  0  1  0  0  0  0  0  0  0  0  0
    4.2093   -6.9630    5.7754 Cl  0  0  0  0  0  0  0  0  0  0  0  0
    1.6471   -6.3310    4.8522 C   0  0  0  0  0  0  0  0  0  0  0  0
    1.0415   -5.8371    5.7902 O   0  0  0  0  0  0  0  0  0  0  0  0
    1.2093   -7.2238    3.6673 C   0  0  0  0  0  0  0  0  0  0  0  0
    0.5098   -8.5080    4.1310 C   0  0  0  0  0  0  0  0  0  0  0  0
    0.2615   -6.4530    2.7395 C   0  0  0  0  0  0  0  0  0  0  0  0
    2.7079   -7.3393    3.3092 C   0  0  1  0  0  0  0  0  0  0  0  0
    3.2574   -6.7501    2.0301 C   0  0  2  0  0  0  0  0  0  0  0  0
    4.6322   -7.1932    1.5982 C   0  0  0  0  0  0  0  0  0  0  0  0
    5.1805   -5.7671    1.7899 C   0  0  1  0  0  0  0  0  0  0  0  0
    6.3646   -5.6864    2.7497 C   0  0  0  0  0  0  0  0  0  0  0  0
    2.4680   -3.8735   -2.8616 H   0  0  0  0  0  0  0  0  0  0  0  0
    2.3883   -2.1443   -2.7219 H   0  0  0  0  0  0  0  0  0  0  0  0
    1.1541   -3.1354   -1.9788 H   0  0  0  0  0  0  0  0  0  0  0  0
    2.5145   -2.3070   -0.2605 H   0  0  0  0  0  0  0  0  0  0  0  0
    4.6858   -1.8723   -1.5772 H   0  0  0  0  0  0  0  0  0  0  0  0
    4.5646   -4.1875   -2.6268 H   0  0  0  0  0  0  0  0  0  0  0  0
    6.0836   -4.0255   -1.7871 H   0  0  0  0  0  0  0  0  0  0  0  0
    4.3792   -6.0198   -1.0253 H   0  0  0  0  0  0  0  0  0  0  0  0
    6.4453   -5.6560    0.0632 H   0  0  0  0  0  0  0  0  0  0  0  0
    5.8257    0.7165    0.9433 H   0  0  0  0  0  0  0  0  0  0  0  0
    4.4572    0.0853    0.0741 H   0  0  0  0  0  0  0  0  0  0  0  0
    5.0377   -0.4310    3.0478 H   0  0  0  0  0  0  0  0  0  0  0  0
    3.7599    0.5682    2.4125 H   0  0  0  0  0  0  0  0  0  0  0  0
    2.9960   -1.7203    3.0838 H   0  0  0  0  0  0  0  0  0  0  0  0
    2.5922   -1.2926    1.4631 H   0  0  0  0  0  0  0  0  0  0  0  0
    4.8582   -3.0243    2.5067 H   0  0  0  0  0  0  0  0  0  0  0  0
    2.2472   -3.7958    1.8430 H   0  0  0  0  0  0  0  0  0  0  0  0
    2.0807   -5.4114   -1.2171 H   0  0  0  0  0  0  0  0  0  0  0  0
    0.4419   -9.2157    3.3076 H   0  0  0  0  0  0  0  0  0  0  0  0
   -0.5115   -8.3409    4.4901 H   0  0  0  0  0  0  0  0  0  0  0  0
    1.0592   -9.0046    4.9334 H   0  0  0  0  0  0  0  0  0  0  0  0
    0.1381   -6.9800    1.7984 H   0  0  0  0  0  0  0  0  0  0  0  0
    0.6371   -5.4543    2.5187 H   0  0  0  0  0  0  0  0  0  0  0  0
   -0.7292   -6.3463    3.1906 H   0  0  0  0  0  0  0  0  0  0  0  0
    3.0541   -8.3599    3.5161 H   0  0  0  0  0  0  0  0  0  0  0  0
    2.5759   -6.8769    1.2056 H   0  0  0  0  0  0  0  0  0  0  0  0
    5.0713   -7.9227    2.2823 H   0  0  0  0  0  0  0  0  0  0  0  0
    4.6454   -7.5753    0.5782 H   0  0  0  0  0  0  0  0  0  0  0  0
    6.1828   -6.2523    3.6623 H   0  0  0  0  0  0  0  0  0  0  0  0
    6.5591   -4.6562    3.0305 H   0  0  0  0  0  0  0  0  0  0  0  0
    7.2763   -6.0888    2.3002 H   0  0  0  0  0  0  0  0  0  0  0  0
  1  2  1  0
  1 33  1  0
  1 34  1  0
  1 35  1  0
  2 16  1  0
  2  3  1  0
  2 36  1  1
  3  8  1  0
  3  4  1  0
  3 37  1  6
  4  5  1  0
  4 38  1  0
  4 39  1  0
  5 16  1  0
  5  6  1  0
  5 40  1  6
  6 31  1  0
  6  7  1  0
  6 41  1  6
  8  7  1  6
  8 14  1  0
  8  9  1  0
  9 10  2  0
  9 11  1  0
 11 12  1  0
 11 42  1  0
 11 43  1  0
 12 13  1  0
 12 44  1  0
 12 45  1  0
 13 14  1  0
 13 46  1  0
 13 47  1  0
 14 15  1  0
 14 48  1  1
 15 16  1  0
 15 18  1  0
 15 49  1  1
 16 17  1  1
 17 50  1  0
 18 29  1  0
 18 31  1  0
 18 19  1  1
 19 20  2  0
 19 21  1  0
 21 28  1  0
 21 22  1  1
 21 23  1  0
 23 24  2  0
 23 25  1  0
 25 26  1  0
 25 27  1  0
 25 28  1  0
 26 51  1  0
 26 52  1  0
 26 53  1  0
 27 54  1  0
 27 55  1  0
 27 56  1  0
 28 29  1  0
 28 57  1  1
 29 30  1  0
 29 58  1  6
 30 31  1  0
 30 59  1  0
 30 60  1  0
 31 32  1  1
 32 61  1  0
 32 62  1  0
 32 63  1  0
M  END
>  <i_m_ct_stereo_status>  (168) 
1

>  <s_m_source_file>  (168) 
/var/tmp/pbs.5076255.sched01/tmp2obefojl/44ql_32cm2.sdf

>  <i_m_source_file_index>  (168) 
27

>  <i_lp_mmshare_version>  (168) 
48012

>  <i_f3d_flags>  (168) 
0

>  <s_epik_input>  (168) 
W0NAXTEyM1tDQEBIXTRbQ0BASF0oW0NIM10pW0NAQF01KFtPSF0pW0NAQEhdKFtDSDJdNClbQ0BASF0oTzEpW0NAQF02KFtDSDNdKVtDQEBdNyhbQ0BIXTVbQ0BASF0zW0NIMl1bQ0gyXVtDSDJdQzI9TylbQ0BASF0oW0NIMl02KVtDQEhdOFtDQEBdKENsKShDNz1PKUMoPU8pQzgoW0NIM10pW0NIM10=

>  <s_epik_cmdline>  (168) 
J2VwaWtfcHl0aG9uJywgJy1waHQnLCAnMi4wJywgJy1waCcsICc3LjAnLCAnLXRuJywgJzgnLCAnLW1hJywgJzIwMCcsICctaW1hZScsICc8aW5maWxlLm1hZT4nLCAnLW9tYWUnLCAnPG91dGZpbGUubWFlPic=

>  <r_lp_tautomer_probability>  (168) 
1

>  <r_epik_Ionization_Penalty>  (168) 
6.48521e-08

>  <r_epik_Ionization_Penalty_Charging>  (168) 
0

>  <r_epik_Ionization_Penalty_Neutral>  (168) 
6.48521e-08

>  <r_epik_State_Penalty>  (168) 
-0

>  <r_epik_Charging_Adjusted_Penalty>  (168) 
0

>  <i_epik_Tot_Q>  (168) 
0

>  <i_epik_Tot_abs_Q>  (168) 
0

>  <s_lp_Force_Field>  (168) 
OPLS3e

>  <r_lp_Energy>  (168) 
92.7593

>  <b_lp_Chiralities_Consistent>  (168) 
1

>  <s_lp_Variant>  (168) 
41:0-1

>  <s_i_glide_gridfile>  (168) 
pfpi4k_grid

>  <i_i_glide_lignum>  (168) 
27

>  <i_i_glide_rotatable_bonds>  (168) 
1

>  <r_i_docking_score>  (168) 
-3.49073

>  <r_i_glide_ligand_efficiency>  (168) 
-0.109085

>  <r_i_glide_ligand_efficiency_sa>  (168) 
-0.346325

>  <r_i_glide_ligand_efficiency_ln>  (168) 
-0.78167

>  <r_i_glide_gscore>  (168) 
-3.49073

>  <r_i_glide_lipo>  (168) 
-0.58843

>  <r_i_glide_hbond>  (168) 
-0.364293

>  <r_i_glide_metal>  (168) 
-0

>  <r_i_glide_rewards>  (168) 
-0.443314

>  <r_i_glide_evdw>  (168) 
-21.4661

>  <r_i_glide_ecoul>  (168) 
-6.7966

>  <r_i_glide_erotb>  (168) 
0

>  <r_i_glide_esite>  (168) 
-0.00190013

>  <r_i_glide_emodel>  (168) 
-34.8427

>  <r_i_glide_energy>  (168) 
-28.2627

>  <r_i_glide_einternal>  (168) 
0.108915

>  <r_i_glide_intrahb_reward>  (168) 
-0

>  <i_i_glide_confnum>  (168) 
2

>  <i_i_glide_posenum>  (168) 
7

>  <r_i_glide_eff_state_penalty>  (168) 
0

>  <ligand_id>  (168) 
41

>  <original_smiles>  (168) 
CC1C2CC3C4OC25C(=O)CCCC5C(C13O)C12C(=O)C3(Cl)C(=O)C(C)(C)C3C1CC42C

>  <smiles>  (168) 
[H]OC12C3([H])C([H])([H])C([H])(C45OC3([H])C3(C([H])([H])[H])C([H])([H])C6([H])C7([H])C(Cl)(C(=O)C7(C([H])([H])[H])C([H])([H])[H])C(=O)C63C1([H])C4([H])C([H])([H])C([H])([H])C([H])([H])C5=O)C2([H])C([H])([H])[H]

$$$$
41:0:1
     RDKit          3D

 63 70  0  0  1  0  0  0  0  0999 V2000
    2.1014   -3.1634   -1.8517 C   0  0  0  0  0  0  0  0  0  0  0  0
    2.6002   -3.2204   -0.3784 C   0  0  2  0  0  0  0  0  0  0  0  0
    4.0168   -2.6888   -0.1466 C   0  0  2  0  0  0  0  0  0  0  0  0
    4.8226   -3.7815   -0.8465 C   0  0  0  0  0  0  0  0  0  0  0  0
    4.2717   -4.9788   -0.0600 C   0  0  1  0  0  0  0  0  0  0  0  0
    5.1713   -5.0324    1.2108 C   0  0  1  0  0  0  0  0  0  0  0  0
    5.4098   -3.6788    1.6578 O   0  0  0  0  0  0  0  0  0  0  0  0
    4.3711   -2.7072    1.4006 C   0  0  1  0  0  0  0  0  0  0  0  0
    4.8929   -1.3298    1.8330 C   0  0  0  0  0  0  0  0  0  0  0  0
    6.0913   -1.0862    1.9312 O   0  0  0  0  0  0  0  0  0  0  0  0
    3.8430   -0.2630    2.1076 C   0  0  0  0  0  0  0  0  0  0  0  0
    2.8568   -0.7612    3.1674 C   0  0  0  0  0  0  0  0  0  0  0  0
    2.1869   -2.0720    2.7382 C   0  0  0  0  0  0  0  0  0  0  0  0
    3.2102   -3.1699    2.3409 C   0  0  1  0  0  0  0  0  0  0  0  0
    2.5356   -4.5016    1.8279 C   0  0  1  0  0  0  0  0  0  0  0  0
    2.7706   -4.6073    0.2727 C   0  0  1  0  0  0  0  0  0  0  0  0
    1.8159   -5.4537   -0.3121 O   0  0  0  0  0  0  0  0  0  0  0  0
    3.0909   -5.7436    2.5803 C   0  0  1  0  0  0  0  0  0  0  0  0
    2.5933   -5.7644    4.0491 C   0  0  0  0  0  0  0  0  0  0  0  0
    2.4616   -4.7972    4.8073 O   0  0  0  0  0  0  0  0  0  0  0  0
    2.2176   -7.1891    4.4086 C   0  0  1  0  0  0  0  0  0  0  0  0
    3.0990   -7.7990    5.8817 Cl  0  0  0  0  0  0  0  0  0  0  0  0
    0.6894   -7.3866    4.5116 C   0  0  0  0  0  0  0  0  0  0  0  0
   -0.1590   -7.0831    5.3406 O   0  0  0  0  0  0  0  0  0  0  0  0
    0.6331   -8.1579    3.1700 C   0  0  0  0  0  0  0  0  0  0  0  0
    0.0758   -9.5752    3.3384 C   0  0  0  0  0  0  0  0  0  0  0  0
   -0.2267   -7.3977    2.1552 C   0  0  0  0  0  0  0  0  0  0  0  0
    2.1754   -8.0211    3.1249 C   0  0  1  0  0  0  0  0  0  0  0  0
    2.8662   -7.1895    2.0656 C   0  0  2  0  0  0  0  0  0  0  0  0
    4.3462   -7.3817    1.8916 C   0  0  0  0  0  0  0  0  0  0  0  0
    4.6192   -5.9355    2.3404 C   0  0  1  0  0  0  0  0  0  0  0  0
    5.5697   -5.8242    3.5395 C   0  0  0  0  0  0  0  0  0  0  0  0
    2.5933   -3.8623   -2.5313 H   0  0  0  0  0  0  0  0  0  0  0  0
    2.2276   -2.1659   -2.2659 H   0  0  0  0  0  0  0  0  0  0  0  0
    1.0362   -3.3854   -1.8980 H   0  0  0  0  0  0  0  0  0  0  0  0
    1.8603   -2.6527    0.1601 H   0  0  0  0  0  0  0  0  0  0  0  0
    4.1603   -1.7139   -0.6119 H   0  0  0  0  0  0  0  0  0  0  0  0
    4.6172   -3.8528   -1.9101 H   0  0  0  0  0  0  0  0  0  0  0  0
    5.9021   -3.6402   -0.7579 H   0  0  0  0  0  0  0  0  0  0  0  0
    4.3623   -5.8949   -0.6423 H   0  0  0  0  0  0  0  0  0  0  0  0
    6.1511   -5.4173    0.9207 H   0  0  0  0  0  0  0  0  0  0  0  0
    4.3228    0.6495    2.4524 H   0  0  0  0  0  0  0  0  0  0  0  0
    3.3183   -0.0261    1.1809 H   0  0  0  0  0  0  0  0  0  0  0  0
    3.3755   -0.8971    4.1187 H   0  0  0  0  0  0  0  0  0  0  0  0
    2.0947   -0.0002    3.3408 H   0  0  0  0  0  0  0  0  0  0  0  0
    1.6059   -2.4418    3.5778 H   0  0  0  0  0  0  0  0  0  0  0  0
    1.4590   -1.8497    1.9617 H   0  0  0  0  0  0  0  0  0  0  0  0
    3.7268   -3.3844    3.2724 H   0  0  0  0  0  0  0  0  0  0  0  0
    1.4624   -4.4083    2.0181 H   0  0  0  0  0  0  0  0  0  0  0  0
    2.1298   -5.6105   -1.2176 H   0  0  0  0  0  0  0  0  0  0  0  0
    0.2835  -10.1685    2.4426 H   0  0  0  0  0  0  0  0  0  0  0  0
   -1.0063   -9.5992    3.4869 H   0  0  0  0  0  0  0  0  0  0  0  0
    0.5327  -10.1045    4.1769 H   0  0  0  0  0  0  0  0  0  0  0  0
   -0.0806   -7.8111    1.1543 H   0  0  0  0  0  0  0  0  0  0  0  0
    0.0325   -6.3415    2.1102 H   0  0  0  0  0  0  0  0  0  0  0  0
   -1.2955   -7.4740    2.3738 H   0  0  0  0  0  0  0  0  0  0  0  0
    2.6332   -9.0048    3.2885 H   0  0  0  0  0  0  0  0  0  0  0  0
    2.3798   -7.2805    1.1083 H   0  0  0  0  0  0  0  0  0  0  0  0
    4.7588   -8.1328    2.5735 H   0  0  0  0  0  0  0  0  0  0  0  0
    4.6184   -7.6124    0.8610 H   0  0  0  0  0  0  0  0  0  0  0  0
    5.3054   -6.5308    4.3246 H   0  0  0  0  0  0  0  0  0  0  0  0
    5.5433   -4.8294    3.9727 H   0  0  0  0  0  0  0  0  0  0  0  0
    6.5983   -6.0422    3.2546 H   0  0  0  0  0  0  0  0  0  0  0  0
  1  2  1  0
  1 33  1  0
  1 34  1  0
  1 35  1  0
  2 16  1  0
  2  3  1  0
  2 36  1  1
  3  8  1  0
  3  4  1  0
  3 37  1  6
  4  5  1  0
  4 38  1  0
  4 39  1  0
  5 16  1  0
  5  6  1  0
  5 40  1  6
  6 31  1  0
  6  7  1  0
  6 41  1  6
  8  7  1  6
  8 14  1  0
  8  9  1  0
  9 10  2  0
  9 11  1  0
 11 12  1  0
 11 42  1  0
 11 43  1  0
 12 13  1  0
 12 44  1  0
 12 45  1  0
 13 14  1  0
 13 46  1  0
 13 47  1  0
 14 15  1  0
 14 48  1  1
 15 16  1  0
 15 18  1  0
 15 49  1  6
 16 17  1  6
 17 50  1  0
 18 29  1  0
 18 31  1  0
 18 19  1  1
 19 20  2  0
 19 21  1  0
 21 28  1  0
 21 22  1  1
 21 23  1  0
 23 24  2  0
 23 25  1  0
 25 26  1  0
 25 27  1  0
 25 28  1  0
 26 51  1  0
 26 52  1  0
 26 53  1  0
 27 54  1  0
 27 55  1  0
 27 56  1  0
 28 29  1  0
 28 57  1  1
 29 30  1  0
 29 58  1  6
 30 31  1  0
 30 59  1  0
 30 60  1  0
 31 32  1  1
 32 61  1  0
 32 62  1  0
 32 63  1  0
M  END
>  <i_m_ct_stereo_status>  (169) 
1

>  <s_m_source_file>  (169) 
/var/tmp/pbs.5076255.sched01/tmp2obefojl/44ql_32cm2.sdf

>  <i_m_source_file_index>  (169) 
27

>  <i_lp_mmshare_version>  (169) 
48012

>  <i_f3d_flags>  (169) 
0

>  <s_epik_input>  (169) 
W0NAXTEyM1tDQEBIXTRbQ0BASF0oW0NIM10pW0NAQF01KFtPSF0pW0NAQEhdKFtDSDJdNClbQ0BASF0oTzEpW0NAQF02KFtDSDNdKVtDQEBdNyhbQ0BIXTVbQ0BASF0zW0NIMl1bQ0gyXVtDSDJdQzI9TylbQ0BASF0oW0NIMl02KVtDQEhdOFtDQEBdKENsKShDNz1PKUMoPU8pQzgoW0NIM10pW0NIM10=

>  <s_epik_cmdline>  (169) 
J2VwaWtfcHl0aG9uJywgJy1waHQnLCAnMi4wJywgJy1waCcsICc3LjAnLCAnLXRuJywgJzgnLCAnLW1hJywgJzIwMCcsICctaW1hZScsICc8aW5maWxlLm1hZT4nLCAnLW9tYWUnLCAnPG91dGZpbGUubWFlPic=

>  <r_lp_tautomer_probability>  (169) 
1

>  <r_epik_Ionization_Penalty>  (169) 
6.48521e-08

>  <r_epik_Ionization_Penalty_Charging>  (169) 
0

>  <r_epik_Ionization_Penalty_Neutral>  (169) 
6.48521e-08

>  <r_epik_State_Penalty>  (169) 
-0

>  <r_epik_Charging_Adjusted_Penalty>  (169) 
0

>  <i_epik_Tot_Q>  (169) 
0

>  <i_epik_Tot_abs_Q>  (169) 
0

>  <s_lp_Force_Field>  (169) 
OPLS3e

>  <r_lp_Energy>  (169) 
92.7593

>  <b_lp_Chiralities_Consistent>  (169) 
1

>  <s_lp_Variant>  (169) 
41:0-1

>  <s_i_glide_gridfile>  (169) 
pfpi4k_grid

>  <i_i_glide_lignum>  (169) 
27

>  <i_i_glide_rotatable_bonds>  (169) 
1

>  <r_i_docking_score>  (169) 
-3.39673

>  <r_i_glide_ligand_efficiency>  (169) 
-0.106148

>  <r_i_glide_ligand_efficiency_sa>  (169) 
-0.336998

>  <r_i_glide_ligand_efficiency_ln>  (169) 
-0.760621

>  <r_i_glide_gscore>  (169) 
-3.39673

>  <r_i_glide_lipo>  (169) 
-0.269308

>  <r_i_glide_hbond>  (169) 
-0.355467

>  <r_i_glide_metal>  (169) 
-0

>  <r_i_glide_rewards>  (169) 
-0.379196

>  <r_i_glide_evdw>  (169) 
-23.7494

>  <r_i_glide_ecoul>  (169) 
-7.9248

>  <r_i_glide_erotb>  (169) 
0

>  <r_i_glide_esite>  (169) 
-0.0165688

>  <r_i_glide_emodel>  (169) 
-38.0897

>  <r_i_glide_energy>  (169) 
-31.6742

>  <r_i_glide_einternal>  (169) 
0.18272

>  <r_i_glide_intrahb_reward>  (169) 
-0

>  <i_i_glide_confnum>  (169) 
1

>  <i_i_glide_posenum>  (169) 
1

>  <r_i_glide_eff_state_penalty>  (169) 
0

>  <ligand_id>  (169) 
41

>  <original_smiles>  (169) 
CC1C2CC3C4OC25C(=O)CCCC5C(C13O)C12C(=O)C3(Cl)C(=O)C(C)(C)C3C1CC42C

>  <smiles>  (169) 
[H]OC12C3([H])C([H])([H])C([H])(C45OC3([H])C3(C([H])([H])[H])C([H])([H])C6([H])C7([H])C(Cl)(C(=O)C7(C([H])([H])[H])C([H])([H])[H])C(=O)C63C1([H])C4([H])C([H])([H])C([H])([H])C([H])([H])C5=O)C2([H])C([H])([H])[H]

$$$$
41:0:2
     RDKit          3D

 63 70  0  0  1  0  0  0  0  0999 V2000
    4.0442   -3.4939   -0.9589 C   0  0  0  0  0  0  0  0  0  0  0  0
    3.6191   -3.3563    0.5251 C   0  0  2  0  0  0  0  0  0  0  0  0
    4.6171   -2.6182    1.4287 C   0  0  2  0  0  0  0  0  0  0  0  0
    5.7514   -3.6427    1.4605 C   0  0  0  0  0  0  0  0  0  0  0  0
    4.9402   -4.8355    1.9826 C   0  0  1  0  0  0  0  0  0  0  0  0
    4.9477   -4.6581    3.5339 C   0  0  1  0  0  0  0  0  0  0  0  0
    4.7940   -3.2522    3.8285 O   0  0  0  0  0  0  0  0  0  0  0  0
    4.0293   -2.4560    2.8963 C   0  0  1  0  0  0  0  0  0  0  0  0
    4.1273   -0.9893    3.3445 C   0  0  0  0  0  0  0  0  0  0  0  0
    5.0364   -0.5824    4.0672 O   0  0  0  0  0  0  0  0  0  0  0  0
    3.0416   -0.0544    2.8228 C   0  0  0  0  0  0  0  0  0  0  0  0
    1.6583   -0.5927    3.2106 C   0  0  0  0  0  0  0  0  0  0  0  0
    1.4364   -2.0171    2.6856 C   0  0  0  0  0  0  0  0  0  0  0  0
    2.5723   -2.9999    3.0817 C   0  0  1  0  0  0  0  0  0  0  0  0
    2.4071   -4.4529    2.4777 C   0  0  1  0  0  0  0  0  0  0  0  0
    3.5006   -4.6499    1.3609 C   0  0  1  0  0  0  0  0  0  0  0  0
    3.1463   -5.6995    0.4812 O   0  0  0  0  0  0  0  0  0  0  0  0
    2.5001   -5.5392    3.5977 C   0  0  1  0  0  0  0  0  0  0  0  0
    1.2565   -5.5081    4.5170 C   0  0  0  0  0  0  0  0  0  0  0  0
    0.6440   -4.5077    4.9100 O   0  0  0  0  0  0  0  0  0  0  0  0
    0.8298   -6.9267    4.8199 C   0  0  1  0  0  0  0  0  0  0  0  0
    0.7461   -7.2762    6.6016 Cl  0  0  0  0  0  0  0  0  0  0  0  0
   -0.4749   -7.3242    4.0814 C   0  0  0  0  0  0  0  0  0  0  0  0
   -1.6622   -7.0473    4.2259 O   0  0  0  0  0  0  0  0  0  0  0  0
    0.3019   -8.2037    3.0655 C   0  0  0  0  0  0  0  0  0  0  0  0
   -0.1435   -9.6671    3.0922 C   0  0  0  0  0  0  0  0  0  0  0  0
    0.1442   -7.6532    1.6471 C   0  0  0  0  0  0  0  0  0  0  0  0
    1.5807   -7.8670    3.8753 C   0  0  1  0  0  0  0  0  0  0  0  0
    2.6962   -7.0428    3.2633 C   0  0  2  0  0  0  0  0  0  0  0  0
    4.0286   -7.0357    3.9783 C   0  0  0  0  0  0  0  0  0  0  0  0
    3.9044   -5.5317    4.2798 C   0  0  1  0  0  0  0  0  0  0  0  0
    3.9864   -5.1940    5.7743 C   0  0  0  0  0  0  0  0  0  0  0  0
    4.8645   -4.1915   -1.1251 H   0  0  0  0  0  0  0  0  0  0  0  0
    4.3259   -2.5272   -1.3723 H   0  0  0  0  0  0  0  0  0  0  0  0
    3.2060   -3.8588   -1.5517 H   0  0  0  0  0  0  0  0  0  0  0  0
    2.6766   -2.8304    0.4569 H   0  0  0  0  0  0  0  0  0  0  0  0
    4.9417   -1.6745    0.9890 H   0  0  0  0  0  0  0  0  0  0  0  0
    6.1899   -3.8376    0.4853 H   0  0  0  0  0  0  0  0  0  0  0  0
    6.5814   -3.3438    2.1020 H   0  0  0  0  0  0  0  0  0  0  0  0
    5.4019   -5.7795    1.6912 H   0  0  0  0  0  0  0  0  0  0  0  0
    5.9388   -4.9334    3.9029 H   0  0  0  0  0  0  0  0  0  0  0  0
    3.1877    0.9453    3.2294 H   0  0  0  0  0  0  0  0  0  0  0  0
    3.1217    0.0221    1.7375 H   0  0  0  0  0  0  0  0  0  0  0  0
    1.5411   -0.5766    4.2966 H   0  0  0  0  0  0  0  0  0  0  0  0
    0.8841    0.0627    2.8096 H   0  0  0  0  0  0  0  0  0  0  0  0
    0.5002   -2.3947    3.0911 H   0  0  0  0  0  0  0  0  0  0  0  0
    1.2824   -1.9477    1.6142 H   0  0  0  0  0  0  0  0  0  0  0  0
    2.4747   -3.0614    4.1653 H   0  0  0  0  0  0  0  0  0  0  0  0
    1.4222   -4.5004    2.0117 H   0  0  0  0  0  0  0  0  0  0  0  0
    3.1861   -6.5158    0.9534 H   0  0  0  0  0  0  0  0  0  0  0  0
    0.5744  -10.2948    2.5577 H   0  0  0  0  0  0  0  0  0  0  0  0
   -1.1166   -9.8240    2.6226 H   0  0  0  0  0  0  0  0  0  0  0  0
   -0.2007  -10.0592    4.1119 H   0  0  0  0  0  0  0  0  0  0  0  0
    0.8726   -8.1131    0.9766 H   0  0  0  0  0  0  0  0  0  0  0  0
    0.2980   -6.5753    1.5936 H   0  0  0  0  0  0  0  0  0  0  0  0
   -0.8455   -7.8578    1.2318 H   0  0  0  0  0  0  0  0  0  0  0  0
    1.9404   -8.7555    4.4030 H   0  0  0  0  0  0  0  0  0  0  0  0
    2.8449   -7.2989    2.2253 H   0  0  0  0  0  0  0  0  0  0  0  0
    4.0307   -7.6632    4.8688 H   0  0  0  0  0  0  0  0  0  0  0  0
    4.8526   -7.3105    3.3278 H   0  0  0  0  0  0  0  0  0  0  0  0
    3.3652   -5.8649    6.3738 H   0  0  0  0  0  0  0  0  0  0  0  0
    3.6507   -4.1749    5.9725 H   0  0  0  0  0  0  0  0  0  0  0  0
    5.0064   -5.2922    6.1463 H   0  0  0  0  0  0  0  0  0  0  0  0
  1  2  1  0
  1 33  1  0
  1 34  1  0
  1 35  1  0
  2 16  1  0
  2  3  1  0
  2 36  1  6
  3  8  1  0
  3  4  1  0
  3 37  1  6
  4  5  1  0
  4 38  1  0
  4 39  1  0
  5 16  1  0
  5  6  1  0
  5 40  1  1
  6 31  1  0
  6  7  1  0
  6 41  1  1
  8  7  1  1
  8 14  1  0
  8  9  1  0
  9 10  2  0
  9 11  1  0
 11 12  1  0
 11 42  1  0
 11 43  1  0
 12 13  1  0
 12 44  1  0
 12 45  1  0
 13 14  1  0
 13 46  1  0
 13 47  1  0
 14 15  1  0
 14 48  1  1
 15 16  1  0
 15 18  1  0
 15 49  1  6
 16 17  1  6
 17 50  1  0
 18 29  1  0
 18 31  1  0
 18 19  1  1
 19 20  2  0
 19 21  1  0
 21 28  1  0
 21 22  1  1
 21 23  1  0
 23 24  2  0
 23 25  1  0
 25 26  1  0
 25 27  1  0
 25 28  1  0
 26 51  1  0
 26 52  1  0
 26 53  1  0
 27 54  1  0
 27 55  1  0
 27 56  1  0
 28 29  1  0
 28 57  1  1
 29 30  1  0
 29 58  1  6
 30 31  1  0
 30 59  1  0
 30 60  1  0
 31 32  1  1
 32 61  1  0
 32 62  1  0
 32 63  1  0
M  END
>  <i_m_ct_stereo_status>  (170) 
1

>  <s_m_source_file>  (170) 
/var/tmp/pbs.5076255.sched01/tmp2obefojl/44ql_32cm2.sdf

>  <i_m_source_file_index>  (170) 
27

>  <i_lp_mmshare_version>  (170) 
48012

>  <i_f3d_flags>  (170) 
0

>  <s_epik_input>  (170) 
W0NAXTEyM1tDQEBIXTRbQ0BASF0oW0NIM10pW0NAQF01KFtPSF0pW0NAQEhdKFtDSDJdNClbQ0BASF0oTzEpW0NAQF02KFtDSDNdKVtDQEBdNyhbQ0BIXTVbQ0BASF0zW0NIMl1bQ0gyXVtDSDJdQzI9TylbQ0BASF0oW0NIMl02KVtDQEhdOFtDQEBdKENsKShDNz1PKUMoPU8pQzgoW0NIM10pW0NIM10=

>  <s_epik_cmdline>  (170) 
J2VwaWtfcHl0aG9uJywgJy1waHQnLCAnMi4wJywgJy1waCcsICc3LjAnLCAnLXRuJywgJzgnLCAnLW1hJywgJzIwMCcsICctaW1hZScsICc8aW5maWxlLm1hZT4nLCAnLW9tYWUnLCAnPG91dGZpbGUubWFlPic=

>  <r_lp_tautomer_probability>  (170) 
1

>  <r_epik_Ionization_Penalty>  (170) 
6.48521e-08

>  <r_epik_Ionization_Penalty_Charging>  (170) 
0

>  <r_epik_Ionization_Penalty_Neutral>  (170) 
6.48521e-08

>  <r_epik_State_Penalty>  (170) 
-0

>  <r_epik_Charging_Adjusted_Penalty>  (170) 
0

>  <i_epik_Tot_Q>  (170) 
0

>  <i_epik_Tot_abs_Q>  (170) 
0

>  <s_lp_Force_Field>  (170) 
OPLS3e

>  <r_lp_Energy>  (170) 
92.7593

>  <b_lp_Chiralities_Consistent>  (170) 
1

>  <s_lp_Variant>  (170) 
41:0-1

>  <s_i_glide_gridfile>  (170) 
pfpi4k_grid

>  <i_i_glide_lignum>  (170) 
27

>  <i_i_glide_rotatable_bonds>  (170) 
1

>  <r_i_docking_score>  (170) 
-1.94577

>  <r_i_glide_ligand_efficiency>  (170) 
-0.0608053

>  <r_i_glide_ligand_efficiency_sa>  (170) 
-0.193045

>  <r_i_glide_ligand_efficiency_ln>  (170) 
-0.435711

>  <r_i_glide_gscore>  (170) 
-1.94577

>  <r_i_glide_lipo>  (170) 
-0.126778

>  <r_i_glide_hbond>  (170) 
0

>  <r_i_glide_metal>  (170) 
-0

>  <r_i_glide_rewards>  (170) 
-0.297398

>  <r_i_glide_evdw>  (170) 
-24.067

>  <r_i_glide_ecoul>  (170) 
-1.79336

>  <r_i_glide_erotb>  (170) 
0

>  <r_i_glide_esite>  (170) 
-0.0492376

>  <r_i_glide_emodel>  (170) 
-29.5146

>  <r_i_glide_energy>  (170) 
-25.8604

>  <r_i_glide_einternal>  (170) 
0.0420878

>  <r_i_glide_intrahb_reward>  (170) 
-0

>  <i_i_glide_confnum>  (170) 
2

>  <i_i_glide_posenum>  (170) 
40

>  <r_i_glide_eff_state_penalty>  (170) 
0

>  <ligand_id>  (170) 
41

>  <original_smiles>  (170) 
CC1C2CC3C4OC25C(=O)CCCC5C(C13O)C12C(=O)C3(Cl)C(=O)C(C)(C)C3C1CC42C

>  <smiles>  (170) 
[H]OC12C3([H])C([H])([H])C([H])(C45OC3([H])C3(C([H])([H])[H])C([H])([H])C6([H])C7([H])C(Cl)(C(=O)C7(C([H])([H])[H])C([H])([H])[H])C(=O)C63C1([H])C4([H])C([H])([H])C([H])([H])C([H])([H])C5=O)C2([H])C([H])([H])[H]

$$$$
42:0:0
     RDKit          3D

 71 76  0  0  1  0  0  0  0  0999 V2000
    3.9544   -1.4598    4.7259 C   0  0  0  0  0  0  0  0  0  0  0  0
    3.2241   -2.3018    3.8490 O   0  0  0  0  0  0  0  0  0  0  0  0
    3.9148   -2.7935    2.7469 C   0  0  2  0  0  0  0  0  0  0  0  0
    5.2423   -3.1282    3.0224 O   0  0  0  0  0  0  0  0  0  0  0  0
    6.0187   -3.5922    1.9254 C   0  0  2  0  0  0  0  0  0  0  0  0
    6.0659   -2.4996    0.8585 C   0  0  1  0  0  0  0  0  0  0  0  0
    7.1198   -2.7007   -0.0653 O   0  0  0  0  0  0  0  0  0  0  0  0
    4.6409   -2.4062    0.3092 C   0  0  1  0  0  0  0  0  0  0  0  0
    4.1751   -3.7677   -0.3625 C   0  0  0  0  0  0  0  0  0  0  0  0
    2.6821   -3.6459   -0.6891 C   0  0  0  0  0  0  0  0  0  0  0  0
    4.8713   -3.8463   -1.7495 C   0  0  0  0  0  0  0  0  0  0  0  0
    4.5363   -5.1112    0.4487 C   0  0  2  0  0  0  0  0  0  0  0  0
    3.4743   -6.2417    0.7327 C   0  0  2  0  0  0  0  0  0  0  0  0
    2.0880   -5.9760    1.4517 C   0  0  1  0  0  0  0  0  0  0  0  0
    1.0629   -5.9476    0.4793 O   0  0  0  0  0  0  0  0  0  0  0  0
    1.9048   -7.1866    2.3932 C   0  0  1  0  0  0  0  0  0  0  0  0
    2.4784   -6.7912    3.6165 O   0  0  0  0  0  0  0  0  0  0  0  0
    0.6161   -7.9427    2.8361 C   0  0  1  0  0  0  0  0  0  0  0  0
   -0.3576   -8.0782    1.8139 O   0  0  0  0  0  0  0  0  0  0  0  0
    1.2478   -9.3126    3.1587 C   0  0  0  0  0  0  0  0  0  0  0  0
    0.4849  -10.2987    4.0130 C   0  0  0  0  0  0  0  0  0  0  0  0
    2.4635   -9.4633    2.6244 C   0  0  0  0  0  0  0  0  0  0  0  0
    2.7250   -8.2755    1.7435 C   0  0  2  0  0  0  0  0  0  0  0  0
    4.0538   -7.6075    1.3045 C   0  0  1  0  0  0  0  0  0  0  0  0
    4.5960   -8.3598    0.2314 O   0  0  0  0  0  0  0  0  0  0  0  0
    5.1587   -7.4637    2.4140 C   0  0  1  0  0  0  0  0  0  0  0  0
    6.4467   -8.2973    2.1489 C   0  0  0  0  0  0  0  0  0  0  0  0
    5.4373   -5.9662    2.7310 C   0  0  1  0  0  0  0  0  0  0  0  0
    6.4713   -5.8592    3.6906 O   0  0  0  0  0  0  0  0  0  0  0  0
    5.6843   -5.0346    1.4993 C   0  0  2  0  0  0  0  0  0  0  0  0
    6.8854   -5.4776    0.8874 O   0  0  0  0  0  0  0  0  0  0  0  0
    3.7974   -1.8672    1.5172 C   0  0  0  0  0  0  0  0  0  0  0  0
    2.4100   -1.5223    1.2887 O   0  0  0  0  0  0  0  0  0  0  0  0
    2.6641   -0.2221    1.8896 C   0  0  0  0  0  0  0  0  0  0  0  0
    4.0988   -0.4724    1.8342 O   0  0  0  0  0  0  0  0  0  0  0  0
    3.2814   -1.0441    5.4785 H   0  0  0  0  0  0  0  0  0  0  0  0
    4.4244   -0.6243    4.2149 H   0  0  0  0  0  0  0  0  0  0  0  0
    4.7321   -2.0214    5.2399 H   0  0  0  0  0  0  0  0  0  0  0  0
    3.3631   -3.6781    2.5091 H   0  0  0  0  0  0  0  0  0  0  0  0
    7.0231   -3.6927    2.2668 H   0  0  0  0  0  0  0  0  0  0  0  0
    6.3028   -1.5515    1.3560 H   0  0  0  0  0  0  0  0  0  0  0  0
    7.9395   -2.6051    0.4035 H   0  0  0  0  0  0  0  0  0  0  0  0
    4.6517   -1.6380   -0.4801 H   0  0  0  0  0  0  0  0  0  0  0  0
    2.3035   -4.4890   -1.2592 H   0  0  0  0  0  0  0  0  0  0  0  0
    2.4727   -2.7491   -1.2756 H   0  0  0  0  0  0  0  0  0  0  0  0
    2.0854   -3.5890    0.2129 H   0  0  0  0  0  0  0  0  0  0  0  0
    4.4991   -4.6550   -2.3712 H   0  0  0  0  0  0  0  0  0  0  0  0
    5.9321   -4.0537   -1.6726 H   0  0  0  0  0  0  0  0  0  0  0  0
    4.7581   -2.9232   -2.3199 H   0  0  0  0  0  0  0  0  0  0  0  0
    5.0557   -5.6690   -0.3327 H   0  0  0  0  0  0  0  0  0  0  0  0
    3.2026   -6.4753   -0.2837 H   0  0  0  0  0  0  0  0  0  0  0  0
    2.0307   -5.0612    2.0334 H   0  0  0  0  0  0  0  0  0  0  0  0
    0.9441   -6.8452    0.2027 H   0  0  0  0  0  0  0  0  0  0  0  0
    2.5359   -7.5746    4.1453 H   0  0  0  0  0  0  0  0  0  0  0  0
    0.1488   -7.5156    3.7302 H   0  0  0  0  0  0  0  0  0  0  0  0
   -0.0880   -8.7756    1.2178 H   0  0  0  0  0  0  0  0  0  0  0  0
    0.3036   -9.8546    4.9848 H   0  0  0  0  0  0  0  0  0  0  0  0
    1.0123  -11.2451    4.1532 H   0  0  0  0  0  0  0  0  0  0  0  0
   -0.4883  -10.4943    3.5724 H   0  0  0  0  0  0  0  0  0  0  0  0
    3.1101  -10.3382    2.6672 H   0  0  0  0  0  0  0  0  0  0  0  0
    2.1647   -8.5834    0.8668 H   0  0  0  0  0  0  0  0  0  0  0  0
    4.7425   -9.2568    0.5014 H   0  0  0  0  0  0  0  0  0  0  0  0
    4.7815   -7.8873    3.3523 H   0  0  0  0  0  0  0  0  0  0  0  0
    6.9924   -7.9822    1.2581 H   0  0  0  0  0  0  0  0  0  0  0  0
    6.2076   -9.3547    2.0288 H   0  0  0  0  0  0  0  0  0  0  0  0
    7.1371   -8.2345    2.9855 H   0  0  0  0  0  0  0  0  0  0  0  0
    4.5571   -5.5709    3.2336 H   0  0  0  0  0  0  0  0  0  0  0  0
    7.2588   -6.1860    3.2825 H   0  0  0  0  0  0  0  0  0  0  0  0
    7.0797   -4.8347    0.2170 H   0  0  0  0  0  0  0  0  0  0  0  0
    2.3678    0.6106    1.2425 H   0  0  0  0  0  0  0  0  0  0  0  0
    2.2685   -0.1637    2.9236 H   0  0  0  0  0  0  0  0  0  0  0  0
  1  2  1  0
  1 36  1  0
  1 37  1  0
  1 38  1  0
  2  3  1  0
  3 32  1  0
  3  4  1  0
  3 39  1  6
  4  5  1  0
  5 30  1  0
  5  6  1  0
  5 40  1  1
  6  7  1  0
  6  8  1  0
  6 41  1  1
  7 42  1  0
  8  9  1  0
  8 32  1  0
  8 43  1  6
  9 10  1  0
  9 11  1  0
  9 12  1  0
 10 44  1  0
 10 45  1  0
 10 46  1  0
 11 47  1  0
 11 48  1  0
 11 49  1  0
 12 30  1  0
 12 13  1  0
 12 50  1  6
 13 24  1  0
 13 14  1  0
 13 51  1  6
 14 15  1  0
 14 16  1  0
 14 52  1  1
 15 53  1  0
 16 23  1  0
 16 17  1  1
 16 18  1  0
 17 54  1  0
 18 19  1  0
 18 20  1  0
 18 55  1  1
 19 56  1  0
 20 21  1  0
 20 22  2  0
 21 57  1  0
 21 58  1  0
 21 59  1  0
 22 23  1  0
 22 60  1  0
 23 24  1  0
 23 61  1  6
 24 25  1  6
 24 26  1  0
 25 62  1  0
 26 27  1  0
 26 28  1  0
 26 63  1  1
 27 64  1  0
 27 65  1  0
 27 66  1  0
 28 29  1  0
 28 30  1  0
 28 67  1  1
 29 68  1  0
 30 31  1  6
 31 69  1  0
 32 35  1  0
 32 33  1  0
 33 34  1  0
 34 35  1  0
 34 70  1  0
 34 71  1  0
M  END
>  <i_m_ct_stereo_status>  (171) 
1

>  <s_m_source_file>  (171) 
/var/tmp/pbs.5076255.sched01/tmp2obefojl/44ql_32cm2.sdf

>  <i_m_source_file_index>  (171) 
28

>  <i_lp_mmshare_version>  (171) 
48012

>  <i_f3d_flags>  (171) 
0

>  <s_epik_input>  (171) 
TzFbQ0gyXU9DMTJbQ0BIXTNbQ0BIXShbT0hdKVtDQEBIXShPW0NASF0yT1tDSDNdKVtDQF00KFtPSF0pW0NASF0oQzMoW0NIM10pW0NIM10pW0NASF01W0NAQF0oW09IXSkoW0NAQEhdKFtDSDNdKVtDQEhdNFtPSF0pW0NAQEhdNltDQEBdKFtPSF0pKFtDQEBIXTVbT0hdKVtDQEBIXShbT0hdKUMoW0NIM10pPVtDSF02

>  <s_epik_cmdline>  (171) 
J2VwaWtfcHl0aG9uJywgJy1waHQnLCAnMi4wJywgJy1waCcsICc3LjAnLCAnLXRuJywgJzgnLCAnLW1hJywgJzIwMCcsICctaW1hZScsICc8aW5maWxlLm1hZT4nLCAnLW9tYWUnLCAnPG91dGZpbGUubWFlPic=

>  <r_lp_tautomer_probability>  (171) 
1

>  <r_epik_Ionization_Penalty>  (171) 
8.34372e-07

>  <r_epik_Ionization_Penalty_Charging>  (171) 
0

>  <r_epik_Ionization_Penalty_Neutral>  (171) 
8.34372e-07

>  <r_epik_State_Penalty>  (171) 
-0

>  <r_epik_Charging_Adjusted_Penalty>  (171) 
0

>  <i_epik_Tot_Q>  (171) 
0

>  <i_epik_Tot_abs_Q>  (171) 
0

>  <s_epik_Chemistry_Notes>  (171) 
This compound contains an acetal/aminal-like group ( X-CH(R)-Y where X, Y are N, S, or O) that may be acid/base labile, releasing an aldehyde.

>  <s_lp_Force_Field>  (171) 
OPLS3e

>  <r_lp_Energy>  (171) 
112.855

>  <b_lp_Chiralities_Consistent>  (171) 
1

>  <s_lp_Variant>  (171) 
42:0-1

>  <s_i_glide_gridfile>  (171) 
pfpi4k_grid

>  <i_i_glide_lignum>  (171) 
28

>  <i_i_glide_rotatable_bonds>  (171) 
8

>  <r_i_docking_score>  (171) 
-3.34503

>  <r_i_glide_ligand_efficiency>  (171) 
-0.0955722

>  <r_i_glide_ligand_efficiency_sa>  (171) 
-0.312623

>  <r_i_glide_ligand_efficiency_ln>  (171) 
-0.734308

>  <r_i_glide_gscore>  (171) 
-3.34503

>  <r_i_glide_lipo>  (171) 
-0.40731

>  <r_i_glide_hbond>  (171) 
0

>  <r_i_glide_metal>  (171) 
-0

>  <r_i_glide_rewards>  (171) 
-0.500846

>  <r_i_glide_evdw>  (171) 
-20.8285

>  <r_i_glide_ecoul>  (171) 
-9.01953

>  <r_i_glide_erotb>  (171) 
0

>  <r_i_glide_esite>  (171) 
-0.0425187

>  <r_i_glide_emodel>  (171) 
-37.5244

>  <r_i_glide_energy>  (171) 
-29.848

>  <r_i_glide_einternal>  (171) 
4.69354

>  <r_i_glide_intrahb_reward>  (171) 
-0.5

>  <i_i_glide_confnum>  (171) 
1

>  <i_i_glide_posenum>  (171) 
22

>  <r_i_glide_eff_state_penalty>  (171) 
0

>  <ligand_id>  (171) 
42

>  <original_smiles>  (171) 
COC1OC2C(O)C(C(C)(C)C3C4C(O)C5(O)C(O)C(C)=CC5C4(O)C(C)C(O)C23O)C12OCO2

>  <smiles>  (171) 
[H]OC1([H])C(C([H])([H])[H])=C([H])C2([H])C1(O[H])C([H])(O[H])C1([H])C3([H])C(O[H])(C4([H])OC([H])(OC([H])([H])[H])C5(OC([H])([H])O5)C([H])(C4([H])O[H])C3(C([H])([H])[H])C([H])([H])[H])C([H])(O[H])C([H])(C([H])([H])[H])C21O[H]

$$$$
42:0:1
     RDKit          3D

 71 76  0  0  1  0  0  0  0  0999 V2000
   -0.2155   -7.2182    2.3597 C   0  0  0  0  0  0  0  0  0  0  0  0
   -0.1233   -6.7406    3.6924 O   0  0  0  0  0  0  0  0  0  0  0  0
    1.1745   -6.6281    4.1587 C   0  0  2  0  0  0  0  0  0  0  0  0
    1.8490   -7.8510    4.1261 O   0  0  0  0  0  0  0  0  0  0  0  0
    3.1704   -7.8796    4.6438 C   0  0  2  0  0  0  0  0  0  0  0  0
    3.0826   -7.5319    6.1337 C   0  0  1  0  0  0  0  0  0  0  0  0
    4.2830   -7.8435    6.8145 O   0  0  0  0  0  0  0  0  0  0  0  0
    2.6067   -6.0732    6.2183 C   0  0  1  0  0  0  0  0  0  0  0  0
    3.6277   -5.0483    5.5832 C   0  0  0  0  0  0  0  0  0  0  0  0
    2.9633   -3.6594    5.5257 C   0  0  0  0  0  0  0  0  0  0  0  0
    4.7835   -4.8383    6.5986 C   0  0  0  0  0  0  0  0  0  0  0  0
    4.2581   -5.4999    4.1806 C   0  0  2  0  0  0  0  0  0  0  0  0
    4.3225   -4.5060    2.9390 C   0  0  2  0  0  0  0  0  0  0  0  0
    3.0380   -3.8197    2.3109 C   0  0  1  0  0  0  0  0  0  0  0  0
    2.9625   -2.4783    2.7388 O   0  0  0  0  0  0  0  0  0  0  0  0
    3.2543   -3.9319    0.7886 C   0  0  1  0  0  0  0  0  0  0  0  0
    2.6277   -5.1373    0.3980 O   0  0  0  0  0  0  0  0  0  0  0  0
    2.8481   -2.9670   -0.3531 C   0  0  1  0  0  0  0  0  0  0  0  0
    3.0173   -1.6182    0.0119 O   0  0  0  0  0  0  0  0  0  0  0  0
    3.9061   -3.3377   -1.3946 C   0  0  0  0  0  0  0  0  0  0  0  0
    3.7177   -2.9665   -2.8413 C   0  0  0  0  0  0  0  0  0  0  0  0
    4.9463   -3.9963   -0.8355 C   0  0  0  0  0  0  0  0  0  0  0  0
    4.7606   -3.9874    0.6581 C   0  0  2  0  0  0  0  0  0  0  0  0
    5.2334   -4.9944    1.7356 C   0  0  1  0  0  0  0  0  0  0  0  0
    6.5831   -4.6565    2.0225 O   0  0  0  0  0  0  0  0  0  0  0  0
    5.1155   -6.5270    1.3841 C   0  0  1  0  0  0  0  0  0  0  0  0
    6.4853   -7.2688    1.2862 C   0  0  0  0  0  0  0  0  0  0  0  0
    4.0825   -7.2627    2.2918 C   0  0  1  0  0  0  0  0  0  0  0  0
    4.0206   -8.6377    1.9639 O   0  0  0  0  0  0  0  0  0  0  0  0
    4.2190   -7.0405    3.8263 C   0  0  2  0  0  0  0  0  0  0  0  0
    5.4672   -7.6007    4.1976 O   0  0  0  0  0  0  0  0  0  0  0  0
    1.1784   -6.0858    5.6054 C   0  0  0  0  0  0  0  0  0  0  0  0
    0.3315   -4.9067    5.7439 O   0  0  0  0  0  0  0  0  0  0  0  0
   -0.7211   -5.7492    6.2630 C   0  0  0  0  0  0  0  0  0  0  0  0
    0.2207   -6.8163    6.4255 O   0  0  0  0  0  0  0  0  0  0  0  0
   -1.2624   -7.3078    2.0886 H   0  0  0  0  0  0  0  0  0  0  0  0
    0.2280   -8.2120    2.2491 H   0  0  0  0  0  0  0  0  0  0  0  0
    0.2641   -6.5388    1.6486 H   0  0  0  0  0  0  0  0  0  0  0  0
    1.6647   -5.9225    3.5294 H   0  0  0  0  0  0  0  0  0  0  0  0
    3.4592   -8.9320    4.5701 H   0  0  0  0  0  0  0  0  0  0  0  0
    2.3154   -8.1784    6.5822 H   0  0  0  0  0  0  0  0  0  0  0  0
    4.3467   -8.7906    6.8835 H   0  0  0  0  0  0  0  0  0  0  0  0
    2.5180   -5.8367    7.2803 H   0  0  0  0  0  0  0  0  0  0  0  0
    3.6764   -2.8891    5.2309 H   0  0  0  0  0  0  0  0  0  0  0  0
    2.5626   -3.3713    6.4932 H   0  0  0  0  0  0  0  0  0  0  0  0
    2.1383   -3.6352    4.8241 H   0  0  0  0  0  0  0  0  0  0  0  0
    5.4150   -3.9904    6.3239 H   0  0  0  0  0  0  0  0  0  0  0  0
    5.4508   -5.6952    6.6535 H   0  0  0  0  0  0  0  0  0  0  0  0
    4.4191   -4.6571    7.6054 H   0  0  0  0  0  0  0  0  0  0  0  0
    5.3204   -5.3965    4.4152 H   0  0  0  0  0  0  0  0  0  0  0  0
    4.8969   -3.6647    3.3214 H   0  0  0  0  0  0  0  0  0  0  0  0
    2.0934   -4.2748    2.5677 H   0  0  0  0  0  0  0  0  0  0  0  0
    3.5955   -1.9828    2.2294 H   0  0  0  0  0  0  0  0  0  0  0  0
    2.9069   -5.3026   -0.4964 H   0  0  0  0  0  0  0  0  0  0  0  0
    1.8423   -3.1267   -0.7546 H   0  0  0  0  0  0  0  0  0  0  0  0
    2.2468   -1.1497   -0.3190 H   0  0  0  0  0  0  0  0  0  0  0  0
    2.8076   -3.4344   -3.1994 H   0  0  0  0  0  0  0  0  0  0  0  0
    4.5484   -3.2795   -3.4772 H   0  0  0  0  0  0  0  0  0  0  0  0
    3.5810   -1.8902   -2.9408 H   0  0  0  0  0  0  0  0  0  0  0  0
    5.8135   -4.3722   -1.3456 H   0  0  0  0  0  0  0  0  0  0  0  0
    5.1530   -3.0055    0.9562 H   0  0  0  0  0  0  0  0  0  0  0  0
    7.1526   -4.9793    1.3371 H   0  0  0  0  0  0  0  0  0  0  0  0
    4.7091   -6.6342    0.3709 H   0  0  0  0  0  0  0  0  0  0  0  0
    7.0308   -7.3202    2.2251 H   0  0  0  0  0  0  0  0  0  0  0  0
    7.1349   -6.7868    0.5558 H   0  0  0  0  0  0  0  0  0  0  0  0
    6.3443   -8.2953    0.9424 H   0  0  0  0  0  0  0  0  0  0  0  0
    3.0976   -6.8850    2.0299 H   0  0  0  0  0  0  0  0  0  0  0  0
    4.8279   -9.0354    2.2676 H   0  0  0  0  0  0  0  0  0  0  0  0
    5.5168   -7.5416    5.1470 H   0  0  0  0  0  0  0  0  0  0  0  0
   -1.1284   -5.3964    7.2164 H   0  0  0  0  0  0  0  0  0  0  0  0
   -1.5054   -5.9740    5.5054 H   0  0  0  0  0  0  0  0  0  0  0  0
  1  2  1  0
  1 36  1  0
  1 37  1  0
  1 38  1  0
  2  3  1  0
  3 32  1  0
  3  4  1  0
  3 39  1  6
  4  5  1  0
  5 30  1  0
  5  6  1  0
  5 40  1  1
  6  7  1  0
  6  8  1  0
  6 41  1  1
  7 42  1  0
  8  9  1  0
  8 32  1  0
  8 43  1  1
  9 10  1  0
  9 11  1  0
  9 12  1  0
 10 44  1  0
 10 45  1  0
 10 46  1  0
 11 47  1  0
 11 48  1  0
 11 49  1  0
 12 30  1  0
 12 13  1  0
 12 50  1  1
 13 24  1  0
 13 14  1  0
 13 51  1  1
 14 15  1  0
 14 16  1  0
 14 52  1  6
 15 53  1  0
 16 23  1  0
 16 17  1  6
 16 18  1  0
 17 54  1  0
 18 19  1  0
 18 20  1  0
 18 55  1  6
 19 56  1  0
 20 21  1  0
 20 22  2  0
 21 57  1  0
 21 58  1  0
 21 59  1  0
 22 23  1  0
 22 60  1  0
 23 24  1  0
 23 61  1  1
 24 25  1  1
 24 26  1  0
 25 62  1  0
 26 27  1  0
 26 28  1  0
 26 63  1  6
 27 64  1  0
 27 65  1  0
 27 66  1  0
 28 29  1  0
 28 30  1  0
 28 67  1  6
 29 68  1  0
 30 31  1  1
 31 69  1  0
 32 35  1  0
 32 33  1  0
 33 34  1  0
 34 35  1  0
 34 70  1  0
 34 71  1  0
M  END
>  <i_m_ct_stereo_status>  (172) 
1

>  <s_m_source_file>  (172) 
/var/tmp/pbs.5076255.sched01/tmp2obefojl/44ql_32cm2.sdf

>  <i_m_source_file_index>  (172) 
28

>  <i_lp_mmshare_version>  (172) 
48012

>  <i_f3d_flags>  (172) 
0

>  <s_epik_input>  (172) 
TzFbQ0gyXU9DMTJbQ0BIXTNbQ0BIXShbT0hdKVtDQEBIXShPW0NASF0yT1tDSDNdKVtDQF00KFtPSF0pW0NASF0oQzMoW0NIM10pW0NIM10pW0NASF01W0NAQF0oW09IXSkoW0NAQEhdKFtDSDNdKVtDQEhdNFtPSF0pW0NAQEhdNltDQEBdKFtPSF0pKFtDQEBIXTVbT0hdKVtDQEBIXShbT0hdKUMoW0NIM10pPVtDSF02

>  <s_epik_cmdline>  (172) 
J2VwaWtfcHl0aG9uJywgJy1waHQnLCAnMi4wJywgJy1waCcsICc3LjAnLCAnLXRuJywgJzgnLCAnLW1hJywgJzIwMCcsICctaW1hZScsICc8aW5maWxlLm1hZT4nLCAnLW9tYWUnLCAnPG91dGZpbGUubWFlPic=

>  <r_lp_tautomer_probability>  (172) 
1

>  <r_epik_Ionization_Penalty>  (172) 
8.34372e-07

>  <r_epik_Ionization_Penalty_Charging>  (172) 
0

>  <r_epik_Ionization_Penalty_Neutral>  (172) 
8.34372e-07

>  <r_epik_State_Penalty>  (172) 
-0

>  <r_epik_Charging_Adjusted_Penalty>  (172) 
0

>  <i_epik_Tot_Q>  (172) 
0

>  <i_epik_Tot_abs_Q>  (172) 
0

>  <s_epik_Chemistry_Notes>  (172) 
This compound contains an acetal/aminal-like group ( X-CH(R)-Y where X, Y are N, S, or O) that may be acid/base labile, releasing an aldehyde.

>  <s_lp_Force_Field>  (172) 
OPLS3e

>  <r_lp_Energy>  (172) 
112.855

>  <b_lp_Chiralities_Consistent>  (172) 
1

>  <s_lp_Variant>  (172) 
42:0-1

>  <s_i_glide_gridfile>  (172) 
pfpi4k_grid

>  <i_i_glide_lignum>  (172) 
28

>  <i_i_glide_rotatable_bonds>  (172) 
8

>  <r_i_docking_score>  (172) 
-2.95758

>  <r_i_glide_ligand_efficiency>  (172) 
-0.0845023

>  <r_i_glide_ligand_efficiency_sa>  (172) 
-0.276413

>  <r_i_glide_ligand_efficiency_ln>  (172) 
-0.649254

>  <r_i_glide_gscore>  (172) 
-2.95758

>  <r_i_glide_lipo>  (172) 
-0.27932

>  <r_i_glide_hbond>  (172) 
-0.153146

>  <r_i_glide_metal>  (172) 
-0

>  <r_i_glide_rewards>  (172) 
-0.561246

>  <r_i_glide_evdw>  (172) 
-19.7107

>  <r_i_glide_ecoul>  (172) 
-6.45215

>  <r_i_glide_erotb>  (172) 
0

>  <r_i_glide_esite>  (172) 
-0.0105076

>  <r_i_glide_emodel>  (172) 
-35.2545

>  <r_i_glide_energy>  (172) 
-26.1629

>  <r_i_glide_einternal>  (172) 
1.51806

>  <r_i_glide_intrahb_reward>  (172) 
-0.5

>  <i_i_glide_confnum>  (172) 
1

>  <i_i_glide_posenum>  (172) 
18

>  <r_i_glide_eff_state_penalty>  (172) 
0

>  <ligand_id>  (172) 
42

>  <original_smiles>  (172) 
COC1OC2C(O)C(C(C)(C)C3C4C(O)C5(O)C(O)C(C)=CC5C4(O)C(C)C(O)C23O)C12OCO2

>  <smiles>  (172) 
[H]OC1([H])C(C([H])([H])[H])=C([H])C2([H])C1(O[H])C([H])(O[H])C1([H])C3([H])C(O[H])(C4([H])OC([H])(OC([H])([H])[H])C5(OC([H])([H])O5)C([H])(C4([H])O[H])C3(C([H])([H])[H])C([H])([H])[H])C([H])(O[H])C([H])(C([H])([H])[H])C21O[H]

$$$$
42:0:2
     RDKit          3D

 71 76  0  0  1  0  0  0  0  0999 V2000
    0.3089   -6.6577    0.6965 C   0  0  0  0  0  0  0  0  0  0  0  0
   -0.0633   -6.8760    2.0406 O   0  0  0  0  0  0  0  0  0  0  0  0
    0.9210   -7.4943    2.7955 C   0  0  2  0  0  0  0  0  0  0  0  0
    1.2467   -8.7611    2.3061 O   0  0  0  0  0  0  0  0  0  0  0  0
    2.1955   -9.5256    3.0512 C   0  0  2  0  0  0  0  0  0  0  0  0
    1.5931   -9.7818    4.4425 C   0  0  1  0  0  0  0  0  0  0  0  0
    2.2983  -10.7697    5.1768 O   0  0  0  0  0  0  0  0  0  0  0  0
    1.4909   -8.4094    5.1237 C   0  0  1  0  0  0  0  0  0  0  0  0
    2.9047   -7.7218    5.3577 C   0  0  0  0  0  0  0  0  0  0  0  0
    2.6790   -6.2774    5.8462 C   0  0  0  0  0  0  0  0  0  0  0  0
    3.5748   -8.4084    6.5815 C   0  0  0  0  0  0  0  0  0  0  0  0
    3.9186   -7.8051    4.1199 C   0  0  2  0  0  0  0  0  0  0  0  0
    4.7158   -6.5291    3.6027 C   0  0  2  0  0  0  0  0  0  0  0  0
    3.9977   -5.1937    3.1145 C   0  0  1  0  0  0  0  0  0  0  0  0
    4.0627   -4.1986    4.1125 O   0  0  0  0  0  0  0  0  0  0  0  0
    4.7691   -4.7790    1.8483 C   0  0  1  0  0  0  0  0  0  0  0  0
    4.0784   -5.3938    0.7747 O   0  0  0  0  0  0  0  0  0  0  0  0
    5.1102   -3.3669    1.2903 C   0  0  1  0  0  0  0  0  0  0  0  0
    5.4477   -2.4056    2.2640 O   0  0  0  0  0  0  0  0  0  0  0  0
    6.3665   -3.7177    0.4855 C   0  0  0  0  0  0  0  0  0  0  0  0
    6.8604   -2.7637   -0.5789 C   0  0  0  0  0  0  0  0  0  0  0  0
    6.8977   -4.8954    0.8652 C   0  0  0  0  0  0  0  0  0  0  0  0
    6.1350   -5.3959    2.0685 C   0  0  2  0  0  0  0  0  0  0  0  0
    5.8873   -6.8353    2.5800 C   0  0  1  0  0  0  0  0  0  0  0  0
    7.0468   -7.2061    3.3121 O   0  0  0  0  0  0  0  0  0  0  0  0
    5.5514   -7.9280    1.4904 C   0  0  1  0  0  0  0  0  0  0  0  0
    6.6216   -9.0402    1.3250 C   0  0  0  0  0  0  0  0  0  0  0  0
    4.1012   -8.4844    1.6316 C   0  0  1  0  0  0  0  0  0  0  0  0
    3.8297   -9.4534    0.6299 O   0  0  0  0  0  0  0  0  0  0  0  0
    3.6495   -8.9395    3.0507 C   0  0  2  0  0  0  0  0  0  0  0  0
    4.4689  -10.0463    3.3773 O   0  0  0  0  0  0  0  0  0  0  0  0
    0.4703   -7.6123    4.2635 C   0  0  0  0  0  0  0  0  0  0  0  0
   -0.0386   -6.3471    4.7819 O   0  0  0  0  0  0  0  0  0  0  0  0
   -1.3856   -6.8042    4.5049 C   0  0  0  0  0  0  0  0  0  0  0  0
   -0.8859   -8.1467    4.3460 O   0  0  0  0  0  0  0  0  0  0  0  0
   -0.5360   -6.2442    0.1505 H   0  0  0  0  0  0  0  0  0  0  0  0
    0.5765   -7.5907    0.1998 H   0  0  0  0  0  0  0  0  0  0  0  0
    1.1585   -5.9725    0.6078 H   0  0  0  0  0  0  0  0  0  0  0  0
    1.7858   -6.8691    2.7537 H   0  0  0  0  0  0  0  0  0  0  0  0
    2.2235  -10.4858    2.5261 H   0  0  0  0  0  0  0  0  0  0  0  0
    0.5841  -10.1883    4.2959 H   0  0  0  0  0  0  0  0  0  0  0  0
    1.7647  -11.1016    5.8964 H   0  0  0  0  0  0  0  0  0  0  0  0
    1.0431   -8.5775    6.1052 H   0  0  0  0  0  0  0  0  0  0  0  0
    3.6133   -5.8090    6.1611 H   0  0  0  0  0  0  0  0  0  0  0  0
    2.0054   -6.2483    6.7012 H   0  0  0  0  0  0  0  0  0  0  0  0
    2.2364   -5.6534    5.0771 H   0  0  0  0  0  0  0  0  0  0  0  0
    4.4473   -7.8524    6.9316 H   0  0  0  0  0  0  0  0  0  0  0  0
    3.9416   -9.4069    6.3531 H   0  0  0  0  0  0  0  0  0  0  0  0
    2.8939   -8.5052    7.4262 H   0  0  0  0  0  0  0  0  0  0  0  0
    4.7904   -8.2313    4.6191 H   0  0  0  0  0  0  0  0  0  0  0  0
    5.2618   -6.2013    4.4890 H   0  0  0  0  0  0  0  0  0  0  0  0
    2.9499   -5.2951    2.8692 H   0  0  0  0  0  0  0  0  0  0  0  0
    4.9736   -3.9974    4.2753 H   0  0  0  0  0  0  0  0  0  0  0  0
    4.5812   -5.2489   -0.0164 H   0  0  0  0  0  0  0  0  0  0  0  0
    4.3267   -2.9577    0.6458 H   0  0  0  0  0  0  0  0  0  0  0  0
    6.1353   -2.7745    2.8040 H   0  0  0  0  0  0  0  0  0  0  0  0
    6.0862   -2.6432   -1.3327 H   0  0  0  0  0  0  0  0  0  0  0  0
    7.7764   -3.1059   -1.0646 H   0  0  0  0  0  0  0  0  0  0  0  0
    7.0400   -1.7829   -0.1392 H   0  0  0  0  0  0  0  0  0  0  0  0
    7.7887   -5.3689    0.4703 H   0  0  0  0  0  0  0  0  0  0  0  0
    6.6035   -4.8589    2.9021 H   0  0  0  0  0  0  0  0  0  0  0  0
    7.7514   -7.4259    2.7167 H   0  0  0  0  0  0  0  0  0  0  0  0
    5.5482   -7.4386    0.5114 H   0  0  0  0  0  0  0  0  0  0  0  0
    6.7271   -9.6626    2.2143 H   0  0  0  0  0  0  0  0  0  0  0  0
    7.5977   -8.6205    1.0918 H   0  0  0  0  0  0  0  0  0  0  0  0
    6.3754   -9.7087    0.4961 H   0  0  0  0  0  0  0  0  0  0  0  0
    3.4347   -7.6677    1.3719 H   0  0  0  0  0  0  0  0  0  0  0  0
    4.1689  -10.3117    0.8860 H   0  0  0  0  0  0  0  0  0  0  0  0
    4.0637  -10.4767    4.1237 H   0  0  0  0  0  0  0  0  0  0  0  0
   -2.0655   -6.6657    5.3361 H   0  0  0  0  0  0  0  0  0  0  0  0
   -1.8179   -6.3905    3.5863 H   0  0  0  0  0  0  0  0  0  0  0  0
  1  2  1  0
  1 36  1  0
  1 37  1  0
  1 38  1  0
  2  3  1  0
  3 32  1  0
  3  4  1  0
  3 39  1  1
  4  5  1  0
  5 30  1  0
  5  6  1  0
  5 40  1  6
  6  7  1  0
  6  8  1  0
  6 41  1  6
  7 42  1  0
  8  9  1  0
  8 32  1  0
  8 43  1  1
  9 10  1  0
  9 11  1  0
  9 12  1  0
 10 44  1  0
 10 45  1  0
 10 46  1  0
 11 47  1  0
 11 48  1  0
 11 49  1  0
 12 30  1  0
 12 13  1  0
 12 50  1  1
 13 24  1  0
 13 14  1  0
 13 51  1  1
 14 15  1  0
 14 16  1  0
 14 52  1  6
 15 53  1  0
 16 23  1  0
 16 17  1  6
 16 18  1  0
 17 54  1  0
 18 19  1  0
 18 20  1  0
 18 55  1  6
 19 56  1  0
 20 21  1  0
 20 22  2  0
 21 57  1  0
 21 58  1  0
 21 59  1  0
 22 23  1  0
 22 60  1  0
 23 24  1  0
 23 61  1  1
 24 25  1  1
 24 26  1  0
 25 62  1  0
 26 27  1  0
 26 28  1  0
 26 63  1  6
 27 64  1  0
 27 65  1  0
 27 66  1  0
 28 29  1  0
 28 30  1  0
 28 67  1  6
 29 68  1  0
 30 31  1  1
 31 69  1  0
 32 35  1  0
 32 33  1  0
 33 34  1  0
 34 35  1  0
 34 70  1  0
 34 71  1  0
M  END
>  <i_m_ct_stereo_status>  (173) 
1

>  <s_m_source_file>  (173) 
/var/tmp/pbs.5076255.sched01/tmp2obefojl/44ql_32cm2.sdf

>  <i_m_source_file_index>  (173) 
28

>  <i_lp_mmshare_version>  (173) 
48012

>  <i_f3d_flags>  (173) 
0

>  <s_epik_input>  (173) 
TzFbQ0gyXU9DMTJbQ0BIXTNbQ0BIXShbT0hdKVtDQEBIXShPW0NASF0yT1tDSDNdKVtDQF00KFtPSF0pW0NASF0oQzMoW0NIM10pW0NIM10pW0NASF01W0NAQF0oW09IXSkoW0NAQEhdKFtDSDNdKVtDQEhdNFtPSF0pW0NAQEhdNltDQEBdKFtPSF0pKFtDQEBIXTVbT0hdKVtDQEBIXShbT0hdKUMoW0NIM10pPVtDSF02

>  <s_epik_cmdline>  (173) 
J2VwaWtfcHl0aG9uJywgJy1waHQnLCAnMi4wJywgJy1waCcsICc3LjAnLCAnLXRuJywgJzgnLCAnLW1hJywgJzIwMCcsICctaW1hZScsICc8aW5maWxlLm1hZT4nLCAnLW9tYWUnLCAnPG91dGZpbGUubWFlPic=

>  <r_lp_tautomer_probability>  (173) 
1

>  <r_epik_Ionization_Penalty>  (173) 
8.34372e-07

>  <r_epik_Ionization_Penalty_Charging>  (173) 
0

>  <r_epik_Ionization_Penalty_Neutral>  (173) 
8.34372e-07

>  <r_epik_State_Penalty>  (173) 
-0

>  <r_epik_Charging_Adjusted_Penalty>  (173) 
0

>  <i_epik_Tot_Q>  (173) 
0

>  <i_epik_Tot_abs_Q>  (173) 
0

>  <s_epik_Chemistry_Notes>  (173) 
This compound contains an acetal/aminal-like group ( X-CH(R)-Y where X, Y are N, S, or O) that may be acid/base labile, releasing an aldehyde.

>  <s_lp_Force_Field>  (173) 
OPLS3e

>  <r_lp_Energy>  (173) 
112.855

>  <b_lp_Chiralities_Consistent>  (173) 
1

>  <s_lp_Variant>  (173) 
42:0-1

>  <s_i_glide_gridfile>  (173) 
pfpi4k_grid

>  <i_i_glide_lignum>  (173) 
28

>  <i_i_glide_rotatable_bonds>  (173) 
8

>  <r_i_docking_score>  (173) 
-2.88079

>  <r_i_glide_ligand_efficiency>  (173) 
-0.0823082

>  <r_i_glide_ligand_efficiency_sa>  (173) 
-0.269236

>  <r_i_glide_ligand_efficiency_ln>  (173) 
-0.632397

>  <r_i_glide_gscore>  (173) 
-2.88079

>  <r_i_glide_lipo>  (173) 
-0.503502

>  <r_i_glide_hbond>  (173) 
-0.0835756

>  <r_i_glide_metal>  (173) 
-0

>  <r_i_glide_rewards>  (173) 
-0.5

>  <r_i_glide_evdw>  (173) 
-25.1672

>  <r_i_glide_ecoul>  (173) 
-2.94241

>  <r_i_glide_erotb>  (173) 
0

>  <r_i_glide_esite>  (173) 
-0.0939884

>  <r_i_glide_emodel>  (173) 
-37.4086

>  <r_i_glide_energy>  (173) 
-28.1096

>  <r_i_glide_einternal>  (173) 
0.839364

>  <r_i_glide_intrahb_reward>  (173) 
-0.5

>  <i_i_glide_confnum>  (173) 
1

>  <i_i_glide_posenum>  (173) 
6

>  <r_i_glide_eff_state_penalty>  (173) 
0

>  <ligand_id>  (173) 
42

>  <original_smiles>  (173) 
COC1OC2C(O)C(C(C)(C)C3C4C(O)C5(O)C(O)C(C)=CC5C4(O)C(C)C(O)C23O)C12OCO2

>  <smiles>  (173) 
[H]OC1([H])C(C([H])([H])[H])=C([H])C2([H])C1(O[H])C([H])(O[H])C1([H])C3([H])C(O[H])(C4([H])OC([H])(OC([H])([H])[H])C5(OC([H])([H])O5)C([H])(C4([H])O[H])C3(C([H])([H])[H])C([H])([H])[H])C([H])(O[H])C([H])(C([H])([H])[H])C21O[H]

$$$$
43:0:0
     RDKit          3D

 57 63  0  0  1  0  0  0  0  0999 V2000
   -0.2190  -10.2106    2.5285 C   0  0  0  0  0  0  0  0  0  0  0  0
    0.1903   -8.7457    2.6664 C   0  0  0  0  0  0  0  0  0  0  0  0
    1.4048   -8.3320    2.2051 C   0  0  0  0  0  0  0  0  0  0  0  0
    2.6265   -8.9001    2.8963 C   0  0  0  0  0  0  0  0  0  0  0  0
    2.5111   -8.9277    4.4424 C   0  0  2  0  0  0  0  0  0  0  0  0
    2.1821  -10.3324    4.9730 C   0  0  0  0  0  0  0  0  0  0  0  0
    1.5951   -7.8198    5.0838 C   0  0  0  0  0  0  0  0  0  0  0  0
    0.3432   -7.3797    4.7937 C   0  0  0  0  0  0  0  0  0  0  0  0
   -0.1260   -6.0357    5.3381 C   0  0  0  0  0  0  0  0  0  0  0  0
   -0.5470   -7.9660    3.7154 C   0  0  1  0  0  0  0  0  0  0  0  0
   -1.9248   -7.3938    3.4363 C   0  0  0  0  0  0  0  0  0  0  0  0
   -1.7494   -8.5788    4.2049 O   0  0  0  0  0  0  0  0  0  0  0  0
    2.7520   -6.8553    5.2302 C   0  0  1  0  0  0  0  0  0  0  0  0
    3.5061   -6.0840    6.2582 C   0  0  0  0  0  0  0  0  0  0  0  0
    4.7790   -6.1750    5.3347 C   0  0  1  0  0  0  0  0  0  0  0  0
    4.9660   -7.7062    5.0851 C   0  0  0  0  0  0  0  0  0  0  0  0
    3.5387   -8.1492    5.2740 C   0  0  2  0  0  0  0  0  0  0  0  0
    4.1720   -5.4941    4.0692 C   0  0  2  0  0  0  0  0  0  0  0  0
    2.8672   -6.0439    4.0911 O   0  0  0  0  0  0  0  0  0  0  0  0
    4.6455   -5.8204    2.6427 C   0  0  1  0  0  0  0  0  0  0  0  0
    3.5571   -5.4359    1.6406 C   0  0  2  0  0  0  0  0  0  0  0  0
    2.8489   -6.5651    0.8950 C   0  0  0  0  0  0  0  0  0  0  0  0
    1.5441   -6.9775    1.6160 C   0  0  0  0  0  0  0  0  0  0  0  0
    0.6099   -6.1830    1.5915 O   0  0  0  0  0  0  0  0  0  0  0  0
    4.9545   -4.9117    1.4586 C   0  0  0  0  0  0  0  0  0  0  0  0
    5.2549   -3.4436    1.6976 C   0  0  0  0  0  0  0  0  0  0  0  0
    5.7802   -5.4370    0.2994 C   0  0  0  0  0  0  0  0  0  0  0  0
   -1.0251  -10.2977    1.7964 H   0  0  0  0  0  0  0  0  0  0  0  0
   -0.5760  -10.6459    3.4629 H   0  0  0  0  0  0  0  0  0  0  0  0
    0.6031  -10.8187    2.1536 H   0  0  0  0  0  0  0  0  0  0  0  0
    2.8223   -9.8997    2.5137 H   0  0  0  0  0  0  0  0  0  0  0  0
    3.5153   -8.3366    2.6347 H   0  0  0  0  0  0  0  0  0  0  0  0
    3.0128  -11.0147    4.7981 H   0  0  0  0  0  0  0  0  0  0  0  0
    1.3172  -10.7758    4.5015 H   0  0  0  0  0  0  0  0  0  0  0  0
    1.9787  -10.3391    6.0447 H   0  0  0  0  0  0  0  0  0  0  0  0
   -1.0289   -6.1700    5.9389 H   0  0  0  0  0  0  0  0  0  0  0  0
   -0.3312   -5.3231    4.5337 H   0  0  0  0  0  0  0  0  0  0  0  0
    0.6194   -5.5827    5.9973 H   0  0  0  0  0  0  0  0  0  0  0  0
   -2.3368   -6.5926    4.0292 H   0  0  0  0  0  0  0  0  0  0  0  0
   -2.3654   -7.5484    2.4591 H   0  0  0  0  0  0  0  0  0  0  0  0
    3.1183   -5.0742    6.3906 H   0  0  0  0  0  0  0  0  0  0  0  0
    3.6079   -6.5736    7.2253 H   0  0  0  0  0  0  0  0  0  0  0  0
    5.6644   -5.6681    5.7242 H   0  0  0  0  0  0  0  0  0  0  0  0
    5.3970   -7.9881    4.1309 H   0  0  0  0  0  0  0  0  0  0  0  0
    5.6086   -8.1344    5.8554 H   0  0  0  0  0  0  0  0  0  0  0  0
    3.4816   -8.5833    6.2767 H   0  0  0  0  0  0  0  0  0  0  0  0
    4.1019   -4.4201    4.2060 H   0  0  0  0  0  0  0  0  0  0  0  0
    5.0823   -6.7954    2.5210 H   0  0  0  0  0  0  0  0  0  0  0  0
    2.8618   -4.6517    1.9230 H   0  0  0  0  0  0  0  0  0  0  0  0
    2.5892   -6.2079   -0.0972 H   0  0  0  0  0  0  0  0  0  0  0  0
    3.5116   -7.4142    0.7626 H   0  0  0  0  0  0  0  0  0  0  0  0
    5.0799   -2.8599    0.7929 H   0  0  0  0  0  0  0  0  0  0  0  0
    6.2923   -3.3193    2.0091 H   0  0  0  0  0  0  0  0  0  0  0  0
    4.6103   -3.0470    2.4831 H   0  0  0  0  0  0  0  0  0  0  0  0
    5.5377   -4.8996   -0.6185 H   0  0  0  0  0  0  0  0  0  0  0  0
    5.5599   -6.4914    0.1371 H   0  0  0  0  0  0  0  0  0  0  0  0
    6.8443   -5.3349    0.5071 H   0  0  0  0  0  0  0  0  0  0  0  0
  1  2  1  0
  1 28  1  0
  1 29  1  0
  1 30  1  0
  2 10  1  0
  2  3  2  0
  3 23  1  0
  3  4  1  0
  4  5  1  0
  4 31  1  0
  4 32  1  0
  5 17  1  0
  5  6  1  1
  5  7  1  0
  6 33  1  0
  6 34  1  0
  6 35  1  0
  7  8  2  0
  7 13  1  0
  8  9  1  0
  8 10  1  0
  9 36  1  0
  9 37  1  0
  9 38  1  0
 10 12  1  1
 10 11  1  0
 11 12  1  0
 11 39  1  0
 11 40  1  0
 13 17  1  0
 13 19  1  0
 13 14  1  1
 14 15  1  0
 14 41  1  0
 14 42  1  0
 15 16  1  0
 15 18  1  0
 15 43  1  1
 16 17  1  0
 16 44  1  0
 16 45  1  0
 17 46  1  1
 18 19  1  0
 18 20  1  0
 18 47  1  1
 20 25  1  0
 20 21  1  0
 20 48  1  1
 21 22  1  0
 21 25  1  0
 21 49  1  1
 22 23  1  0
 22 50  1  0
 22 51  1  0
 23 24  2  0
 25 26  1  0
 25 27  1  0
 26 52  1  0
 26 53  1  0
 26 54  1  0
 27 55  1  0
 27 56  1  0
 27 57  1  0
M  END
>  <i_m_ct_stereo_status>  (174) 
1

>  <s_m_source_file>  (174) 
/var/tmp/pbs.5076255.sched01/tmp2obefojl/44ql_32cm2.sdf

>  <i_m_source_file_index>  (174) 
29

>  <i_lp_mmshare_version>  (174) 
48012

>  <i_f3d_flags>  (174) 
0

>  <s_epik_input>  (174) 
TzFbQ0gyXVtDQF0xMkMoW0NIM10pPUMzW0NIMl1bQ0BdNChbQ0gzXSlDKD1DMltDSDNdKVtDQF01NltDQEBIXTRbQ0gyXVtDQEhdKFtDSDJdNSlbQ0BIXShPNilbQ0BIXTdbQ0BIXShbQ0gyXUMzPU8pQzcoW0NIM10pW0NIM10=

>  <s_epik_cmdline>  (174) 
J2VwaWtfcHl0aG9uJywgJy1waHQnLCAnMi4wJywgJy1waCcsICc3LjAnLCAnLXRuJywgJzgnLCAnLW1hJywgJzIwMCcsICctaW1hZScsICc8aW5maWxlLm1hZT4nLCAnLW9tYWUnLCAnPG91dGZpbGUubWFlPic=

>  <r_lp_tautomer_probability>  (174) 
1

>  <r_epik_Ionization_Penalty>  (174) 
3.64851e-12

>  <r_epik_Ionization_Penalty_Charging>  (174) 
0

>  <r_epik_Ionization_Penalty_Neutral>  (174) 
3.64851e-12

>  <r_epik_State_Penalty>  (174) 
-0

>  <r_epik_Charging_Adjusted_Penalty>  (174) 
0

>  <i_epik_Tot_Q>  (174) 
0

>  <i_epik_Tot_abs_Q>  (174) 
0

>  <s_lp_Force_Field>  (174) 
OPLS3e

>  <r_lp_Energy>  (174) 
151.972

>  <b_lp_Chiralities_Consistent>  (174) 
1

>  <s_lp_Variant>  (174) 
43:0-1

>  <s_i_glide_gridfile>  (174) 
pfpi4k_grid

>  <i_i_glide_lignum>  (174) 
29

>  <i_i_glide_rotatable_bonds>  (174) 
0

>  <r_i_docking_score>  (174) 
-2.68147

>  <r_i_glide_ligand_efficiency>  (174) 
-0.0993137

>  <r_i_glide_ligand_efficiency_sa>  (174) 
-0.297941

>  <r_i_glide_ligand_efficiency_ln>  (174) 
-0.624202

>  <r_i_glide_gscore>  (174) 
-2.68147

>  <r_i_glide_lipo>  (174) 
-0.30156

>  <r_i_glide_hbond>  (174) 
-0.161888

>  <r_i_glide_metal>  (174) 
-0

>  <r_i_glide_rewards>  (174) 
-0.910274

>  <r_i_glide_evdw>  (174) 
-19.4983

>  <r_i_glide_ecoul>  (174) 
-1.94802

>  <r_i_glide_erotb>  (174) 
0

>  <r_i_glide_esite>  (174) 
-0.0406278

>  <r_i_glide_emodel>  (174) 
-24.6609

>  <r_i_glide_energy>  (174) 
-21.4463

>  <r_i_glide_einternal>  (174) 
0

>  <r_i_glide_intrahb_reward>  (174) 
-0

>  <i_i_glide_confnum>  (174) 
1

>  <i_i_glide_posenum>  (174) 
1

>  <r_i_glide_eff_state_penalty>  (174) 
0

>  <ligand_id>  (174) 
43

>  <original_smiles>  (174) 
CC1=C2CC3(C)C(=C(C)C14CO4)C14CC(CC31)C(O4)C1C(CC2=O)C1(C)C

>  <smiles>  (174) 
[H]C([H])([H])C1=C2C(=O)C([H])([H])C3([H])C([H])(C4([H])OC56C(=C(C([H])([H])[H])C17OC7([H])[H])C(C([H])([H])[H])(C2([H])[H])C5([H])C([H])([H])C4([H])C6([H])[H])C3(C([H])([H])[H])C([H])([H])[H]

$$$$
43:0:1
     RDKit          3D

 57 63  0  0  1  0  0  0  0  0999 V2000
    1.0394  -10.0560    3.4107 C   0  0  0  0  0  0  0  0  0  0  0  0
    0.9610   -8.5404    3.2148 C   0  0  0  0  0  0  0  0  0  0  0  0
    1.8513   -7.9089    2.3901 C   0  0  0  0  0  0  0  0  0  0  0  0
    3.3042   -7.9406    2.8188 C   0  0  0  0  0  0  0  0  0  0  0  0
    3.5245   -7.6477    4.3248 C   0  0  2  0  0  0  0  0  0  0  0  0
    3.7813   -8.9271    5.1359 C   0  0  0  0  0  0  0  0  0  0  0  0
    2.4390   -6.7324    5.0046 C   0  0  0  0  0  0  0  0  0  0  0  0
    1.0794   -6.7369    4.9770 C   0  0  0  0  0  0  0  0  0  0  0  0
    0.3081   -5.5008    5.4179 C   0  0  0  0  0  0  0  0  0  0  0  0
    0.2292   -7.7775    4.2816 C   0  0  1  0  0  0  0  0  0  0  0  0
   -1.2904   -7.7106    4.2873 C   0  0  0  0  0  0  0  0  0  0  0  0
   -0.5706   -8.5602    5.1855 O   0  0  0  0  0  0  0  0  0  0  0  0
    3.2105   -5.4650    4.7010 C   0  0  1  0  0  0  0  0  0  0  0  0
    3.8610   -4.3036    5.3668 C   0  0  0  0  0  0  0  0  0  0  0  0
    4.8868   -4.2374    4.1727 C   0  0  1  0  0  0  0  0  0  0  0  0
    5.5137   -5.6671    4.1233 C   0  0  0  0  0  0  0  0  0  0  0  0
    4.3732   -6.4359    4.7332 C   0  0  2  0  0  0  0  0  0  0  0  0
    3.8500   -4.0648    3.0190 C   0  0  2  0  0  0  0  0  0  0  0  0
    2.8292   -4.9428    3.4573 O   0  0  0  0  0  0  0  0  0  0  0  0
    4.1171   -4.5559    1.5875 C   0  0  1  0  0  0  0  0  0  0  0  0
    2.7915   -4.7356    0.8531 C   0  0  2  0  0  0  0  0  0  0  0  0
    2.3595   -6.1528    0.5040 C   0  0  0  0  0  0  0  0  0  0  0  0
    1.4143   -6.7412    1.5767 C   0  0  0  0  0  0  0  0  0  0  0  0
    0.2833   -6.2780    1.6503 O   0  0  0  0  0  0  0  0  0  0  0  0
    3.8752   -3.8914    0.2371 C   0  0  0  0  0  0  0  0  0  0  0  0
    3.7115   -2.3860    0.1577 C   0  0  0  0  0  0  0  0  0  0  0  0
    4.5956   -4.4040   -0.9961 C   0  0  0  0  0  0  0  0  0  0  0  0
    0.1819  -10.5356    2.9319 H   0  0  0  0  0  0  0  0  0  0  0  0
    1.0344  -10.3610    4.4596 H   0  0  0  0  0  0  0  0  0  0  0  0
    1.9252  -10.4767    2.9323 H   0  0  0  0  0  0  0  0  0  0  0  0
    3.7418   -8.9019    2.5606 H   0  0  0  0  0  0  0  0  0  0  0  0
    3.8924   -7.2250    2.2543 H   0  0  0  0  0  0  0  0  0  0  0  0
    4.7386   -9.3672    4.8617 H   0  0  0  0  0  0  0  0  0  0  0  0
    3.0354   -9.6914    4.9757 H   0  0  0  0  0  0  0  0  0  0  0  0
    3.8045   -8.7437    6.2105 H   0  0  0  0  0  0  0  0  0  0  0  0
   -0.3664   -5.7532    6.2432 H   0  0  0  0  0  0  0  0  0  0  0  0
   -0.2723   -5.0761    4.5934 H   0  0  0  0  0  0  0  0  0  0  0  0
    0.9761   -4.7166    5.7881 H   0  0  0  0  0  0  0  0  0  0  0  0
   -1.8337   -6.9243    4.7936 H   0  0  0  0  0  0  0  0  0  0  0  0
   -1.8193   -8.2170    3.4864 H   0  0  0  0  0  0  0  0  0  0  0  0
    3.1972   -3.4427    5.4372 H   0  0  0  0  0  0  0  0  0  0  0  0
    4.3041   -4.5127    6.3384 H   0  0  0  0  0  0  0  0  0  0  0  0
    5.6113   -3.4231    4.2385 H   0  0  0  0  0  0  0  0  0  0  0  0
    5.8159   -6.0228    3.1450 H   0  0  0  0  0  0  0  0  0  0  0  0
    6.3980   -5.7097    4.7595 H   0  0  0  0  0  0  0  0  0  0  0  0
    4.6576   -6.6329    5.7721 H   0  0  0  0  0  0  0  0  0  0  0  0
    3.4589   -3.0539    2.9978 H   0  0  0  0  0  0  0  0  0  0  0  0
    4.8142   -5.3692    1.5072 H   0  0  0  0  0  0  0  0  0  0  0  0
    1.9527   -4.1364    1.1877 H   0  0  0  0  0  0  0  0  0  0  0  0
    1.8103   -6.1202   -0.4339 H   0  0  0  0  0  0  0  0  0  0  0  0
    3.2311   -6.7759    0.3446 H   0  0  0  0  0  0  0  0  0  0  0  0
    3.1761   -2.0984   -0.7485 H   0  0  0  0  0  0  0  0  0  0  0  0
    4.6888   -1.9031    0.1683 H   0  0  0  0  0  0  0  0  0  0  0  0
    3.1369   -2.0214    1.0106 H   0  0  0  0  0  0  0  0  0  0  0  0
    4.0168   -4.1766   -1.8917 H   0  0  0  0  0  0  0  0  0  0  0  0
    4.7074   -5.4875   -0.9394 H   0  0  0  0  0  0  0  0  0  0  0  0
    5.5832   -3.9578   -1.0867 H   0  0  0  0  0  0  0  0  0  0  0  0
  1  2  1  0
  1 28  1  0
  1 29  1  0
  1 30  1  0
  2 10  1  0
  2  3  2  0
  3 23  1  0
  3  4  1  0
  4  5  1  0
  4 31  1  0
  4 32  1  0
  5 17  1  0
  5  6  1  1
  5  7  1  0
  6 33  1  0
  6 34  1  0
  6 35  1  0
  7  8  2  0
  7 13  1  0
  8  9  1  0
  8 10  1  0
  9 36  1  0
  9 37  1  0
  9 38  1  0
 10 12  1  1
 10 11  1  0
 11 12  1  0
 11 39  1  0
 11 40  1  0
 13 17  1  0
 13 19  1  0
 13 14  1  1
 14 15  1  0
 14 41  1  0
 14 42  1  0
 15 16  1  0
 15 18  1  0
 15 43  1  1
 16 17  1  0
 16 44  1  0
 16 45  1  0
 17 46  1  1
 18 19  1  0
 18 20  1  0
 18 47  1  6
 20 25  1  0
 20 21  1  0
 20 48  1  1
 21 22  1  0
 21 25  1  0
 21 49  1  1
 22 23  1  0
 22 50  1  0
 22 51  1  0
 23 24  2  0
 25 26  1  0
 25 27  1  0
 26 52  1  0
 26 53  1  0
 26 54  1  0
 27 55  1  0
 27 56  1  0
 27 57  1  0
M  END
>  <i_m_ct_stereo_status>  (175) 
1

>  <s_m_source_file>  (175) 
/var/tmp/pbs.5076255.sched01/tmp2obefojl/44ql_32cm2.sdf

>  <i_m_source_file_index>  (175) 
29

>  <i_lp_mmshare_version>  (175) 
48012

>  <i_f3d_flags>  (175) 
0

>  <s_epik_input>  (175) 
TzFbQ0gyXVtDQF0xMkMoW0NIM10pPUMzW0NIMl1bQ0BdNChbQ0gzXSlDKD1DMltDSDNdKVtDQF01NltDQEBIXTRbQ0gyXVtDQEhdKFtDSDJdNSlbQ0BIXShPNilbQ0BIXTdbQ0BIXShbQ0gyXUMzPU8pQzcoW0NIM10pW0NIM10=

>  <s_epik_cmdline>  (175) 
J2VwaWtfcHl0aG9uJywgJy1waHQnLCAnMi4wJywgJy1waCcsICc3LjAnLCAnLXRuJywgJzgnLCAnLW1hJywgJzIwMCcsICctaW1hZScsICc8aW5maWxlLm1hZT4nLCAnLW9tYWUnLCAnPG91dGZpbGUubWFlPic=

>  <r_lp_tautomer_probability>  (175) 
1

>  <r_epik_Ionization_Penalty>  (175) 
3.64851e-12

>  <r_epik_Ionization_Penalty_Charging>  (175) 
0

>  <r_epik_Ionization_Penalty_Neutral>  (175) 
3.64851e-12

>  <r_epik_State_Penalty>  (175) 
-0

>  <r_epik_Charging_Adjusted_Penalty>  (175) 
0

>  <i_epik_Tot_Q>  (175) 
0

>  <i_epik_Tot_abs_Q>  (175) 
0

>  <s_lp_Force_Field>  (175) 
OPLS3e

>  <r_lp_Energy>  (175) 
151.972

>  <b_lp_Chiralities_Consistent>  (175) 
1

>  <s_lp_Variant>  (175) 
43:0-1

>  <s_i_glide_gridfile>  (175) 
pfpi4k_grid

>  <i_i_glide_lignum>  (175) 
29

>  <i_i_glide_rotatable_bonds>  (175) 
0

>  <r_i_docking_score>  (175) 
-2.57233

>  <r_i_glide_ligand_efficiency>  (175) 
-0.0952713

>  <r_i_glide_ligand_efficiency_sa>  (175) 
-0.285814

>  <r_i_glide_ligand_efficiency_ln>  (175) 
-0.598795

>  <r_i_glide_gscore>  (175) 
-2.57233

>  <r_i_glide_lipo>  (175) 
-0.0878671

>  <r_i_glide_hbond>  (175) 
-0.241629

>  <r_i_glide_metal>  (175) 
-0

>  <r_i_glide_rewards>  (175) 
-0.910274

>  <r_i_glide_evdw>  (175) 
-18.6337

>  <r_i_glide_ecoul>  (175) 
-2.33182

>  <r_i_glide_erotb>  (175) 
0

>  <r_i_glide_esite>  (175) 
-0.051099

>  <r_i_glide_emodel>  (175) 
-24.0357

>  <r_i_glide_energy>  (175) 
-20.9655

>  <r_i_glide_einternal>  (175) 
0

>  <r_i_glide_intrahb_reward>  (175) 
-0

>  <i_i_glide_confnum>  (175) 
1

>  <i_i_glide_posenum>  (175) 
18

>  <r_i_glide_eff_state_penalty>  (175) 
0

>  <ligand_id>  (175) 
43

>  <original_smiles>  (175) 
CC1=C2CC3(C)C(=C(C)C14CO4)C14CC(CC31)C(O4)C1C(CC2=O)C1(C)C

>  <smiles>  (175) 
[H]C([H])([H])C1=C2C(=O)C([H])([H])C3([H])C([H])(C4([H])OC56C(=C(C([H])([H])[H])C17OC7([H])[H])C(C([H])([H])[H])(C2([H])[H])C5([H])C([H])([H])C4([H])C6([H])[H])C3(C([H])([H])[H])C([H])([H])[H]

$$$$
43:0:2
     RDKit          3D

 57 63  0  0  1  0  0  0  0  0999 V2000
    0.0062    1.0819    2.3050 C   0  0  0  0  0  0  0  0  0  0  0  0
   -0.1498    0.7448    3.7911 C   0  0  0  0  0  0  0  0  0  0  0  0
   -0.6870    1.6691    4.6467 C   0  0  0  0  0  0  0  0  0  0  0  0
    0.1042    2.9495    4.8356 C   0  0  0  0  0  0  0  0  0  0  0  0
    1.6270    2.7313    5.0301 C   0  0  2  0  0  0  0  0  0  0  0  0
    2.4241    3.0330    3.7510 C   0  0  0  0  0  0  0  0  0  0  0  0
    2.0386    1.3563    5.6718 C   0  0  0  0  0  0  0  0  0  0  0  0
    1.6669    0.0722    5.4195 C   0  0  0  0  0  0  0  0  0  0  0  0
    1.9379   -1.0100    6.4590 C   0  0  0  0  0  0  0  0  0  0  0  0
    0.7355   -0.3563    4.3018 C   0  0  1  0  0  0  0  0  0  0  0  0
    0.3644   -1.8162    4.1201 C   0  0  0  0  0  0  0  0  0  0  0  0
    1.3454   -1.1839    3.2894 O   0  0  0  0  0  0  0  0  0  0  0  0
    1.9919    1.9179    7.0783 C   0  0  1  0  0  0  0  0  0  0  0  0
    2.8455    2.1400    8.2786 C   0  0  0  0  0  0  0  0  0  0  0  0
    1.9594    3.3944    8.6324 C   0  0  1  0  0  0  0  0  0  0  0  0
    2.0173    4.2833    7.3487 C   0  0  0  0  0  0  0  0  0  0  0  0
    2.2872    3.2039    6.3335 C   0  0  2  0  0  0  0  0  0  0  0  0
    0.5844    2.6619    8.7183 C   0  0  2  0  0  0  0  0  0  0  0  0
    0.7124    1.7624    7.6326 O   0  0  0  0  0  0  0  0  0  0  0  0
   -0.7494    3.3619    8.4068 C   0  0  1  0  0  0  0  0  0  0  0  0
   -1.8098    2.3228    8.0511 C   0  0  2  0  0  0  0  0  0  0  0  0
   -2.3155    2.2827    6.6138 C   0  0  0  0  0  0  0  0  0  0  0  0
   -1.5335    1.2323    5.7928 C   0  0  0  0  0  0  0  0  0  0  0  0
   -1.7110    0.0519    6.0837 O   0  0  0  0  0  0  0  0  0  0  0  0
   -2.0913    3.3299    9.1284 C   0  0  0  0  0  0  0  0  0  0  0  0
   -2.1502    2.8968   10.5773 C   0  0  0  0  0  0  0  0  0  0  0  0
   -3.1250    4.4059    8.8620 C   0  0  0  0  0  0  0  0  0  0  0  0
   -0.6982    0.4956    1.7121 H   0  0  0  0  0  0  0  0  0  0  0  0
    1.0042    0.8753    1.9125 H   0  0  0  0  0  0  0  0  0  0  0  0
   -0.2328    2.1250    2.0947 H   0  0  0  0  0  0  0  0  0  0  0  0
   -0.0692    3.6190    3.9964 H   0  0  0  0  0  0  0  0  0  0  0  0
   -0.2596    3.5036    5.6932 H   0  0  0  0  0  0  0  0  0  0  0  0
    2.3866    4.0955    3.5223 H   0  0  0  0  0  0  0  0  0  0  0  0
    2.0478    2.5197    2.8776 H   0  0  0  0  0  0  0  0  0  0  0  0
    3.4753    2.7579    3.8406 H   0  0  0  0  0  0  0  0  0  0  0  0
    2.5572   -1.8035    6.0283 H   0  0  0  0  0  0  0  0  0  0  0  0
    1.0124   -1.4532    6.8406 H   0  0  0  0  0  0  0  0  0  0  0  0
    2.4914   -0.6230    7.3186 H   0  0  0  0  0  0  0  0  0  0  0  0
    0.7620   -2.5987    4.7465 H   0  0  0  0  0  0  0  0  0  0  0  0
   -0.5985   -2.0293    3.6797 H   0  0  0  0  0  0  0  0  0  0  0  0
    2.7731    1.3213    8.9935 H   0  0  0  0  0  0  0  0  0  0  0  0
    3.8902    2.3640    8.0728 H   0  0  0  0  0  0  0  0  0  0  0  0
    2.2422    3.9086    9.5544 H   0  0  0  0  0  0  0  0  0  0  0  0
    1.1378    4.8798    7.1368 H   0  0  0  0  0  0  0  0  0  0  0  0
    2.8569    4.9759    7.4149 H   0  0  0  0  0  0  0  0  0  0  0  0
    3.3551    3.2622    6.1009 H   0  0  0  0  0  0  0  0  0  0  0  0
    0.5022    2.0984    9.6418 H   0  0  0  0  0  0  0  0  0  0  0  0
   -0.6777    4.2041    7.7445 H   0  0  0  0  0  0  0  0  0  0  0  0
   -1.6880    1.3257    8.4580 H   0  0  0  0  0  0  0  0  0  0  0  0
   -3.3654    1.9973    6.6340 H   0  0  0  0  0  0  0  0  0  0  0  0
   -2.2735    3.2651    6.1583 H   0  0  0  0  0  0  0  0  0  0  0  0
   -3.1531    2.5572   10.8358 H   0  0  0  0  0  0  0  0  0  0  0  0
   -1.8746    3.7250   11.2310 H   0  0  0  0  0  0  0  0  0  0  0  0
   -1.4609    2.0725   10.7655 H   0  0  0  0  0  0  0  0  0  0  0  0
   -4.1324    4.0314    9.0501 H   0  0  0  0  0  0  0  0  0  0  0  0
   -3.0647    4.7097    7.8201 H   0  0  0  0  0  0  0  0  0  0  0  0
   -2.9443    5.2792    9.4856 H   0  0  0  0  0  0  0  0  0  0  0  0
  1  2  1  0
  1 28  1  0
  1 29  1  0
  1 30  1  0
  2 10  1  0
  2  3  2  0
  3 23  1  0
  3  4  1  0
  4  5  1  0
  4 31  1  0
  4 32  1  0
  5 17  1  0
  5  6  1  6
  5  7  1  0
  6 33  1  0
  6 34  1  0
  6 35  1  0
  7  8  2  0
  7 13  1  0
  8  9  1  0
  8 10  1  0
  9 36  1  0
  9 37  1  0
  9 38  1  0
 10 12  1  6
 10 11  1  0
 11 12  1  0
 11 39  1  0
 11 40  1  0
 13 17  1  0
 13 19  1  0
 13 14  1  1
 14 15  1  0
 14 41  1  0
 14 42  1  0
 15 16  1  0
 15 18  1  0
 15 43  1  1
 16 17  1  0
 16 44  1  0
 16 45  1  0
 17 46  1  6
 18 19  1  0
 18 20  1  0
 18 47  1  1
 20 25  1  0
 20 21  1  0
 20 48  1  6
 21 22  1  0
 21 25  1  0
 21 49  1  1
 22 23  1  0
 22 50  1  0
 22 51  1  0
 23 24  2  0
 25 26  1  0
 25 27  1  0
 26 52  1  0
 26 53  1  0
 26 54  1  0
 27 55  1  0
 27 56  1  0
 27 57  1  0
M  END
>  <i_m_ct_stereo_status>  (176) 
1

>  <s_m_source_file>  (176) 
/var/tmp/pbs.5076255.sched01/tmp2obefojl/44ql_32cm2.sdf

>  <i_m_source_file_index>  (176) 
29

>  <i_lp_mmshare_version>  (176) 
48012

>  <i_f3d_flags>  (176) 
0

>  <s_epik_input>  (176) 
TzFbQ0gyXVtDQF0xMkMoW0NIM10pPUMzW0NIMl1bQ0BdNChbQ0gzXSlDKD1DMltDSDNdKVtDQF01NltDQEBIXTRbQ0gyXVtDQEhdKFtDSDJdNSlbQ0BIXShPNilbQ0BIXTdbQ0BIXShbQ0gyXUMzPU8pQzcoW0NIM10pW0NIM10=

>  <s_epik_cmdline>  (176) 
J2VwaWtfcHl0aG9uJywgJy1waHQnLCAnMi4wJywgJy1waCcsICc3LjAnLCAnLXRuJywgJzgnLCAnLW1hJywgJzIwMCcsICctaW1hZScsICc8aW5maWxlLm1hZT4nLCAnLW9tYWUnLCAnPG91dGZpbGUubWFlPic=

>  <r_lp_tautomer_probability>  (176) 
1

>  <r_epik_Ionization_Penalty>  (176) 
3.64851e-12

>  <r_epik_Ionization_Penalty_Charging>  (176) 
0

>  <r_epik_Ionization_Penalty_Neutral>  (176) 
3.64851e-12

>  <r_epik_State_Penalty>  (176) 
-0

>  <r_epik_Charging_Adjusted_Penalty>  (176) 
0

>  <i_epik_Tot_Q>  (176) 
0

>  <i_epik_Tot_abs_Q>  (176) 
0

>  <s_lp_Force_Field>  (176) 
OPLS3e

>  <r_lp_Energy>  (176) 
151.972

>  <b_lp_Chiralities_Consistent>  (176) 
1

>  <s_lp_Variant>  (176) 
43:0-1

>  <s_i_glide_gridfile>  (176) 
pfpi4k_grid

>  <i_i_glide_lignum>  (176) 
29

>  <i_i_glide_rotatable_bonds>  (176) 
0

>  <r_i_docking_score>  (176) 
-2.46467

>  <r_i_glide_ligand_efficiency>  (176) 
-0.091284

>  <r_i_glide_ligand_efficiency_sa>  (176) 
-0.273852

>  <r_i_glide_ligand_efficiency_ln>  (176) 
-0.573734

>  <r_i_glide_gscore>  (176) 
-2.46467

>  <r_i_glide_lipo>  (176) 
-0.13264

>  <r_i_glide_hbond>  (176) 
-0.151711

>  <r_i_glide_metal>  (176) 
-0

>  <r_i_glide_rewards>  (176) 
-0.910274

>  <r_i_glide_evdw>  (176) 
-18.0456

>  <r_i_glide_ecoul>  (176) 
-2.23254

>  <r_i_glide_erotb>  (176) 
0

>  <r_i_glide_esite>  (176) 
-0.0328794

>  <r_i_glide_emodel>  (176) 
-23.1156

>  <r_i_glide_energy>  (176) 
-20.2782

>  <r_i_glide_einternal>  (176) 
0

>  <r_i_glide_intrahb_reward>  (176) 
-0

>  <i_i_glide_confnum>  (176) 
1

>  <i_i_glide_posenum>  (176) 
11

>  <r_i_glide_eff_state_penalty>  (176) 
0

>  <ligand_id>  (176) 
43

>  <original_smiles>  (176) 
CC1=C2CC3(C)C(=C(C)C14CO4)C14CC(CC31)C(O4)C1C(CC2=O)C1(C)C

>  <smiles>  (176) 
[H]C([H])([H])C1=C2C(=O)C([H])([H])C3([H])C([H])(C4([H])OC56C(=C(C([H])([H])[H])C17OC7([H])[H])C(C([H])([H])[H])(C2([H])[H])C5([H])C([H])([H])C4([H])C6([H])[H])C3(C([H])([H])[H])C([H])([H])[H]

$$$$
45:0:0
     RDKit          3D

 64 69  0  0  1  0  0  0  0  0999 V2000
   -3.6467    2.9437    3.3223 C   0  0  0  0  0  0  0  0  0  0  0  0
   -2.3997    3.6563    3.8256 C   0  0  2  0  0  0  0  0  0  0  0  0
   -1.0380    3.1458    3.4636 C   0  0  0  0  0  0  0  0  0  0  0  0
   -0.9748    1.9561    2.7396 C   0  0  0  0  0  0  0  0  0  0  0  0
   -0.1360    0.7605    3.1117 C   0  0  2  0  0  0  0  0  0  0  0  0
    1.0987   -0.0784    2.4828 C   0  0  0  0  0  0  0  0  0  0  0  0
    2.1335    0.1410    3.6452 C   0  0  1  0  0  0  0  0  0  0  0  0
    3.5031   -0.3018    4.2028 C   0  0  0  0  0  0  0  0  0  0  0  0
    4.0331    0.8215    5.2436 C   0  0  0  0  0  0  0  0  0  0  0  0
    3.0042    1.7228    6.0690 C   0  0  0  0  0  0  0  0  0  0  0  0
    2.8128    1.3366    7.2194 O   0  0  0  0  0  0  0  0  0  0  0  0
    2.2518    2.7333    5.4939 N   0  0  0  0  0  0  0  0  0  0  0  0
    2.9572    3.3911    4.4005 C   0  0  0  0  0  0  0  0  0  0  0  0
    2.5804    2.7192    3.0714 C   0  0  0  0  0  0  0  0  0  0  0  0
    2.8280    1.3098    3.0763 O   0  0  0  0  0  0  0  0  0  0  0  0
    0.7493    3.1273    5.7348 C   0  0  2  0  0  0  0  0  0  0  0  0
    0.6669    3.9153    7.1472 C   0  0  0  0  0  0  0  0  0  0  0  0
    1.3089    5.3158    7.1404 C   0  0  0  0  0  0  0  0  0  0  0  0
    1.1298    3.2222    8.4489 C   0  0  0  0  0  0  0  0  0  0  0  0
   -0.2082    1.8443    5.7775 C   0  0  1  0  0  0  0  0  0  0  0  0
   -1.7266    2.2331    5.9819 C   0  0  0  0  0  0  0  0  0  0  0  0
   -2.2031    3.6003    5.3430 C   0  0  1  0  0  0  0  0  0  0  0  0
   -1.1010    4.4787    5.3643 O   0  0  0  0  0  0  0  0  0  0  0  0
   -0.1065    3.8965    4.5223 C   0  0  2  0  0  0  0  0  0  0  0  0
    0.4426    5.2035    3.8363 C   0  0  0  0  0  0  0  0  0  0  0  0
   -0.4434    5.7555    2.8816 O   0  0  0  0  0  0  0  0  0  0  0  0
    0.0960    0.7987    4.6283 C   0  0  1  0  0  0  0  0  0  0  0  0
    1.1578   -0.1983    4.8464 C   0  0  1  0  0  0  0  0  0  0  0  0
    0.5786   -1.6325    4.9058 C   0  0  0  0  0  0  0  0  0  0  0  0
   -3.7471    2.9478    2.2309 H   0  0  0  0  0  0  0  0  0  0  0  0
   -4.5591    3.3448    3.7439 H   0  0  0  0  0  0  0  0  0  0  0  0
   -3.5237    1.9515    3.6806 H   0  0  0  0  0  0  0  0  0  0  0  0
   -2.5117    4.6899    3.5112 H   0  0  0  0  0  0  0  0  0  0  0  0
   -1.8181    1.6654    2.1449 H   0  0  0  0  0  0  0  0  0  0  0  0
    0.4115    1.4784    2.5183 H   0  0  0  0  0  0  0  0  0  0  0  0
    0.8292   -1.1277    2.3724 H   0  0  0  0  0  0  0  0  0  0  0  0
    1.4492    0.2412    1.4975 H   0  0  0  0  0  0  0  0  0  0  0  0
    3.4528   -1.2730    4.6995 H   0  0  0  0  0  0  0  0  0  0  0  0
    4.2391   -0.4151    3.4043 H   0  0  0  0  0  0  0  0  0  0  0  0
    4.6405    0.3131    5.9886 H   0  0  0  0  0  0  0  0  0  0  0  0
    4.7659    1.4443    4.7326 H   0  0  0  0  0  0  0  0  0  0  0  0
    2.8343    4.4697    4.4635 H   0  0  0  0  0  0  0  0  0  0  0  0
    4.0432    3.3549    4.5074 H   0  0  0  0  0  0  0  0  0  0  0  0
    1.6239    3.0200    2.6738 H   0  0  0  0  0  0  0  0  0  0  0  0
    3.2596    3.1255    2.3276 H   0  0  0  0  0  0  0  0  0  0  0  0
   -0.3742    4.0801    7.4235 H   0  0  0  0  0  0  0  0  0  0  0  0
    2.2889    5.3184    6.6672 H   0  0  0  0  0  0  0  0  0  0  0  0
    1.4386    5.6971    8.1534 H   0  0  0  0  0  0  0  0  0  0  0  0
    0.6683    6.0485    6.6574 H   0  0  0  0  0  0  0  0  0  0  0  0
    2.2109    3.2671    8.5726 H   0  0  0  0  0  0  0  0  0  0  0  0
    0.7983    2.1895    8.5335 H   0  0  0  0  0  0  0  0  0  0  0  0
    0.7209    3.7369    9.3223 H   0  0  0  0  0  0  0  0  0  0  0  0
    0.0338    1.2871    6.6730 H   0  0  0  0  0  0  0  0  0  0  0  0
   -2.3609    1.4205    5.6357 H   0  0  0  0  0  0  0  0  0  0  0  0
   -1.9059    2.3101    7.0592 H   0  0  0  0  0  0  0  0  0  0  0  0
   -3.0634    3.9984    5.8805 H   0  0  0  0  0  0  0  0  0  0  0  0
    0.7201    5.9795    4.5428 H   0  0  0  0  0  0  0  0  0  0  0  0
    1.3028    5.0639    3.1843 H   0  0  0  0  0  0  0  0  0  0  0  0
   -0.2230    5.2893    2.0431 H   0  0  0  0  0  0  0  0  0  0  0  0
    0.7257    1.5624    4.3148 H   0  0  0  0  0  0  0  0  0  0  0  0
    1.5668   -0.1748    5.8409 H   0  0  0  0  0  0  0  0  0  0  0  0
   -0.1484   -1.8577    4.1261 H   0  0  0  0  0  0  0  0  0  0  0  0
    0.0557   -1.7759    5.8506 H   0  0  0  0  0  0  0  0  0  0  0  0
    1.3677   -2.3838    4.8626 H   0  0  0  0  0  0  0  0  0  0  0  0
  1  2  1  0
  1 30  1  0
  1 31  1  0
  1 32  1  0
  2 22  1  0
  2  3  1  0
  2 33  1  6
  3 24  1  0
  3  4  2  0
  4  5  1  0
  4 34  1  0
  5 27  1  0
  5  6  1  0
  5 35  1  1
  7  6  1  6
  6 36  1  0
  6 37  1  0
  7 15  1  0
  7 28  1  0
  7  8  1  0
  8  9  1  0
  8 38  1  0
  8 39  1  0
  9 10  1  0
  9 40  1  0
  9 41  1  0
 10 11  2  0
 10 12  1  0
 12 13  1  0
 12 16  1  0
 13 14  1  0
 13 42  1  0
 13 43  1  0
 14 15  1  0
 14 44  1  0
 14 45  1  0
 16 24  1  0
 16 17  1  1
 16 20  1  0
 17 18  1  0
 17 19  1  0
 17 46  1  0
 18 47  1  0
 18 48  1  0
 18 49  1  0
 19 50  1  0
 19 51  1  0
 19 52  1  0
 20 21  1  0
 20 27  1  0
 20 53  1  1
 21 22  1  0
 21 54  1  0
 21 55  1  0
 22 23  1  0
 22 56  1  1
 23 24  1  0
 24 25  1  6
 25 26  1  0
 25 57  1  0
 25 58  1  0
 26 59  1  0
 27 28  1  0
 27 60  1  1
 28 29  1  0
 28 61  1  1
 29 62  1  0
 29 63  1  0
 29 64  1  0
M  END
>  <i_m_ct_stereo_status>  (177) 
1

>  <s_m_source_file>  (177) 
/var/tmp/pbs.5076255.sched01/tmp2obefojl/44ql_32cm2.sdf

>  <i_m_source_file_index>  (177) 
31

>  <i_lp_mmshare_version>  (177) 
48012

>  <i_f3d_flags>  (177) 
0

>  <s_epik_input>  (177) 
W0NIMl0xW0NAQEhdKE8yKVtDQEhdKFtDSDNdKUMoPVtDSF0zKVtDQF0yKFtDSDJdW09IXSlbQ0BdKFtDSF0oW0NIM10pW0NIM10pKE4oW0NIMl1bQ0gyXU80KUMoPU8pW0NIMl1bQ0gyXTUpW0NAQEhdMVtDQEhdKFtDSF0zW0NIMl1DNDU2KVtDQEhdNltDSDNd

>  <s_epik_cmdline>  (177) 
J2VwaWtfcHl0aG9uJywgJy1waHQnLCAnMi4wJywgJy1waCcsICc3LjAnLCAnLXRuJywgJzgnLCAnLW1hJywgJzIwMCcsICctaW1hZScsICc8aW5maWxlLm1hZT4nLCAnLW9tYWUnLCAnPG91dGZpbGUubWFlPic=

>  <r_lp_tautomer_probability>  (177) 
1

>  <r_epik_Ionization_Penalty>  (177) 
5.50935e-08

>  <r_epik_Ionization_Penalty_Charging>  (177) 
0

>  <r_epik_Ionization_Penalty_Neutral>  (177) 
5.50935e-08

>  <r_epik_State_Penalty>  (177) 
-0

>  <r_epik_Charging_Adjusted_Penalty>  (177) 
0

>  <i_epik_Tot_Q>  (177) 
0

>  <i_epik_Tot_abs_Q>  (177) 
0

>  <s_lp_Force_Field>  (177) 
OPLS3e

>  <r_lp_Energy>  (177) 
328.274

>  <b_lp_Chiralities_Consistent>  (177) 
1

>  <s_lp_Variant>  (177) 
45:0-1

>  <s_i_glide_gridfile>  (177) 
pfpi4k_grid

>  <i_i_glide_lignum>  (177) 
31

>  <i_i_glide_rotatable_bonds>  (177) 
3

>  <r_i_docking_score>  (177) 
-2.3555

>  <r_i_glide_ligand_efficiency>  (177) 
-0.0812241

>  <r_i_glide_ligand_efficiency_sa>  (177) 
-0.249546

>  <r_i_glide_ligand_efficiency_ln>  (177) 
-0.53935

>  <r_i_glide_gscore>  (177) 
-2.3555

>  <r_i_glide_lipo>  (177) 
-0.00284314

>  <r_i_glide_hbond>  (177) 
0

>  <r_i_glide_metal>  (177) 
-0

>  <r_i_glide_rewards>  (177) 
-0.671325

>  <r_i_glide_evdw>  (177) 
-14.9325

>  <r_i_glide_ecoul>  (177) 
-7.0424

>  <r_i_glide_erotb>  (177) 
0.121656

>  <r_i_glide_esite>  (177) 
0

>  <r_i_glide_emodel>  (177) 
-23.3332

>  <r_i_glide_energy>  (177) 
-21.9749

>  <r_i_glide_einternal>  (177) 
2.54069

>  <r_i_glide_intrahb_reward>  (177) 
-0

>  <i_i_glide_confnum>  (177) 
3

>  <i_i_glide_posenum>  (177) 
22

>  <r_i_glide_eff_state_penalty>  (177) 
0

>  <ligand_id>  (177) 
45

>  <original_smiles>  (177) 
CC1C2=CC3CC45CCC(=O)N(CCO4)C4(C(C)C)C(CC1OC24CO)C3C5C

>  <smiles>  (177) 
[H]OC([H])([H])C12OC3([H])C([H])([H])C4([H])C5([H])C([H])(C([H])=C1C3([H])C([H])([H])[H])C([H])([H])C1(OC([H])([H])C([H])([H])N(C(=O)C([H])([H])C1([H])[H])C24C([H])(C([H])([H])[H])C([H])([H])[H])C5([H])C([H])([H])[H]

$$$$
45:0:1
     RDKit          3D

 64 69  0  0  1  0  0  0  0  0999 V2000
    2.4020    4.7184    2.8712 C   0  0  0  0  0  0  0  0  0  0  0  0
    1.6659    4.3147    4.1533 C   0  0  2  0  0  0  0  0  0  0  0  0
    2.0167    3.0276    4.8652 C   0  0  0  0  0  0  0  0  0  0  0  0
    2.9650    2.2504    4.2663 C   0  0  0  0  0  0  0  0  0  0  0  0
    2.8173    0.7684    3.9125 C   0  0  2  0  0  0  0  0  0  0  0  0
    3.4859   -0.6456    4.3282 C   0  0  0  0  0  0  0  0  0  0  0  0
    2.2148   -1.3576    4.9270 C   0  0  1  0  0  0  0  0  0  0  0  0
    1.6423   -2.6934    5.4543 C   0  0  0  0  0  0  0  0  0  0  0  0
    0.3061   -2.3734    6.3287 C   0  0  0  0  0  0  0  0  0  0  0  0
   -0.5931   -1.0569    6.0745 C   0  0  0  0  0  0  0  0  0  0  0  0
   -1.6469   -1.2500    5.4822 O   0  0  0  0  0  0  0  0  0  0  0  0
   -0.1698    0.2360    6.3889 N   0  0  0  0  0  0  0  0  0  0  0  0
    0.6907    0.2688    7.5572 C   0  0  0  0  0  0  0  0  0  0  0  0
    2.1632    0.1347    7.1488 C   0  0  0  0  0  0  0  0  0  0  0  0
    2.4323   -1.0034    6.3374 O   0  0  0  0  0  0  0  0  0  0  0  0
   -0.3655    1.5389    5.5239 C   0  0  2  0  0  0  0  0  0  0  0  0
   -1.9312    1.9430    5.6927 C   0  0  0  0  0  0  0  0  0  0  0  0
   -2.6736    2.6967    4.5523 C   0  0  0  0  0  0  0  0  0  0  0  0
   -2.3607    2.6168    7.0085 C   0  0  0  0  0  0  0  0  0  0  0  0
   -0.0197    1.3039    3.9730 C   0  0  1  0  0  0  0  0  0  0  0  0
   -0.0877    2.6287    3.1083 C   0  0  0  0  0  0  0  0  0  0  0  0
    0.2252    3.9736    3.8843 C   0  0  1  0  0  0  0  0  0  0  0  0
   -0.1581    3.7960    5.2509 O   0  0  0  0  0  0  0  0  0  0  0  0
    0.6883    2.7888    5.7728 C   0  0  2  0  0  0  0  0  0  0  0  0
    0.9331    3.3696    7.2019 C   0  0  0  0  0  0  0  0  0  0  0  0
    2.1150    2.9541    7.8447 O   0  0  0  0  0  0  0  0  0  0  0  0
    1.3064    0.4736    3.7633 C   0  0  1  0  0  0  0  0  0  0  0  0
    1.2140   -1.0036    3.7544 C   0  0  1  0  0  0  0  0  0  0  0  0
    1.5435   -1.5897    2.3619 C   0  0  0  0  0  0  0  0  0  0  0  0
    3.4631    4.9315    3.0301 H   0  0  0  0  0  0  0  0  0  0  0  0
    1.9656    5.6313    2.4641 H   0  0  0  0  0  0  0  0  0  0  0  0
    2.3317    3.9729    2.0853 H   0  0  0  0  0  0  0  0  0  0  0  0
    1.7364    5.1502    4.8496 H   0  0  0  0  0  0  0  0  0  0  0  0
    3.6805    2.7064    3.5853 H   0  0  0  0  0  0  0  0  0  0  0  0
    3.1993    0.9289    4.9139 H   0  0  0  0  0  0  0  0  0  0  0  0
    3.8754   -1.1716    3.4569 H   0  0  0  0  0  0  0  0  0  0  0  0
    4.3398   -0.5951    5.0169 H   0  0  0  0  0  0  0  0  0  0  0  0
    1.4049   -3.3805    4.6405 H   0  0  0  0  0  0  0  0  0  0  0  0
    2.3720   -3.2368    6.0684 H   0  0  0  0  0  0  0  0  0  0  0  0
   -0.3542   -3.2465    6.2436 H   0  0  0  0  0  0  0  0  0  0  0  0
    0.5931   -2.4055    7.3718 H   0  0  0  0  0  0  0  0  0  0  0  0
    0.5098    1.1519    8.1523 H   0  0  0  0  0  0  0  0  0  0  0  0
    0.4452   -0.5384    8.2505 H   0  0  0  0  0  0  0  0  0  0  0  0
    2.5460    1.0516    6.7553 H   0  0  0  0  0  0  0  0  0  0  0  0
    2.7393   -0.0220    8.0651 H   0  0  0  0  0  0  0  0  0  0  0  0
   -2.4579    0.9987    5.7420 H   0  0  0  0  0  0  0  0  0  0  0  0
   -2.1616    3.5824    4.1815 H   0  0  0  0  0  0  0  0  0  0  0  0
   -3.6797    2.9410    4.8593 H   0  0  0  0  0  0  0  0  0  0  0  0
   -2.8159    2.0524    3.6810 H   0  0  0  0  0  0  0  0  0  0  0  0
   -2.1450    3.6833    6.9996 H   0  0  0  0  0  0  0  0  0  0  0  0
   -1.9348    2.1842    7.9090 H   0  0  0  0  0  0  0  0  0  0  0  0
   -3.4492    2.5463    7.1294 H   0  0  0  0  0  0  0  0  0  0  0  0
   -0.8127    0.6725    3.5686 H   0  0  0  0  0  0  0  0  0  0  0  0
    0.5800    2.5407    2.2495 H   0  0  0  0  0  0  0  0  0  0  0  0
   -1.1038    2.7326    2.7262 H   0  0  0  0  0  0  0  0  0  0  0  0
   -0.3199    4.8142    3.4477 H   0  0  0  0  0  0  0  0  0  0  0  0
    0.9954    4.4644    7.1608 H   0  0  0  0  0  0  0  0  0  0  0  0
    0.0946    3.1816    7.8778 H   0  0  0  0  0  0  0  0  0  0  0  0
    2.8589    3.0662    7.2648 H   0  0  0  0  0  0  0  0  0  0  0  0
    1.3743    0.5794    4.7944 H   0  0  0  0  0  0  0  0  0  0  0  0
    0.2046   -1.3787    3.8409 H   0  0  0  0  0  0  0  0  0  0  0  0
    2.4140   -1.1413    1.8838 H   0  0  0  0  0  0  0  0  0  0  0  0
    0.7084   -1.3976    1.6820 H   0  0  0  0  0  0  0  0  0  0  0  0
    1.6952   -2.6677    2.4021 H   0  0  0  0  0  0  0  0  0  0  0  0
  1  2  1  0
  1 30  1  0
  1 31  1  0
  1 32  1  0
  2 22  1  0
  2  3  1  0
  2 33  1  1
  3 24  1  0
  3  4  2  0
  4  5  1  0
  4 34  1  0
  5 27  1  0
  5  6  1  0
  5 35  1  6
  7  6  1  6
  6 36  1  0
  6 37  1  0
  7 15  1  0
  7 28  1  0
  7  8  1  0
  8  9  1  0
  8 38  1  0
  8 39  1  0
  9 10  1  0
  9 40  1  0
  9 41  1  0
 10 11  2  0
 10 12  1  0
 12 13  1  0
 12 16  1  0
 13 14  1  0
 13 42  1  0
 13 43  1  0
 14 15  1  0
 14 44  1  0
 14 45  1  0
 16 24  1  0
 16 17  1  6
 16 20  1  0
 17 18  1  0
 17 19  1  0
 17 46  1  0
 18 47  1  0
 18 48  1  0
 18 49  1  0
 19 50  1  0
 19 51  1  0
 19 52  1  0
 20 21  1  0
 20 27  1  0
 20 53  1  6
 21 22  1  0
 21 54  1  0
 21 55  1  0
 22 23  1  0
 22 56  1  6
 23 24  1  0
 24 25  1  1
 25 26  1  0
 25 57  1  0
 25 58  1  0
 26 59  1  0
 27 28  1  0
 27 60  1  6
 28 29  1  0
 28 61  1  1
 29 62  1  0
 29 63  1  0
 29 64  1  0
M  END
>  <i_m_ct_stereo_status>  (178) 
1

>  <s_m_source_file>  (178) 
/var/tmp/pbs.5076255.sched01/tmp2obefojl/44ql_32cm2.sdf

>  <i_m_source_file_index>  (178) 
31

>  <i_lp_mmshare_version>  (178) 
48012

>  <i_f3d_flags>  (178) 
0

>  <s_epik_input>  (178) 
W0NIMl0xW0NAQEhdKE8yKVtDQEhdKFtDSDNdKUMoPVtDSF0zKVtDQF0yKFtDSDJdW09IXSlbQ0BdKFtDSF0oW0NIM10pW0NIM10pKE4oW0NIMl1bQ0gyXU80KUMoPU8pW0NIMl1bQ0gyXTUpW0NAQEhdMVtDQEhdKFtDSF0zW0NIMl1DNDU2KVtDQEhdNltDSDNd

>  <s_epik_cmdline>  (178) 
J2VwaWtfcHl0aG9uJywgJy1waHQnLCAnMi4wJywgJy1waCcsICc3LjAnLCAnLXRuJywgJzgnLCAnLW1hJywgJzIwMCcsICctaW1hZScsICc8aW5maWxlLm1hZT4nLCAnLW9tYWUnLCAnPG91dGZpbGUubWFlPic=

>  <r_lp_tautomer_probability>  (178) 
1

>  <r_epik_Ionization_Penalty>  (178) 
5.50935e-08

>  <r_epik_Ionization_Penalty_Charging>  (178) 
0

>  <r_epik_Ionization_Penalty_Neutral>  (178) 
5.50935e-08

>  <r_epik_State_Penalty>  (178) 
-0

>  <r_epik_Charging_Adjusted_Penalty>  (178) 
0

>  <i_epik_Tot_Q>  (178) 
0

>  <i_epik_Tot_abs_Q>  (178) 
0

>  <s_lp_Force_Field>  (178) 
OPLS3e

>  <r_lp_Energy>  (178) 
328.274

>  <b_lp_Chiralities_Consistent>  (178) 
1

>  <s_lp_Variant>  (178) 
45:0-1

>  <s_i_glide_gridfile>  (178) 
pfpi4k_grid

>  <i_i_glide_lignum>  (178) 
31

>  <i_i_glide_rotatable_bonds>  (178) 
3

>  <r_i_docking_score>  (178) 
-2.0179

>  <r_i_glide_ligand_efficiency>  (178) 
-0.0695827

>  <r_i_glide_ligand_efficiency_sa>  (178) 
-0.21378

>  <r_i_glide_ligand_efficiency_ln>  (178) 
-0.462047

>  <r_i_glide_gscore>  (178) 
-2.0179

>  <r_i_glide_lipo>  (178) 
-0.118907

>  <r_i_glide_hbond>  (178) 
0

>  <r_i_glide_metal>  (178) 
-0

>  <r_i_glide_rewards>  (178) 
-0.671325

>  <r_i_glide_evdw>  (178) 
-19.7573

>  <r_i_glide_ecoul>  (178) 
-1.89553

>  <r_i_glide_erotb>  (178) 
0.121656

>  <r_i_glide_esite>  (178) 
-0.0771274

>  <r_i_glide_emodel>  (178) 
-17.8059

>  <r_i_glide_energy>  (178) 
-21.6528

>  <r_i_glide_einternal>  (178) 
10.0355

>  <r_i_glide_intrahb_reward>  (178) 
-0

>  <i_i_glide_confnum>  (178) 
5

>  <i_i_glide_posenum>  (178) 
13

>  <r_i_glide_eff_state_penalty>  (178) 
0

>  <ligand_id>  (178) 
45

>  <original_smiles>  (178) 
CC1C2=CC3CC45CCC(=O)N(CCO4)C4(C(C)C)C(CC1OC24CO)C3C5C

>  <smiles>  (178) 
[H]OC([H])([H])C12OC3([H])C([H])([H])C4([H])C5([H])C([H])(C([H])=C1C3([H])C([H])([H])[H])C([H])([H])C1(OC([H])([H])C([H])([H])N(C(=O)C([H])([H])C1([H])[H])C24C([H])(C([H])([H])[H])C([H])([H])[H])C5([H])C([H])([H])[H]

$$$$
45:0:2
     RDKit          3D

 64 69  0  0  1  0  0  0  0  0999 V2000
   -2.7685    3.1812    3.1230 C   0  0  0  0  0  0  0  0  0  0  0  0
   -1.6935    3.7160    4.0797 C   0  0  2  0  0  0  0  0  0  0  0  0
   -0.3289    3.0696    4.1181 C   0  0  0  0  0  0  0  0  0  0  0  0
   -0.1472    1.9644    3.3567 C   0  0  0  0  0  0  0  0  0  0  0  0
    0.3747    0.6125    3.8435 C   0  0  2  0  0  0  0  0  0  0  0  0
    1.6376   -0.3518    3.5937 C   0  0  0  0  0  0  0  0  0  0  0  0
    2.2227   -0.3662    5.0488 C   0  0  1  0  0  0  0  0  0  0  0  0
    3.2500   -1.0332    5.9828 C   0  0  0  0  0  0  0  0  0  0  0  0
    3.4979   -0.0728    7.2641 C   0  0  0  0  0  0  0  0  0  0  0  0
    2.3519    0.9086    7.7822 C   0  0  0  0  0  0  0  0  0  0  0  0
    1.7156    0.4793    8.7425 O   0  0  0  0  0  0  0  0  0  0  0  0
    1.9675    2.0574    7.0972 N   0  0  0  0  0  0  0  0  0  0  0  0
    3.0719    2.6809    6.3910 C   0  0  0  0  0  0  0  0  0  0  0  0
    3.1394    2.1486    4.9544 C   0  0  0  0  0  0  0  0  0  0  0  0
    3.2035    0.7258    4.8876 O   0  0  0  0  0  0  0  0  0  0  0  0
    0.5221    2.6400    6.8605 C   0  0  2  0  0  0  0  0  0  0  0  0
    0.0435    3.3247    8.2516 C   0  0  0  0  0  0  0  0  0  0  0  0
    0.8289    4.5929    8.6452 C   0  0  0  0  0  0  0  0  0  0  0  0
   -0.1006    2.4746    9.5321 C   0  0  0  0  0  0  0  0  0  0  0  0
   -0.5161    1.5005    6.4415 C   0  0  1  0  0  0  0  0  0  0  0  0
   -1.9596    2.0885    6.1592 C   0  0  0  0  0  0  0  0  0  0  0  0
   -2.0343    3.5441    5.5581 C   0  0  1  0  0  0  0  0  0  0  0  0
   -0.9280    4.2694    6.0500 O   0  0  0  0  0  0  0  0  0  0  0  0
    0.2397    3.6253    5.5387 C   0  0  2  0  0  0  0  0  0  0  0  0
    1.1473    4.8660    5.2597 C   0  0  0  0  0  0  0  0  0  0  0  0
    0.6589    5.7268    4.2588 O   0  0  0  0  0  0  0  0  0  0  0  0
    0.0503    0.5121    5.3499 C   0  0  1  0  0  0  0  0  0  0  0  0
    0.8507   -0.6398    5.7988 C   0  0  1  0  0  0  0  0  0  0  0  0
    0.1407   -1.9853    5.4957 C   0  0  0  0  0  0  0  0  0  0  0  0
   -2.4715    3.2974    2.0846 H   0  0  0  0  0  0  0  0  0  0  0  0
   -3.7061    3.7227    3.2490 H   0  0  0  0  0  0  0  0  0  0  0  0
   -2.9845    2.1359    3.3108 H   0  0  0  0  0  0  0  0  0  0  0  0
   -1.5796    4.7663    3.8579 H   0  0  0  0  0  0  0  0  0  0  0  0
   -0.7566    1.8174    2.4723 H   0  0  0  0  0  0  0  0  0  0  0  0
    1.1648    1.2812    3.5616 H   0  0  0  0  0  0  0  0  0  0  0  0
    1.3167   -1.3440    3.2702 H   0  0  0  0  0  0  0  0  0  0  0  0
    2.3564   -0.0224    2.8218 H   0  0  0  0  0  0  0  0  0  0  0  0
    2.9236   -2.0225    6.3169 H   0  0  0  0  0  0  0  0  0  0  0  0
    4.2050   -1.2027    5.4726 H   0  0  0  0  0  0  0  0  0  0  0  0
    3.7494   -0.7151    8.1060 H   0  0  0  0  0  0  0  0  0  0  0  0
    4.4261    0.4772    7.1070 H   0  0  0  0  0  0  0  0  0  0  0  0
    3.0406    3.7589    6.5013 H   0  0  0  0  0  0  0  0  0  0  0  0
    4.0365    2.4982    6.8666 H   0  0  0  0  0  0  0  0  0  0  0  0
    2.4177    2.6027    4.2909 H   0  0  0  0  0  0  0  0  0  0  0  0
    4.0831    2.4850    4.5290 H   0  0  0  0  0  0  0  0  0  0  0  0
   -0.9940    3.6482    8.1730 H   0  0  0  0  0  0  0  0  0  0  0  0
    1.9057    4.4560    8.5519 H   0  0  0  0  0  0  0  0  0  0  0  0
    0.6307    4.8741    9.6813 H   0  0  0  0  0  0  0  0  0  0  0  0
    0.5148    5.4557    8.0655 H   0  0  0  0  0  0  0  0  0  0  0  0
    0.8558    2.3257   10.0383 H   0  0  0  0  0  0  0  0  0  0  0  0
   -0.5755    1.5060    9.3682 H   0  0  0  0  0  0  0  0  0  0  0  0
   -0.7287    2.9904   10.2646 H   0  0  0  0  0  0  0  0  0  0  0  0
   -0.6638    0.8523    7.2948 H   0  0  0  0  0  0  0  0  0  0  0  0
   -2.5173    1.3990    5.5271 H   0  0  0  0  0  0  0  0  0  0  0  0
   -2.4955    2.1147    7.1163 H   0  0  0  0  0  0  0  0  0  0  0  0
   -2.9824    4.0272    5.8042 H   0  0  0  0  0  0  0  0  0  0  0  0
    1.3436    5.4647    6.1453 H   0  0  0  0  0  0  0  0  0  0  0  0
    2.1127    4.6198    4.8391 H   0  0  0  0  0  0  0  0  0  0  0  0
    0.7388    5.2842    3.4129 H   0  0  0  0  0  0  0  0  0  0  0  0
    0.8315    1.1967    5.3639 H   0  0  0  0  0  0  0  0  0  0  0  0
    0.8918   -0.7474    6.8680 H   0  0  0  0  0  0  0  0  0  0  0  0
   -0.2877   -2.0495    4.4967 H   0  0  0  0  0  0  0  0  0  0  0  0
   -0.6928   -2.1192    6.1835 H   0  0  0  0  0  0  0  0  0  0  0  0
    0.8113   -2.8335    5.6365 H   0  0  0  0  0  0  0  0  0  0  0  0
  1  2  1  0
  1 30  1  0
  1 31  1  0
  1 32  1  0
  2 22  1  0
  2  3  1  0
  2 33  1  1
  3 24  1  0
  3  4  2  0
  4  5  1  0
  4 34  1  0
  5 27  1  0
  5  6  1  0
  5 35  1  6
  7  6  1  6
  6 36  1  0
  6 37  1  0
  7 15  1  0
  7 28  1  0
  7  8  1  0
  8  9  1  0
  8 38  1  0
  8 39  1  0
  9 10  1  0
  9 40  1  0
  9 41  1  0
 10 11  2  0
 10 12  1  0
 12 13  1  0
 12 16  1  0
 13 14  1  0
 13 42  1  0
 13 43  1  0
 14 15  1  0
 14 44  1  0
 14 45  1  0
 16 24  1  0
 16 17  1  1
 16 20  1  0
 17 18  1  0
 17 19  1  0
 17 46  1  0
 18 47  1  0
 18 48  1  0
 18 49  1  0
 19 50  1  0
 19 51  1  0
 19 52  1  0
 20 21  1  0
 20 27  1  0
 20 53  1  1
 21 22  1  0
 21 54  1  0
 21 55  1  0
 22 23  1  0
 22 56  1  6
 23 24  1  0
 24 25  1  6
 25 26  1  0
 25 57  1  0
 25 58  1  0
 26 59  1  0
 27 28  1  0
 27 60  1  6
 28 29  1  0
 28 61  1  1
 29 62  1  0
 29 63  1  0
 29 64  1  0
M  END
>  <i_m_ct_stereo_status>  (179) 
1

>  <s_m_source_file>  (179) 
/var/tmp/pbs.5076255.sched01/tmp2obefojl/44ql_32cm2.sdf

>  <i_m_source_file_index>  (179) 
31

>  <i_lp_mmshare_version>  (179) 
48012

>  <i_f3d_flags>  (179) 
0

>  <s_epik_input>  (179) 
W0NIMl0xW0NAQEhdKE8yKVtDQEhdKFtDSDNdKUMoPVtDSF0zKVtDQF0yKFtDSDJdW09IXSlbQ0BdKFtDSF0oW0NIM10pW0NIM10pKE4oW0NIMl1bQ0gyXU80KUMoPU8pW0NIMl1bQ0gyXTUpW0NAQEhdMVtDQEhdKFtDSF0zW0NIMl1DNDU2KVtDQEhdNltDSDNd

>  <s_epik_cmdline>  (179) 
J2VwaWtfcHl0aG9uJywgJy1waHQnLCAnMi4wJywgJy1waCcsICc3LjAnLCAnLXRuJywgJzgnLCAnLW1hJywgJzIwMCcsICctaW1hZScsICc8aW5maWxlLm1hZT4nLCAnLW9tYWUnLCAnPG91dGZpbGUubWFlPic=

>  <r_lp_tautomer_probability>  (179) 
1

>  <r_epik_Ionization_Penalty>  (179) 
5.50935e-08

>  <r_epik_Ionization_Penalty_Charging>  (179) 
0

>  <r_epik_Ionization_Penalty_Neutral>  (179) 
5.50935e-08

>  <r_epik_State_Penalty>  (179) 
-0

>  <r_epik_Charging_Adjusted_Penalty>  (179) 
0

>  <i_epik_Tot_Q>  (179) 
0

>  <i_epik_Tot_abs_Q>  (179) 
0

>  <s_lp_Force_Field>  (179) 
OPLS3e

>  <r_lp_Energy>  (179) 
328.274

>  <b_lp_Chiralities_Consistent>  (179) 
1

>  <s_lp_Variant>  (179) 
45:0-1

>  <s_i_glide_gridfile>  (179) 
pfpi4k_grid

>  <i_i_glide_lignum>  (179) 
31

>  <i_i_glide_rotatable_bonds>  (179) 
3

>  <r_i_docking_score>  (179) 
-1.57258

>  <r_i_glide_ligand_efficiency>  (179) 
-0.0542271

>  <r_i_glide_ligand_efficiency_sa>  (179) 
-0.166603

>  <r_i_glide_ligand_efficiency_ln>  (179) 
-0.360082

>  <r_i_glide_gscore>  (179) 
-1.57258

>  <r_i_glide_lipo>  (179) 
0

>  <r_i_glide_hbond>  (179) 
0

>  <r_i_glide_metal>  (179) 
-0

>  <r_i_glide_rewards>  (179) 
-0.671325

>  <r_i_glide_evdw>  (179) 
-15.7809

>  <r_i_glide_ecoul>  (179) 
-1.55914

>  <r_i_glide_erotb>  (179) 
0.121656

>  <r_i_glide_esite>  (179) 
0

>  <r_i_glide_emodel>  (179) 
-18.1191

>  <r_i_glide_energy>  (179) 
-17.34

>  <r_i_glide_einternal>  (179) 
2.38872

>  <r_i_glide_intrahb_reward>  (179) 
-0

>  <i_i_glide_confnum>  (179) 
6

>  <i_i_glide_posenum>  (179) 
34

>  <r_i_glide_eff_state_penalty>  (179) 
0

>  <ligand_id>  (179) 
45

>  <original_smiles>  (179) 
CC1C2=CC3CC45CCC(=O)N(CCO4)C4(C(C)C)C(CC1OC24CO)C3C5C

>  <smiles>  (179) 
[H]OC([H])([H])C12OC3([H])C([H])([H])C4([H])C5([H])C([H])(C([H])=C1C3([H])C([H])([H])[H])C([H])([H])C1(OC([H])([H])C([H])([H])N(C(=O)C([H])([H])C1([H])[H])C24C([H])(C([H])([H])[H])C([H])([H])[H])C5([H])C([H])([H])[H]

$$$$
45:1:0
     RDKit          3D

 64 69  0  0  1  0  0  0  0  0999 V2000
    2.5069    4.5982    2.7952 C   0  0  0  0  0  0  0  0  0  0  0  0
    1.7197    4.2483    4.0924 C   0  0  2  0  0  0  0  0  0  0  0  0
    2.0173    2.9818    4.8405 C   0  0  0  0  0  0  0  0  0  0  0  0
    2.9631    2.1630    4.2903 C   0  0  0  0  0  0  0  0  0  0  0  0
    2.7350    0.7675    3.6914 C   0  0  1  0  0  0  0  0  0  0  0  0
    3.4095   -0.5650    4.3088 C   0  0  0  0  0  0  0  0  0  0  0  0
    2.1704   -1.3363    4.8712 C   0  0  1  0  0  0  0  0  0  0  0  0
    1.6381   -2.6554    5.4495 C   0  0  0  0  0  0  0  0  0  0  0  0
    0.2926   -2.3372    6.3157 C   0  0  0  0  0  0  0  0  0  0  0  0
   -0.5851   -1.0120    6.0866 C   0  0  0  0  0  0  0  0  0  0  0  0
   -1.6733   -1.2086    5.5427 O   0  0  0  0  0  0  0  0  0  0  0  0
   -0.1437    0.2682    6.3503 N   0  0  0  0  0  0  0  0  0  0  0  0
    0.7965    0.3342    7.4849 C   0  0  0  0  0  0  0  0  0  0  0  0
    2.2408    0.2265    6.9977 C   0  0  0  0  0  0  0  0  0  0  0  0
    2.4081   -0.9799    6.2729 O   0  0  0  0  0  0  0  0  0  0  0  0
   -0.3838    1.5641    5.4793 C   0  0  2  0  0  0  0  0  0  0  0  0
   -1.9578    1.9374    5.6318 C   0  0  0  0  0  0  0  0  0  0  0  0
   -2.6916    2.7226    4.4996 C   0  0  0  0  0  0  0  0  0  0  0  0
   -2.4553    2.5674    6.9528 C   0  0  0  0  0  0  0  0  0  0  0  0
   -0.0587    1.3270    3.9071 C   0  0  1  0  0  0  0  0  0  0  0  0
   -0.0937    2.6423    3.0344 C   0  0  0  0  0  0  0  0  0  0  0  0
    0.2561    3.9763    3.8071 C   0  0  1  0  0  0  0  0  0  0  0  0
   -0.1659    3.8419    5.1418 O   0  0  0  0  0  0  0  0  0  0  0  0
    0.6633    2.8235    5.7065 C   0  0  2  0  0  0  0  0  0  0  0  0
    0.9918    3.4155    7.1353 C   0  0  0  0  0  0  0  0  0  0  0  0
   -0.0018    3.3996    8.1511 O   0  0  0  0  0  0  0  0  0  0  0  0
    1.2345    0.4593    3.6546 C   0  0  1  0  0  0  0  0  0  0  0  0
    1.1490   -1.0266    3.7152 C   0  0  1  0  0  0  0  0  0  0  0  0
    1.4902   -1.6829    2.3600 C   0  0  0  0  0  0  0  0  0  0  0  0
    3.5602    4.8039    2.9720 H   0  0  0  0  0  0  0  0  0  0  0  0
    2.0819    5.4962    2.3479 H   0  0  0  0  0  0  0  0  0  0  0  0
    2.4295    3.8212    2.0348 H   0  0  0  0  0  0  0  0  0  0  0  0
    1.8208    5.1078    4.7644 H   0  0  0  0  0  0  0  0  0  0  0  0
    3.7264    2.6185    3.6799 H   0  0  0  0  0  0  0  0  0  0  0  0
    3.0598    0.8401    2.6452 H   0  0  0  0  0  0  0  0  0  0  0  0
    3.8924   -1.1477    3.5226 H   0  0  0  0  0  0  0  0  0  0  0  0
    4.1763   -0.3258    5.0393 H   0  0  0  0  0  0  0  0  0  0  0  0
    1.4091   -3.3686    4.6604 H   0  0  0  0  0  0  0  0  0  0  0  0
    2.3858   -3.1571    6.0746 H   0  0  0  0  0  0  0  0  0  0  0  0
   -0.3602   -3.2076    6.2146 H   0  0  0  0  0  0  0  0  0  0  0  0
    0.5845   -2.3962    7.3664 H   0  0  0  0  0  0  0  0  0  0  0  0
    0.6023    1.1988    8.1064 H   0  0  0  0  0  0  0  0  0  0  0  0
    0.6252   -0.5087    8.1741 H   0  0  0  0  0  0  0  0  0  0  0  0
    2.6103    1.0767    6.4706 H   0  0  0  0  0  0  0  0  0  0  0  0
    2.8771    0.1481    7.8781 H   0  0  0  0  0  0  0  0  0  0  0  0
   -2.4615    0.9812    5.6547 H   0  0  0  0  0  0  0  0  0  0  0  0
   -2.1503    3.5775    4.0864 H   0  0  0  0  0  0  0  0  0  0  0  0
   -3.7016    2.9798    4.8390 H   0  0  0  0  0  0  0  0  0  0  0  0
   -2.8635    2.0679    3.6381 H   0  0  0  0  0  0  0  0  0  0  0  0
   -2.2048    3.6281    6.9652 H   0  0  0  0  0  0  0  0  0  0  0  0
   -2.0279    2.1135    7.8495 H   0  0  0  0  0  0  0  0  0  0  0  0
   -3.5482    2.5550    7.0085 H   0  0  0  0  0  0  0  0  0  0  0  0
   -0.8530    0.7020    3.5286 H   0  0  0  0  0  0  0  0  0  0  0  0
    0.5917    2.5203    2.1812 H   0  0  0  0  0  0  0  0  0  0  0  0
   -1.1075    2.8038    2.7051 H   0  0  0  0  0  0  0  0  0  0  0  0
   -0.2158    4.8393    3.3360 H   0  0  0  0  0  0  0  0  0  0  0  0
    1.8694    2.9201    7.5504 H   0  0  0  0  0  0  0  0  0  0  0  0
    1.3505    4.4430    7.0199 H   0  0  0  0  0  0  0  0  0  0  0  0
    0.4224    3.6005    8.9398 H   0  0  0  0  0  0  0  0  0  0  0  0
    1.3821    0.6146    4.6734 H   0  0  0  0  0  0  0  0  0  0  0  0
    0.1386   -1.3892    3.8188 H   0  0  0  0  0  0  0  0  0  0  0  0
    2.4341   -1.3622    1.9147 H   0  0  0  0  0  0  0  0  0  0  0  0
    0.7212   -1.4242    1.6404 H   0  0  0  0  0  0  0  0  0  0  0  0
    1.5140   -2.7729    2.4354 H   0  0  0  0  0  0  0  0  0  0  0  0
  1  2  1  0
  1 30  1  0
  1 31  1  0
  1 32  1  0
  2 22  1  0
  2  3  1  0
  2 33  1  1
  3 24  1  0
  3  4  2  0
  4  5  1  0
  4 34  1  0
  5 27  1  0
  5  6  1  0
  5 35  1  6
  7  6  1  6
  6 36  1  0
  6 37  1  0
  7 15  1  0
  7 28  1  0
  7  8  1  0
  8  9  1  0
  8 38  1  0
  8 39  1  0
  9 10  1  0
  9 40  1  0
  9 41  1  0
 10 11  2  0
 10 12  1  0
 12 13  1  0
 12 16  1  0
 13 14  1  0
 13 42  1  0
 13 43  1  0
 14 15  1  0
 14 44  1  0
 14 45  1  0
 16 24  1  0
 16 17  1  6
 16 20  1  0
 17 18  1  0
 17 19  1  0
 17 46  1  0
 18 47  1  0
 18 48  1  0
 18 49  1  0
 19 50  1  0
 19 51  1  0
 19 52  1  0
 20 21  1  0
 20 27  1  0
 20 53  1  6
 21 22  1  0
 21 54  1  0
 21 55  1  0
 22 23  1  0
 22 56  1  6
 23 24  1  0
 24 25  1  1
 25 26  1  0
 25 57  1  0
 25 58  1  0
 26 59  1  0
 27 28  1  0
 27 60  1  6
 28 29  1  0
 28 61  1  1
 29 62  1  0
 29 63  1  0
 29 64  1  0
M  END
>  <i_m_ct_stereo_status>  (180) 
1

>  <s_m_source_file>  (180) 
/var/tmp/pbs.5076255.sched01/tmp2obefojl/44ql_32cm2.sdf

>  <i_m_source_file_index>  (180) 
32

>  <i_lp_mmshare_version>  (180) 
48012

>  <i_f3d_flags>  (180) 
0

>  <s_epik_input>  (180) 
W0NIMl0xW0NAQEhdKE8yKVtDQEhdKFtDSDNdKUMoPVtDSF0zKVtDQF0yKFtDSDJdW09IXSlbQ0BdKFtDSF0oW0NIM10pW0NIM10pKE4oW0NIMl1bQ0gyXU80KUMoPU8pW0NIMl1bQ0gyXTUpW0NAQEhdMVtDQEhdKFtDSF0zW0NIMl1DNDU2KVtDQEhdNltDSDNd

>  <s_epik_cmdline>  (180) 
J2VwaWtfcHl0aG9uJywgJy1waHQnLCAnMi4wJywgJy1waCcsICc3LjAnLCAnLXRuJywgJzgnLCAnLW1hJywgJzIwMCcsICctaW1hZScsICc8aW5maWxlLm1hZT4nLCAnLW9tYWUnLCAnPG91dGZpbGUubWFlPic=

>  <r_lp_tautomer_probability>  (180) 
1

>  <r_epik_Ionization_Penalty>  (180) 
5.50935e-08

>  <r_epik_Ionization_Penalty_Charging>  (180) 
0

>  <r_epik_Ionization_Penalty_Neutral>  (180) 
5.50935e-08

>  <r_epik_State_Penalty>  (180) 
-0

>  <r_epik_Charging_Adjusted_Penalty>  (180) 
0

>  <i_epik_Tot_Q>  (180) 
0

>  <i_epik_Tot_abs_Q>  (180) 
0

>  <s_lp_Force_Field>  (180) 
OPLS3e

>  <r_lp_Energy>  (180) 
279.036

>  <b_lp_Chiralities_Consistent>  (180) 
1

>  <s_lp_Variant>  (180) 
45:0-2

>  <s_i_glide_gridfile>  (180) 
pfpi4k_grid

>  <i_i_glide_lignum>  (180) 
32

>  <i_i_glide_rotatable_bonds>  (180) 
3

>  <r_i_docking_score>  (180) 
-2.1476

>  <r_i_glide_ligand_efficiency>  (180) 
-0.0740553

>  <r_i_glide_ligand_efficiency_sa>  (180) 
-0.227521

>  <r_i_glide_ligand_efficiency_ln>  (180) 
-0.491747

>  <r_i_glide_gscore>  (180) 
-2.1476

>  <r_i_glide_lipo>  (180) 
-0.122678

>  <r_i_glide_hbond>  (180) 
0

>  <r_i_glide_metal>  (180) 
-0

>  <r_i_glide_rewards>  (180) 
-0.671325

>  <r_i_glide_evdw>  (180) 
-20.2207

>  <r_i_glide_ecoul>  (180) 
-2.59456

>  <r_i_glide_erotb>  (180) 
0.121656

>  <r_i_glide_esite>  (180) 
-0.0750367

>  <r_i_glide_emodel>  (180) 
-20.2617

>  <r_i_glide_energy>  (180) 
-22.8153

>  <r_i_glide_einternal>  (180) 
8.68194

>  <r_i_glide_intrahb_reward>  (180) 
-0

>  <i_i_glide_confnum>  (180) 
5

>  <i_i_glide_posenum>  (180) 
23

>  <r_i_glide_eff_state_penalty>  (180) 
0

>  <ligand_id>  (180) 
45

>  <original_smiles>  (180) 
CC1C2=CC3CC45CCC(=O)N(CCO4)C4(C(C)C)C(CC1OC24CO)C3C5C

>  <smiles>  (180) 
[H]OC([H])([H])C12OC3([H])C([H])([H])C4([H])C5([H])C([H])(C([H])=C1C3([H])C([H])([H])[H])C([H])([H])C1(OC([H])([H])C([H])([H])N(C(=O)C([H])([H])C1([H])[H])C24C([H])(C([H])([H])[H])C([H])([H])[H])C5([H])C([H])([H])[H]

$$$$
45:1:1
     RDKit          3D

 64 69  0  0  1  0  0  0  0  0999 V2000
    2.5471    4.5944    2.7926 C   0  0  0  0  0  0  0  0  0  0  0  0
    1.7770    4.2477    4.0853 C   0  0  2  0  0  0  0  0  0  0  0  0
    2.0605    2.9847    4.8307 C   0  0  0  0  0  0  0  0  0  0  0  0
    3.0182    2.1513    4.2733 C   0  0  0  0  0  0  0  0  0  0  0  0
    2.7679    0.7669    3.6884 C   0  0  1  0  0  0  0  0  0  0  0  0
    3.4187   -0.5780    4.3129 C   0  0  0  0  0  0  0  0  0  0  0  0
    2.1674   -1.3493    4.8648 C   0  0  1  0  0  0  0  0  0  0  0  0
    1.6225   -2.6635    5.4516 C   0  0  0  0  0  0  0  0  0  0  0  0
    0.2789   -2.3385    6.3141 C   0  0  0  0  0  0  0  0  0  0  0  0
   -0.6016   -0.9940    6.0751 C   0  0  0  0  0  0  0  0  0  0  0  0
   -1.6750   -1.1849    5.5448 O   0  0  0  0  0  0  0  0  0  0  0  0
   -0.1335    0.2718    6.3464 N   0  0  0  0  0  0  0  0  0  0  0  0
    0.7934    0.3410    7.4768 C   0  0  0  0  0  0  0  0  0  0  0  0
    2.2450    0.1948    7.0034 C   0  0  0  0  0  0  0  0  0  0  0  0
    2.3909   -1.0052    6.2760 O   0  0  0  0  0  0  0  0  0  0  0  0
   -0.3505    1.5683    5.4539 C   0  0  2  0  0  0  0  0  0  0  0  0
   -1.8924    1.9876    5.6384 C   0  0  0  0  0  0  0  0  0  0  0  0
   -2.6421    2.7436    4.5040 C   0  0  0  0  0  0  0  0  0  0  0  0
   -2.2915    2.6563    6.9663 C   0  0  0  0  0  0  0  0  0  0  0  0
   -0.0387    1.3267    3.8958 C   0  0  1  0  0  0  0  0  0  0  0  0
   -0.0554    2.6566    3.0566 C   0  0  0  0  0  0  0  0  0  0  0  0
    0.3000    3.9829    3.8053 C   0  0  1  0  0  0  0  0  0  0  0  0
   -0.1172    3.8349    5.1354 O   0  0  0  0  0  0  0  0  0  0  0  0
    0.7079    2.8076    5.6926 C   0  0  2  0  0  0  0  0  0  0  0  0
    0.9431    3.4165    7.1279 C   0  0  0  0  0  0  0  0  0  0  0  0
    2.1667    3.0565    7.7267 O   0  0  0  0  0  0  0  0  0  0  0  0
    1.2561    0.4643    3.6494 C   0  0  1  0  0  0  0  0  0  0  0  0
    1.1527   -1.0208    3.7106 C   0  0  1  0  0  0  0  0  0  0  0  0
    1.4912   -1.6836    2.3617 C   0  0  0  0  0  0  0  0  0  0  0  0
    3.6051    4.7916    2.9629 H   0  0  0  0  0  0  0  0  0  0  0  0
    2.1380    5.4934    2.3353 H   0  0  0  0  0  0  0  0  0  0  0  0
    2.4785    3.8190    2.0344 H   0  0  0  0  0  0  0  0  0  0  0  0
    1.8718    5.1055    4.7580 H   0  0  0  0  0  0  0  0  0  0  0  0
    3.7781    2.6102    3.6650 H   0  0  0  0  0  0  0  0  0  0  0  0
    3.0820    0.8225    2.6396 H   0  0  0  0  0  0  0  0  0  0  0  0
    3.9117   -1.1611    3.5348 H   0  0  0  0  0  0  0  0  0  0  0  0
    4.1832   -0.3419    5.0494 H   0  0  0  0  0  0  0  0  0  0  0  0
    1.3922   -3.3737    4.6601 H   0  0  0  0  0  0  0  0  0  0  0  0
    2.3655   -3.1861    6.0738 H   0  0  0  0  0  0  0  0  0  0  0  0
   -0.3930   -3.1985    6.2122 H   0  0  0  0  0  0  0  0  0  0  0  0
    0.5654   -2.3804    7.3599 H   0  0  0  0  0  0  0  0  0  0  0  0
    0.5974    1.2212    8.0745 H   0  0  0  0  0  0  0  0  0  0  0  0
    0.5963   -0.4914    8.1677 H   0  0  0  0  0  0  0  0  0  0  0  0
    2.6203    1.0204    6.4407 H   0  0  0  0  0  0  0  0  0  0  0  0
    2.8953    0.1098    7.8762 H   0  0  0  0  0  0  0  0  0  0  0  0
   -2.4199    1.0547    5.6883 H   0  0  0  0  0  0  0  0  0  0  0  0
   -2.1137    3.6027    4.0806 H   0  0  0  0  0  0  0  0  0  0  0  0
   -3.6450    2.9963    4.8475 H   0  0  0  0  0  0  0  0  0  0  0  0
   -2.8444    2.1029    3.6516 H   0  0  0  0  0  0  0  0  0  0  0  0
   -2.0628    3.7195    6.9527 H   0  0  0  0  0  0  0  0  0  0  0  0
   -1.8447    2.2234    7.8567 H   0  0  0  0  0  0  0  0  0  0  0  0
   -3.3690    2.5930    7.1142 H   0  0  0  0  0  0  0  0  0  0  0  0
   -0.8473    0.7178    3.5180 H   0  0  0  0  0  0  0  0  0  0  0  0
    0.6244    2.5354    2.2178 H   0  0  0  0  0  0  0  0  0  0  0  0
   -1.0704    2.8209    2.7117 H   0  0  0  0  0  0  0  0  0  0  0  0
   -0.1759    4.8446    3.3459 H   0  0  0  0  0  0  0  0  0  0  0  0
    1.0081    4.5059    7.0554 H   0  0  0  0  0  0  0  0  0  0  0  0
    0.1219    3.2023    7.8011 H   0  0  0  0  0  0  0  0  0  0  0  0
    2.2352    2.0875    7.8443 H   0  0  0  0  0  0  0  0  0  0  0  0
    1.4053    0.6153    4.6681 H   0  0  0  0  0  0  0  0  0  0  0  0
    0.1389   -1.3764    3.8197 H   0  0  0  0  0  0  0  0  0  0  0  0
    2.4415   -1.3683    1.9250 H   0  0  0  0  0  0  0  0  0  0  0  0
    0.7231   -1.4188    1.6376 H   0  0  0  0  0  0  0  0  0  0  0  0
    1.5119   -2.7732    2.4415 H   0  0  0  0  0  0  0  0  0  0  0  0
  1  2  1  0
  1 30  1  0
  1 31  1  0
  1 32  1  0
  2 22  1  0
  2  3  1  0
  2 33  1  1
  3 24  1  0
  3  4  2  0
  4  5  1  0
  4 34  1  0
  5 27  1  0
  5  6  1  0
  5 35  1  6
  7  6  1  6
  6 36  1  0
  6 37  1  0
  7 15  1  0
  7 28  1  0
  7  8  1  0
  8  9  1  0
  8 38  1  0
  8 39  1  0
  9 10  1  0
  9 40  1  0
  9 41  1  0
 10 11  2  0
 10 12  1  0
 12 13  1  0
 12 16  1  0
 13 14  1  0
 13 42  1  0
 13 43  1  0
 14 15  1  0
 14 44  1  0
 14 45  1  0
 16 24  1  0
 16 17  1  6
 16 20  1  0
 17 18  1  0
 17 19  1  0
 17 46  1  0
 18 47  1  0
 18 48  1  0
 18 49  1  0
 19 50  1  0
 19 51  1  0
 19 52  1  0
 20 21  1  0
 20 27  1  0
 20 53  1  6
 21 22  1  0
 21 54  1  0
 21 55  1  0
 22 23  1  0
 22 56  1  6
 23 24  1  0
 24 25  1  1
 25 26  1  0
 25 57  1  0
 25 58  1  0
 26 59  1  0
 27 28  1  0
 27 60  1  6
 28 29  1  0
 28 61  1  1
 29 62  1  0
 29 63  1  0
 29 64  1  0
M  END
>  <i_m_ct_stereo_status>  (181) 
1

>  <s_m_source_file>  (181) 
/var/tmp/pbs.5076255.sched01/tmp2obefojl/44ql_32cm2.sdf

>  <i_m_source_file_index>  (181) 
32

>  <i_lp_mmshare_version>  (181) 
48012

>  <i_f3d_flags>  (181) 
0

>  <s_epik_input>  (181) 
W0NIMl0xW0NAQEhdKE8yKVtDQEhdKFtDSDNdKUMoPVtDSF0zKVtDQF0yKFtDSDJdW09IXSlbQ0BdKFtDSF0oW0NIM10pW0NIM10pKE4oW0NIMl1bQ0gyXU80KUMoPU8pW0NIMl1bQ0gyXTUpW0NAQEhdMVtDQEhdKFtDSF0zW0NIMl1DNDU2KVtDQEhdNltDSDNd

>  <s_epik_cmdline>  (181) 
J2VwaWtfcHl0aG9uJywgJy1waHQnLCAnMi4wJywgJy1waCcsICc3LjAnLCAnLXRuJywgJzgnLCAnLW1hJywgJzIwMCcsICctaW1hZScsICc8aW5maWxlLm1hZT4nLCAnLW9tYWUnLCAnPG91dGZpbGUubWFlPic=

>  <r_lp_tautomer_probability>  (181) 
1

>  <r_epik_Ionization_Penalty>  (181) 
5.50935e-08

>  <r_epik_Ionization_Penalty_Charging>  (181) 
0

>  <r_epik_Ionization_Penalty_Neutral>  (181) 
5.50935e-08

>  <r_epik_State_Penalty>  (181) 
-0

>  <r_epik_Charging_Adjusted_Penalty>  (181) 
0

>  <i_epik_Tot_Q>  (181) 
0

>  <i_epik_Tot_abs_Q>  (181) 
0

>  <s_lp_Force_Field>  (181) 
OPLS3e

>  <r_lp_Energy>  (181) 
279.036

>  <b_lp_Chiralities_Consistent>  (181) 
1

>  <s_lp_Variant>  (181) 
45:0-2

>  <s_i_glide_gridfile>  (181) 
pfpi4k_grid

>  <i_i_glide_lignum>  (181) 
32

>  <i_i_glide_rotatable_bonds>  (181) 
3

>  <r_i_docking_score>  (181) 
-2.0679

>  <r_i_glide_ligand_efficiency>  (181) 
-0.0713069

>  <r_i_glide_ligand_efficiency_sa>  (181) 
-0.219077

>  <r_i_glide_ligand_efficiency_ln>  (181) 
-0.473496

>  <r_i_glide_gscore>  (181) 
-2.0679

>  <r_i_glide_lipo>  (181) 
-0.115268

>  <r_i_glide_hbond>  (181) 
0

>  <r_i_glide_metal>  (181) 
-0

>  <r_i_glide_rewards>  (181) 
-0.671325

>  <r_i_glide_evdw>  (181) 
-20.1525

>  <r_i_glide_ecoul>  (181) 
-2.13697

>  <r_i_glide_erotb>  (181) 
0.121656

>  <r_i_glide_esite>  (181) 
-0.0747916

>  <r_i_glide_emodel>  (181) 
-19.3108

>  <r_i_glide_energy>  (181) 
-22.2895

>  <r_i_glide_einternal>  (181) 
8.9857

>  <r_i_glide_intrahb_reward>  (181) 
-0

>  <i_i_glide_confnum>  (181) 
5

>  <i_i_glide_posenum>  (181) 
18

>  <r_i_glide_eff_state_penalty>  (181) 
0

>  <ligand_id>  (181) 
45

>  <original_smiles>  (181) 
CC1C2=CC3CC45CCC(=O)N(CCO4)C4(C(C)C)C(CC1OC24CO)C3C5C

>  <smiles>  (181) 
[H]OC([H])([H])C12OC3([H])C([H])([H])C4([H])C5([H])C([H])(C([H])=C1C3([H])C([H])([H])[H])C([H])([H])C1(OC([H])([H])C([H])([H])N(C(=O)C([H])([H])C1([H])[H])C24C([H])(C([H])([H])[H])C([H])([H])[H])C5([H])C([H])([H])[H]

$$$$
45:1:2
     RDKit          3D

 64 69  0  0  1  0  0  0  0  0999 V2000
    2.2550    5.0621    2.9122 C   0  0  0  0  0  0  0  0  0  0  0  0
    1.6081    4.6322    4.2503 C   0  0  2  0  0  0  0  0  0  0  0  0
    2.0153    3.3834    4.9505 C   0  0  0  0  0  0  0  0  0  0  0  0
    2.9584    2.6002    4.2711 C   0  0  0  0  0  0  0  0  0  0  0  0
    2.7245    1.2280    3.6627 C   0  0  1  0  0  0  0  0  0  0  0  0
    3.4907   -0.1044    4.1849 C   0  0  0  0  0  0  0  0  0  0  0  0
    2.3185   -0.9395    4.8142 C   0  0  1  0  0  0  0  0  0  0  0  0
    1.9006   -2.3074    5.3900 C   0  0  0  0  0  0  0  0  0  0  0  0
    0.6202   -2.0741    6.3724 C   0  0  0  0  0  0  0  0  0  0  0  0
   -0.3243   -0.7831    6.2529 C   0  0  0  0  0  0  0  0  0  0  0  0
   -1.4466   -1.0076    5.7787 O   0  0  0  0  0  0  0  0  0  0  0  0
    0.0795    0.5159    6.5201 N   0  0  0  0  0  0  0  0  0  0  0  0
    1.0953    0.5881    7.5801 C   0  0  0  0  0  0  0  0  0  0  0  0
    2.5045    0.5438    6.9886 C   0  0  0  0  0  0  0  0  0  0  0  0
    2.6541   -0.6213    6.2089 O   0  0  0  0  0  0  0  0  0  0  0  0
   -0.2601    1.8164    5.7125 C   0  0  2  0  0  0  0  0  0  0  0  0
   -1.8088    2.1462    6.0291 C   0  0  0  0  0  0  0  0  0  0  0  0
   -2.7028    2.9104    5.0114 C   0  0  0  0  0  0  0  0  0  0  0  0
   -2.1292    2.7447    7.4144 C   0  0  0  0  0  0  0  0  0  0  0  0
   -0.0721    1.6315    4.1280 C   0  0  1  0  0  0  0  0  0  0  0  0
   -0.2248    2.9789    3.3235 C   0  0  0  0  0  0  0  0  0  0  0  0
    0.1462    4.3131    4.0982 C   0  0  1  0  0  0  0  0  0  0  0  0
   -0.1480    4.0848    5.4582 O   0  0  0  0  0  0  0  0  0  0  0  0
    0.7639    3.0927    5.9055 C   0  0  2  0  0  0  0  0  0  0  0  0
    1.0855    3.6832    7.3346 C   0  0  0  0  0  0  0  0  0  0  0  0
    2.3756    3.3605    7.8211 O   0  0  0  0  0  0  0  0  0  0  0  0
    1.2327    0.8479    3.7404 C   0  0  1  0  0  0  0  0  0  0  0  0
    1.2007   -0.6349    3.7481 C   0  0  1  0  0  0  0  0  0  0  0  0
    1.4568   -1.2388    2.3490 C   0  0  0  0  0  0  0  0  0  0  0  0
    3.3060    5.3107    3.0116 H   0  0  0  0  0  0  0  0  0  0  0  0
    1.7617    5.9449    2.5316 H   0  0  0  0  0  0  0  0  0  0  0  0
    2.1695    4.3120    2.1367 H   0  0  0  0  0  0  0  0  0  0  0  0
    1.7172    5.4730    4.9484 H   0  0  0  0  0  0  0  0  0  0  0  0
    3.6425    3.1170    3.6216 H   0  0  0  0  0  0  0  0  0  0  0  0
    2.9502    1.3347    2.5952 H   0  0  0  0  0  0  0  0  0  0  0  0
    3.9429   -0.6342    3.3439 H   0  0  0  0  0  0  0  0  0  0  0  0
    4.3021    0.1519    4.8616 H   0  0  0  0  0  0  0  0  0  0  0  0
    1.6373   -3.0022    4.5967 H   0  0  0  0  0  0  0  0  0  0  0  0
    2.7157   -2.8033    5.9317 H   0  0  0  0  0  0  0  0  0  0  0  0
   -0.0165   -2.9686    6.2972 H   0  0  0  0  0  0  0  0  0  0  0  0
    0.9951   -2.1374    7.3926 H   0  0  0  0  0  0  0  0  0  0  0  0
    0.9233    1.4385    8.2249 H   0  0  0  0  0  0  0  0  0  0  0  0
    1.0006   -0.2616    8.2625 H   0  0  0  0  0  0  0  0  0  0  0  0
    2.7898    1.4199    6.4555 H   0  0  0  0  0  0  0  0  0  0  0  0
    3.2245    0.4675    7.8026 H   0  0  0  0  0  0  0  0  0  0  0  0
   -2.2952    1.1860    6.0744 H   0  0  0  0  0  0  0  0  0  0  0  0
   -2.2755    3.8086    4.5828 H   0  0  0  0  0  0  0  0  0  0  0  0
   -3.6782    3.0869    5.4351 H   0  0  0  0  0  0  0  0  0  0  0  0
   -2.9330    2.2872    4.1378 H   0  0  0  0  0  0  0  0  0  0  0  0
   -1.9591    3.8184    7.4212 H   0  0  0  0  0  0  0  0  0  0  0  0
   -1.5817    2.3036    8.2406 H   0  0  0  0  0  0  0  0  0  0  0  0
   -3.1888    2.6114    7.6457 H   0  0  0  0  0  0  0  0  0  0  0  0
   -0.8853    1.0009    3.7885 H   0  0  0  0  0  0  0  0  0  0  0  0
    0.4179    2.9058    2.4379 H   0  0  0  0  0  0  0  0  0  0  0  0
   -1.2622    3.1030    3.0395 H   0  0  0  0  0  0  0  0  0  0  0  0
   -0.4240    5.1554    3.7044 H   0  0  0  0  0  0  0  0  0  0  0  0
    1.0674    4.7674    7.2794 H   0  0  0  0  0  0  0  0  0  0  0  0
    0.3414    3.4259    8.0664 H   0  0  0  0  0  0  0  0  0  0  0  0
    2.9871    3.4043    7.1397 H   0  0  0  0  0  0  0  0  0  0  0  0
    1.4519    0.9797    4.7454 H   0  0  0  0  0  0  0  0  0  0  0  0
    0.2237   -1.0472    3.9276 H   0  0  0  0  0  0  0  0  0  0  0  0
    2.3562   -0.8664    1.8522 H   0  0  0  0  0  0  0  0  0  0  0  0
    0.6265   -0.9967    1.6891 H   0  0  0  0  0  0  0  0  0  0  0  0
    1.5363   -2.3321    2.3868 H   0  0  0  0  0  0  0  0  0  0  0  0
  1  2  1  0
  1 30  1  0
  1 31  1  0
  1 32  1  0
  2 22  1  0
  2  3  1  0
  2 33  1  1
  3 24  1  0
  3  4  2  0
  4  5  1  0
  4 34  1  0
  5 27  1  0
  5  6  1  0
  5 35  1  6
  7  6  1  6
  6 36  1  0
  6 37  1  0
  7 15  1  0
  7 28  1  0
  7  8  1  0
  8  9  1  0
  8 38  1  0
  8 39  1  0
  9 10  1  0
  9 40  1  0
  9 41  1  0
 10 11  2  0
 10 12  1  0
 12 13  1  0
 12 16  1  0
 13 14  1  0
 13 42  1  0
 13 43  1  0
 14 15  1  0
 14 44  1  0
 14 45  1  0
 16 24  1  0
 16 17  1  6
 16 20  1  0
 17 18  1  0
 17 19  1  0
 17 46  1  0
 18 47  1  0
 18 48  1  0
 18 49  1  0
 19 50  1  0
 19 51  1  0
 19 52  1  0
 20 21  1  0
 20 27  1  0
 20 53  1  6
 21 22  1  0
 21 54  1  0
 21 55  1  0
 22 23  1  0
 22 56  1  6
 23 24  1  0
 24 25  1  1
 25 26  1  0
 25 57  1  0
 25 58  1  0
 26 59  1  0
 27 28  1  0
 27 60  1  6
 28 29  1  0
 28 61  1  1
 29 62  1  0
 29 63  1  0
 29 64  1  0
M  END
>  <i_m_ct_stereo_status>  (182) 
1

>  <s_m_source_file>  (182) 
/var/tmp/pbs.5076255.sched01/tmp2obefojl/44ql_32cm2.sdf

>  <i_m_source_file_index>  (182) 
32

>  <i_lp_mmshare_version>  (182) 
48012

>  <i_f3d_flags>  (182) 
0

>  <s_epik_input>  (182) 
W0NIMl0xW0NAQEhdKE8yKVtDQEhdKFtDSDNdKUMoPVtDSF0zKVtDQF0yKFtDSDJdW09IXSlbQ0BdKFtDSF0oW0NIM10pW0NIM10pKE4oW0NIMl1bQ0gyXU80KUMoPU8pW0NIMl1bQ0gyXTUpW0NAQEhdMVtDQEhdKFtDSF0zW0NIMl1DNDU2KVtDQEhdNltDSDNd

>  <s_epik_cmdline>  (182) 
J2VwaWtfcHl0aG9uJywgJy1waHQnLCAnMi4wJywgJy1waCcsICc3LjAnLCAnLXRuJywgJzgnLCAnLW1hJywgJzIwMCcsICctaW1hZScsICc8aW5maWxlLm1hZT4nLCAnLW9tYWUnLCAnPG91dGZpbGUubWFlPic=

>  <r_lp_tautomer_probability>  (182) 
1

>  <r_epik_Ionization_Penalty>  (182) 
5.50935e-08

>  <r_epik_Ionization_Penalty_Charging>  (182) 
0

>  <r_epik_Ionization_Penalty_Neutral>  (182) 
5.50935e-08

>  <r_epik_State_Penalty>  (182) 
-0

>  <r_epik_Charging_Adjusted_Penalty>  (182) 
0

>  <i_epik_Tot_Q>  (182) 
0

>  <i_epik_Tot_abs_Q>  (182) 
0

>  <s_lp_Force_Field>  (182) 
OPLS3e

>  <r_lp_Energy>  (182) 
279.036

>  <b_lp_Chiralities_Consistent>  (182) 
1

>  <s_lp_Variant>  (182) 
45:0-2

>  <s_i_glide_gridfile>  (182) 
pfpi4k_grid

>  <i_i_glide_lignum>  (182) 
32

>  <i_i_glide_rotatable_bonds>  (182) 
3

>  <r_i_docking_score>  (182) 
-2.01173

>  <r_i_glide_ligand_efficiency>  (182) 
-0.0693701

>  <r_i_glide_ligand_efficiency_sa>  (182) 
-0.213127

>  <r_i_glide_ligand_efficiency_ln>  (182) 
-0.460636

>  <r_i_glide_gscore>  (182) 
-2.01173

>  <r_i_glide_lipo>  (182) 
-0.0744199

>  <r_i_glide_hbond>  (182) 
-0.0161074

>  <r_i_glide_metal>  (182) 
-0

>  <r_i_glide_rewards>  (182) 
-0.671325

>  <r_i_glide_evdw>  (182) 
-18.9883

>  <r_i_glide_ecoul>  (182) 
-2.423

>  <r_i_glide_erotb>  (182) 
0.121656

>  <r_i_glide_esite>  (182) 
-0.0586719

>  <r_i_glide_emodel>  (182) 
-18.8139

>  <r_i_glide_energy>  (182) 
-21.4113

>  <r_i_glide_einternal>  (182) 
8.24741

>  <r_i_glide_intrahb_reward>  (182) 
-0

>  <i_i_glide_confnum>  (182) 
2

>  <i_i_glide_posenum>  (182) 
1

>  <r_i_glide_eff_state_penalty>  (182) 
0

>  <ligand_id>  (182) 
45

>  <original_smiles>  (182) 
CC1C2=CC3CC45CCC(=O)N(CCO4)C4(C(C)C)C(CC1OC24CO)C3C5C

>  <smiles>  (182) 
[H]OC([H])([H])C12OC3([H])C([H])([H])C4([H])C5([H])C([H])(C([H])=C1C3([H])C([H])([H])[H])C([H])([H])C1(OC([H])([H])C([H])([H])N(C(=O)C([H])([H])C1([H])[H])C24C([H])(C([H])([H])[H])C([H])([H])[H])C5([H])C([H])([H])[H]

$$$$
45:2:0
     RDKit          3D

 64 69  0  0  1  0  0  0  0  0999 V2000
    4.8917   -3.9607   -3.5222 C   0  0  0  0  0  0  0  0  0  0  0  0
    5.0927   -3.1437   -2.2507 C   0  0  2  0  0  0  0  0  0  0  0  0
    5.2363   -3.7996   -0.8901 C   0  0  0  0  0  0  0  0  0  0  0  0
    5.0006   -5.1527   -0.8270 C   0  0  0  0  0  0  0  0  0  0  0  0
    3.9593   -5.9127    0.0029 C   0  0  2  0  0  0  0  0  0  0  0  0
    3.8802   -7.0659    1.1290 C   0  0  0  0  0  0  0  0  0  0  0  0
    3.4317   -6.1828    2.3660 C   0  0  2  0  0  0  0  0  0  0  0  0
    4.8553   -5.7741    2.9908 C   0  0  0  0  0  0  0  0  0  0  0  0
    5.6464   -4.5094    2.6486 C   0  0  0  0  0  0  0  0  0  0  0  0
    4.9140   -3.2438    3.0692 C   0  0  0  0  0  0  0  0  0  0  0  0
    5.3053   -2.5653    4.0137 O   0  0  0  0  0  0  0  0  0  0  0  0
    3.7341   -3.0194    2.4945 N   0  0  0  0  0  0  0  0  0  0  0  0
    2.6254   -3.3656    3.4695 C   0  0  0  0  0  0  0  0  0  0  0  0
    2.5951   -4.8221    4.2112 C   0  0  0  0  0  0  0  0  0  0  0  0
    2.6210   -6.1664    3.5415 O   0  0  0  0  0  0  0  0  0  0  0  0
    3.6001   -2.4936    1.0351 C   0  0  2  0  0  0  0  0  0  0  0  0
    2.9635   -1.0216    1.1643 C   0  0  0  0  0  0  0  0  0  0  0  0
    3.8628    0.0778    1.7439 C   0  0  0  0  0  0  0  0  0  0  0  0
    1.6127   -0.8836    1.9160 C   0  0  0  0  0  0  0  0  0  0  0  0
    2.7004   -3.4204    0.1134 C   0  0  1  0  0  0  0  0  0  0  0  0
    2.6697   -3.0342   -1.4254 C   0  0  0  0  0  0  0  0  0  0  0  0
    3.9220   -2.2536   -1.9455 C   0  0  1  0  0  0  0  0  0  0  0  0
    4.5233   -1.5569   -0.8803 O   0  0  0  0  0  0  0  0  0  0  0  0
    4.9468   -2.5431    0.0688 C   0  0  2  0  0  0  0  0  0  0  0  0
    6.3123   -1.9229    0.5590 C   0  0  0  0  0  0  0  0  0  0  0  0
    7.3462   -1.9832   -0.4185 O   0  0  0  0  0  0  0  0  0  0  0  0
    2.8717   -4.9334    0.3789 C   0  0  1  0  0  0  0  0  0  0  0  0
    2.2215   -5.5346    1.5395 C   0  0  1  0  0  0  0  0  0  0  0  0
    1.0474   -6.4787    1.1619 C   0  0  0  0  0  0  0  0  0  0  0  0
    5.7704   -4.5773   -3.6437 H   0  0  0  0  0  0  0  0  0  0  0  0
    4.8373   -3.3182   -4.3888 H   0  0  0  0  0  0  0  0  0  0  0  0
    4.0233   -4.5978   -3.5636 H   0  0  0  0  0  0  0  0  0  0  0  0
    5.9668   -2.5304   -2.4397 H   0  0  0  0  0  0  0  0  0  0  0  0
    5.0116   -5.6962   -1.7571 H   0  0  0  0  0  0  0  0  0  0  0  0
    4.9247   -5.8584    0.4921 H   0  0  0  0  0  0  0  0  0  0  0  0
    3.1400   -7.8312    0.9001 H   0  0  0  0  0  0  0  0  0  0  0  0
    4.8020   -7.6527    1.2260 H   0  0  0  0  0  0  0  0  0  0  0  0
    4.8572   -5.8713    4.0761 H   0  0  0  0  0  0  0  0  0  0  0  0
    5.5705   -6.5747    2.7878 H   0  0  0  0  0  0  0  0  0  0  0  0
    6.5852   -4.6254    3.1873 H   0  0  0  0  0  0  0  0  0  0  0  0
    5.9546   -4.4725    1.6133 H   0  0  0  0  0  0  0  0  0  0  0  0
    2.7000   -2.6374    4.2791 H   0  0  0  0  0  0  0  0  0  0  0  0
    1.6335   -3.1434    3.0834 H   0  0  0  0  0  0  0  0  0  0  0  0
    3.3404   -4.8182    5.0121 H   0  0  0  0  0  0  0  0  0  0  0  0
    1.6576   -4.8448    4.7686 H   0  0  0  0  0  0  0  0  0  0  0  0
    2.6787   -0.6884    0.1718 H   0  0  0  0  0  0  0  0  0  0  0  0
    4.3218   -0.2302    2.6776 H   0  0  0  0  0  0  0  0  0  0  0  0
    3.2817    0.9739    1.9512 H   0  0  0  0  0  0  0  0  0  0  0  0
    4.6071    0.3992    1.0293 H   0  0  0  0  0  0  0  0  0  0  0  0
    1.7330   -0.9183    3.0003 H   0  0  0  0  0  0  0  0  0  0  0  0
    0.8594   -1.6138    1.6145 H   0  0  0  0  0  0  0  0  0  0  0  0
    1.1761    0.0959    1.7021 H   0  0  0  0  0  0  0  0  0  0  0  0
    1.7123   -3.1918    0.4343 H   0  0  0  0  0  0  0  0  0  0  0  0
    2.4149   -3.8822   -2.0473 H   0  0  0  0  0  0  0  0  0  0  0  0
    1.8153   -2.3527   -1.6517 H   0  0  0  0  0  0  0  0  0  0  0  0
    3.6802   -1.6038   -2.7996 H   0  0  0  0  0  0  0  0  0  0  0  0
    6.2394   -0.8773    0.8533 H   0  0  0  0  0  0  0  0  0  0  0  0
    6.7504   -2.4566    1.3976 H   0  0  0  0  0  0  0  0  0  0  0  0
    7.4968   -2.8910   -0.6497 H   0  0  0  0  0  0  0  0  0  0  0  0
    3.6609   -4.6029    0.9543 H   0  0  0  0  0  0  0  0  0  0  0  0
    1.6008   -4.8119    2.0096 H   0  0  0  0  0  0  0  0  0  0  0  0
    1.2548   -7.1245    0.3180 H   0  0  0  0  0  0  0  0  0  0  0  0
    0.1741   -5.9114    0.8539 H   0  0  0  0  0  0  0  0  0  0  0  0
    0.7389   -7.1085    2.0026 H   0  0  0  0  0  0  0  0  0  0  0  0
  1  2  1  0
  1 30  1  0
  1 31  1  0
  1 32  1  0
  2 22  1  0
  2  3  1  0
  2 33  1  6
  3 24  1  0
  3  4  2  0
  4  5  1  0
  4 34  1  0
  5 27  1  0
  5  6  1  0
  5 35  1  6
  7  6  1  6
  6 36  1  0
  6 37  1  0
  7 15  1  0
  7 28  1  0
  7  8  1  0
  8  9  1  0
  8 38  1  0
  8 39  1  0
  9 10  1  0
  9 40  1  0
  9 41  1  0
 10 11  2  0
 10 12  1  0
 12 13  1  0
 12 16  1  0
 13 14  1  0
 13 42  1  0
 13 43  1  0
 14 15  1  0
 14 44  1  0
 14 45  1  0
 16 24  1  0
 16 17  1  1
 16 20  1  0
 17 18  1  0
 17 19  1  0
 17 46  1  0
 18 47  1  0
 18 48  1  0
 18 49  1  0
 19 50  1  0
 19 51  1  0
 19 52  1  0
 20 21  1  0
 20 27  1  0
 20 53  1  1
 21 22  1  0
 21 54  1  0
 21 55  1  0
 22 23  1  0
 22 56  1  6
 23 24  1  0
 24 25  1  1
 25 26  1  0
 25 57  1  0
 25 58  1  0
 26 59  1  0
 27 28  1  0
 27 60  1  6
 28 29  1  0
 28 61  1  1
 29 62  1  0
 29 63  1  0
 29 64  1  0
M  END
>  <i_m_ct_stereo_status>  (183) 
1

>  <s_m_source_file>  (183) 
/var/tmp/pbs.5076255.sched01/tmp2obefojl/44ql_32cm2.sdf

>  <i_m_source_file_index>  (183) 
33

>  <i_lp_mmshare_version>  (183) 
48012

>  <i_f3d_flags>  (183) 
0

>  <s_epik_input>  (183) 
W0NIMl0xW0NAQEhdKE8yKVtDQEhdKFtDSDNdKUMoPVtDSF0zKVtDQF0yKFtDSDJdW09IXSlbQ0BdKFtDSF0oW0NIM10pW0NIM10pKE4oW0NIMl1bQ0gyXU80KUMoPU8pW0NIMl1bQ0gyXTUpW0NAQEhdMVtDQEhdKFtDSF0zW0NIMl1DNDU2KVtDQEhdNltDSDNd

>  <s_epik_cmdline>  (183) 
J2VwaWtfcHl0aG9uJywgJy1waHQnLCAnMi4wJywgJy1waCcsICc3LjAnLCAnLXRuJywgJzgnLCAnLW1hJywgJzIwMCcsICctaW1hZScsICc8aW5maWxlLm1hZT4nLCAnLW9tYWUnLCAnPG91dGZpbGUubWFlPic=

>  <r_lp_tautomer_probability>  (183) 
1

>  <r_epik_Ionization_Penalty>  (183) 
5.50935e-08

>  <r_epik_Ionization_Penalty_Charging>  (183) 
0

>  <r_epik_Ionization_Penalty_Neutral>  (183) 
5.50935e-08

>  <r_epik_State_Penalty>  (183) 
-0

>  <r_epik_Charging_Adjusted_Penalty>  (183) 
0

>  <i_epik_Tot_Q>  (183) 
0

>  <i_epik_Tot_abs_Q>  (183) 
0

>  <s_lp_Force_Field>  (183) 
OPLS3e

>  <r_lp_Energy>  (183) 
339.992

>  <b_lp_Chiralities_Consistent>  (183) 
1

>  <s_lp_Variant>  (183) 
45:0-3

>  <s_i_glide_gridfile>  (183) 
pfpi4k_grid

>  <i_i_glide_lignum>  (183) 
33

>  <i_i_glide_rotatable_bonds>  (183) 
3

>  <r_i_docking_score>  (183) 
-2.07211

>  <r_i_glide_ligand_efficiency>  (183) 
-0.0714521

>  <r_i_glide_ligand_efficiency_sa>  (183) 
-0.219524

>  <r_i_glide_ligand_efficiency_ln>  (183) 
-0.474461

>  <r_i_glide_gscore>  (183) 
-2.07211

>  <r_i_glide_lipo>  (183) 
-0.416111

>  <r_i_glide_hbond>  (183) 
0

>  <r_i_glide_metal>  (183) 
-0

>  <r_i_glide_rewards>  (183) 
-0.727887

>  <r_i_glide_evdw>  (183) 
-10.1589

>  <r_i_glide_ecoul>  (183) 
-3.61218

>  <r_i_glide_erotb>  (183) 
0.121656

>  <r_i_glide_esite>  (183) 
0

>  <r_i_glide_emodel>  (183) 
-13.5763

>  <r_i_glide_energy>  (183) 
-13.771

>  <r_i_glide_einternal>  (183) 
2.82093

>  <r_i_glide_intrahb_reward>  (183) 
-0

>  <i_i_glide_confnum>  (183) 
1

>  <i_i_glide_posenum>  (183) 
17

>  <r_i_glide_eff_state_penalty>  (183) 
0

>  <ligand_id>  (183) 
45

>  <original_smiles>  (183) 
CC1C2=CC3CC45CCC(=O)N(CCO4)C4(C(C)C)C(CC1OC24CO)C3C5C

>  <smiles>  (183) 
[H]OC([H])([H])C12OC3([H])C([H])([H])C4([H])C5([H])C([H])(C([H])=C1C3([H])C([H])([H])[H])C([H])([H])C1(OC([H])([H])C([H])([H])N(C(=O)C([H])([H])C1([H])[H])C24C([H])(C([H])([H])[H])C([H])([H])[H])C5([H])C([H])([H])[H]

$$$$
45:2:1
     RDKit          3D

 64 69  0  0  1  0  0  0  0  0999 V2000
    4.2586   -3.7842   -4.0817 C   0  0  0  0  0  0  0  0  0  0  0  0
    4.4890   -2.8133   -2.8941 C   0  0  2  0  0  0  0  0  0  0  0  0
    5.0197   -3.2789   -1.5663 C   0  0  0  0  0  0  0  0  0  0  0  0
    5.0920   -4.6481   -1.4399 C   0  0  0  0  0  0  0  0  0  0  0  0
    4.5434   -5.5670   -0.3517 C   0  0  2  0  0  0  0  0  0  0  0  0
    5.0624   -6.5629    0.8216 C   0  0  0  0  0  0  0  0  0  0  0  0
    4.7241   -5.7107    2.1249 C   0  0  2  0  0  0  0  0  0  0  0  0
    6.0803   -4.9128    2.3815 C   0  0  0  0  0  0  0  0  0  0  0  0
    6.3885   -3.5454    1.7863 C   0  0  0  0  0  0  0  0  0  0  0  0
    5.4762   -2.4144    2.2536 C   0  0  0  0  0  0  0  0  0  0  0  0
    5.9006   -1.3986    2.7877 O   0  0  0  0  0  0  0  0  0  0  0  0
    4.1911   -2.5957    2.0568 N   0  0  0  0  0  0  0  0  0  0  0  0
    3.4883   -3.0620    3.2991 C   0  0  0  0  0  0  0  0  0  0  0  0
    4.0099   -4.4016    4.0701 C   0  0  0  0  0  0  0  0  0  0  0  0
    4.2206   -5.7603    3.4624 O   0  0  0  0  0  0  0  0  0  0  0  0
    3.5852   -2.2410    0.6858 C   0  0  2  0  0  0  0  0  0  0  0  0
    2.7513   -0.8966    0.9818 C   0  0  0  0  0  0  0  0  0  0  0  0
    3.4667    0.3133    1.5858 C   0  0  0  0  0  0  0  0  0  0  0  0
    1.4191   -1.0480    1.7440 C   0  0  0  0  0  0  0  0  0  0  0  0
    2.7413   -3.4377    0.0403 C   0  0  1  0  0  0  0  0  0  0  0  0
    2.3040   -3.1863   -1.4676 C   0  0  0  0  0  0  0  0  0  0  0  0
    3.2037   -2.2291   -2.3374 C   0  0  1  0  0  0  0  0  0  0  0  0
    3.8126   -1.3175   -1.4529 O   0  0  0  0  0  0  0  0  0  0  0  0
    4.6497   -2.0761   -0.5789 C   0  0  2  0  0  0  0  0  0  0  0  0
    5.8521   -1.0933   -0.4936 C   0  0  0  0  0  0  0  0  0  0  0  0
    7.1231   -1.6996   -0.3587 O   0  0  0  0  0  0  0  0  0  0  0  0
    3.4050   -4.8263    0.3060 C   0  0  1  0  0  0  0  0  0  0  0  0
    3.2331   -5.4459    1.6160 C   0  0  1  0  0  0  0  0  0  0  0  0
    2.2748   -6.6591    1.5727 C   0  0  0  0  0  0  0  0  0  0  0  0
    5.1915   -4.2225   -4.4416 H   0  0  0  0  0  0  0  0  0  0  0  0
    3.8154   -3.2240   -4.8950 H   0  0  0  0  0  0  0  0  0  0  0  0
    3.5574   -4.5983   -3.9259 H   0  0  0  0  0  0  0  0  0  0  0  0
    5.1199   -2.0074   -3.2563 H   0  0  0  0  0  0  0  0  0  0  0  0
    5.1402   -5.1969   -2.3562 H   0  0  0  0  0  0  0  0  0  0  0  0
    5.5661   -5.2632   -0.1528 H   0  0  0  0  0  0  0  0  0  0  0  0
    4.5266   -7.5144    0.7917 H   0  0  0  0  0  0  0  0  0  0  0  0
    6.1100   -6.8923    0.7219 H   0  0  0  0  0  0  0  0  0  0  0  0
    6.3679   -4.9148    3.4288 H   0  0  0  0  0  0  0  0  0  0  0  0
    6.9122   -5.5228    2.0239 H   0  0  0  0  0  0  0  0  0  0  0  0
    7.4105   -3.2916    2.0055 H   0  0  0  0  0  0  0  0  0  0  0  0
    6.3852   -3.6436    0.7169 H   0  0  0  0  0  0  0  0  0  0  0  0
    3.5802   -2.2365    4.0106 H   0  0  0  0  0  0  0  0  0  0  0  0
    2.4124   -3.1031    3.1383 H   0  0  0  0  0  0  0  0  0  0  0  0
    4.8943   -4.1327    4.6500 H   0  0  0  0  0  0  0  0  0  0  0  0
    3.2683   -4.5884    4.8454 H   0  0  0  0  0  0  0  0  0  0  0  0
    2.4964   -0.4095    0.0625 H   0  0  0  0  0  0  0  0  0  0  0  0
    3.9334    0.1129    2.5482 H   0  0  0  0  0  0  0  0  0  0  0  0
    2.7277    1.0979    1.7419 H   0  0  0  0  0  0  0  0  0  0  0  0
    4.1705    0.7483    0.8882 H   0  0  0  0  0  0  0  0  0  0  0  0
    1.5288   -1.1839    2.8193 H   0  0  0  0  0  0  0  0  0  0  0  0
    0.7961   -1.8344    1.3362 H   0  0  0  0  0  0  0  0  0  0  0  0
    0.8203   -0.1517    1.6122 H   0  0  0  0  0  0  0  0  0  0  0  0
    1.8190   -3.5194    0.6037 H   0  0  0  0  0  0  0  0  0  0  0  0
    2.1209   -4.1344   -1.9769 H   0  0  0  0  0  0  0  0  0  0  0  0
    1.3413   -2.7183   -1.4870 H   0  0  0  0  0  0  0  0  0  0  0  0
    2.6236   -1.7116   -3.1038 H   0  0  0  0  0  0  0  0  0  0  0  0
    5.8634   -0.5312   -1.4239 H   0  0  0  0  0  0  0  0  0  0  0  0
    5.7872   -0.3599    0.2958 H   0  0  0  0  0  0  0  0  0  0  0  0
    7.0962   -2.5956   -0.6691 H   0  0  0  0  0  0  0  0  0  0  0  0
    4.2156   -4.2673    0.6200 H   0  0  0  0  0  0  0  0  0  0  0  0
    2.5731   -4.8452    2.1983 H   0  0  0  0  0  0  0  0  0  0  0  0
    2.4611   -7.3239    0.7431 H   0  0  0  0  0  0  0  0  0  0  0  0
    1.2459   -6.3189    1.4553 H   0  0  0  0  0  0  0  0  0  0  0  0
    2.3311   -7.2475    2.4865 H   0  0  0  0  0  0  0  0  0  0  0  0
  1  2  1  0
  1 30  1  0
  1 31  1  0
  1 32  1  0
  2 22  1  0
  2  3  1  0
  2 33  1  6
  3 24  1  0
  3  4  2  0
  4  5  1  0
  4 34  1  0
  5 27  1  0
  5  6  1  0
  5 35  1  6
  7  6  1  6
  6 36  1  0
  6 37  1  0
  7 15  1  0
  7 28  1  0
  7  8  1  0
  8  9  1  0
  8 38  1  0
  8 39  1  0
  9 10  1  0
  9 40  1  0
  9 41  1  0
 10 11  2  0
 10 12  1  0
 12 13  1  0
 12 16  1  0
 13 14  1  0
 13 42  1  0
 13 43  1  0
 14 15  1  0
 14 44  1  0
 14 45  1  0
 16 24  1  0
 16 17  1  1
 16 20  1  0
 17 18  1  0
 17 19  1  0
 17 46  1  0
 18 47  1  0
 18 48  1  0
 18 49  1  0
 19 50  1  0
 19 51  1  0
 19 52  1  0
 20 21  1  0
 20 27  1  0
 20 53  1  1
 21 22  1  0
 21 54  1  0
 21 55  1  0
 22 23  1  0
 22 56  1  6
 23 24  1  0
 24 25  1  1
 25 26  1  0
 25 57  1  0
 25 58  1  0
 26 59  1  0
 27 28  1  0
 27 60  1  6
 28 29  1  0
 28 61  1  1
 29 62  1  0
 29 63  1  0
 29 64  1  0
M  END
>  <i_m_ct_stereo_status>  (184) 
1

>  <s_m_source_file>  (184) 
/var/tmp/pbs.5076255.sched01/tmp2obefojl/44ql_32cm2.sdf

>  <i_m_source_file_index>  (184) 
33

>  <i_lp_mmshare_version>  (184) 
48012

>  <i_f3d_flags>  (184) 
0

>  <s_epik_input>  (184) 
W0NIMl0xW0NAQEhdKE8yKVtDQEhdKFtDSDNdKUMoPVtDSF0zKVtDQF0yKFtDSDJdW09IXSlbQ0BdKFtDSF0oW0NIM10pW0NIM10pKE4oW0NIMl1bQ0gyXU80KUMoPU8pW0NIMl1bQ0gyXTUpW0NAQEhdMVtDQEhdKFtDSF0zW0NIMl1DNDU2KVtDQEhdNltDSDNd

>  <s_epik_cmdline>  (184) 
J2VwaWtfcHl0aG9uJywgJy1waHQnLCAnMi4wJywgJy1waCcsICc3LjAnLCAnLXRuJywgJzgnLCAnLW1hJywgJzIwMCcsICctaW1hZScsICc8aW5maWxlLm1hZT4nLCAnLW9tYWUnLCAnPG91dGZpbGUubWFlPic=

>  <r_lp_tautomer_probability>  (184) 
1

>  <r_epik_Ionization_Penalty>  (184) 
5.50935e-08

>  <r_epik_Ionization_Penalty_Charging>  (184) 
0

>  <r_epik_Ionization_Penalty_Neutral>  (184) 
5.50935e-08

>  <r_epik_State_Penalty>  (184) 
-0

>  <r_epik_Charging_Adjusted_Penalty>  (184) 
0

>  <i_epik_Tot_Q>  (184) 
0

>  <i_epik_Tot_abs_Q>  (184) 
0

>  <s_lp_Force_Field>  (184) 
OPLS3e

>  <r_lp_Energy>  (184) 
339.992

>  <b_lp_Chiralities_Consistent>  (184) 
1

>  <s_lp_Variant>  (184) 
45:0-3

>  <s_i_glide_gridfile>  (184) 
pfpi4k_grid

>  <i_i_glide_lignum>  (184) 
33

>  <i_i_glide_rotatable_bonds>  (184) 
3

>  <r_i_docking_score>  (184) 
-1.89885

>  <r_i_glide_ligand_efficiency>  (184) 
-0.0654776

>  <r_i_glide_ligand_efficiency_sa>  (184) 
-0.201168

>  <r_i_glide_ligand_efficiency_ln>  (184) 
-0.434788

>  <r_i_glide_gscore>  (184) 
-1.89885

>  <r_i_glide_lipo>  (184) 
-0.472729

>  <r_i_glide_hbond>  (184) 
0

>  <r_i_glide_metal>  (184) 
-0

>  <r_i_glide_rewards>  (184) 
-0.739153

>  <r_i_glide_evdw>  (184) 
-7.8954

>  <r_i_glide_ecoul>  (184) 
-2.75902

>  <r_i_glide_erotb>  (184) 
0.121656

>  <r_i_glide_esite>  (184) 
0

>  <r_i_glide_emodel>  (184) 
-9.39542

>  <r_i_glide_energy>  (184) 
-10.6544

>  <r_i_glide_einternal>  (184) 
2.42115

>  <r_i_glide_intrahb_reward>  (184) 
-0

>  <i_i_glide_confnum>  (184) 
1

>  <i_i_glide_posenum>  (184) 
20

>  <r_i_glide_eff_state_penalty>  (184) 
0

>  <ligand_id>  (184) 
45

>  <original_smiles>  (184) 
CC1C2=CC3CC45CCC(=O)N(CCO4)C4(C(C)C)C(CC1OC24CO)C3C5C

>  <smiles>  (184) 
[H]OC([H])([H])C12OC3([H])C([H])([H])C4([H])C5([H])C([H])(C([H])=C1C3([H])C([H])([H])[H])C([H])([H])C1(OC([H])([H])C([H])([H])N(C(=O)C([H])([H])C1([H])[H])C24C([H])(C([H])([H])[H])C([H])([H])[H])C5([H])C([H])([H])[H]

$$$$
45:2:2
     RDKit          3D

 64 69  0  0  1  0  0  0  0  0999 V2000
    2.7653   -2.2448    1.4862 C   0  0  0  0  0  0  0  0  0  0  0  0
    3.1176   -0.9386    2.2274 C   0  0  2  0  0  0  0  0  0  0  0  0
    2.7684   -0.7696    3.6840 C   0  0  0  0  0  0  0  0  0  0  0  0
    2.0019   -1.7648    4.2383 C   0  0  0  0  0  0  0  0  0  0  0  0
    0.6588   -1.5911    4.9556 C   0  0  2  0  0  0  0  0  0  0  0  0
    0.0151   -1.8424    6.4141 C   0  0  0  0  0  0  0  0  0  0  0  0
   -0.1492   -0.3495    6.9441 C   0  0  2  0  0  0  0  0  0  0  0  0
    1.2128   -0.0841    7.7464 C   0  0  0  0  0  0  0  0  0  0  0  0
    2.4880    0.4913    7.1251 C   0  0  0  0  0  0  0  0  0  0  0  0
    2.3468    1.9186    6.6446 C   0  0  0  0  0  0  0  0  0  0  0  0
    2.9668    2.8308    7.1958 O   0  0  0  0  0  0  0  0  0  0  0  0
    1.4088    2.1456    5.7213 N   0  0  0  0  0  0  0  0  0  0  0  0
    0.1626    2.7235    6.3537 C   0  0  0  0  0  0  0  0  0  0  0  0
   -0.5549    1.9836    7.6093 C   0  0  0  0  0  0  0  0  0  0  0  0
   -1.0020    0.5462    7.6580 O   0  0  0  0  0  0  0  0  0  0  0  0
    1.6342    1.8153    4.2130 C   0  0  2  0  0  0  0  0  0  0  0  0
    1.6613    3.2320    3.4481 C   0  0  0  0  0  0  0  0  0  0  0  0
    2.9075    4.1065    3.6917 C   0  0  0  0  0  0  0  0  0  0  0  0
    0.4421    4.1630    3.6249 C   0  0  0  0  0  0  0  0  0  0  0  0
    0.5058    0.8883    3.5656 C   0  0  1  0  0  0  0  0  0  0  0  0
    0.8287    0.4329    2.0832 C   0  0  0  0  0  0  0  0  0  0  0  0
    2.3490    0.2839    1.7140 C   0  0  1  0  0  0  0  0  0  0  0  0
    3.0398    1.2293    2.4896 O   0  0  0  0  0  0  0  0  0  0  0  0
    2.9146    0.8273    3.8545 C   0  0  2  0  0  0  0  0  0  0  0  0
    4.3609    1.1833    4.3492 C   0  0  0  0  0  0  0  0  0  0  0  0
    4.8946    0.4580    5.4333 O   0  0  0  0  0  0  0  0  0  0  0  0
    0.0663   -0.2527    4.5414 C   0  0  1  0  0  0  0  0  0  0  0  0
   -0.8876    0.0895    5.5938 C   0  0  1  0  0  0  0  0  0  0  0  0
   -2.2786   -0.5193    5.3105 C   0  0  0  0  0  0  0  0  0  0  0  0
    3.2930   -3.1027    1.9042 H   0  0  0  0  0  0  0  0  0  0  0  0
    3.0722   -2.1730    0.4404 H   0  0  0  0  0  0  0  0  0  0  0  0
    1.6996   -2.4535    1.4874 H   0  0  0  0  0  0  0  0  0  0  0  0
    4.1834   -0.7718    2.1008 H   0  0  0  0  0  0  0  0  0  0  0  0
    2.0480   -2.7545    3.8111 H   0  0  0  0  0  0  0  0  0  0  0  0
    1.5086   -1.5659    5.6344 H   0  0  0  0  0  0  0  0  0  0  0  0
   -0.9315   -2.3689    6.3423 H   0  0  0  0  0  0  0  0  0  0  0  0
    0.5955   -2.5167    7.0566 H   0  0  0  0  0  0  0  0  0  0  0  0
    1.0434    0.4106    8.7046 H   0  0  0  0  0  0  0  0  0  0  0  0
    1.5515   -1.0394    8.1446 H   0  0  0  0  0  0  0  0  0  0  0  0
    3.2821    0.4618    7.8717 H   0  0  0  0  0  0  0  0  0  0  0  0
    2.8264   -0.1572    6.3353 H   0  0  0  0  0  0  0  0  0  0  0  0
    0.4439    3.7135    6.7110 H   0  0  0  0  0  0  0  0  0  0  0  0
   -0.5859    2.9672    5.6043 H   0  0  0  0  0  0  0  0  0  0  0  0
    0.0222    2.2052    8.5052 H   0  0  0  0  0  0  0  0  0  0  0  0
   -1.4743    2.5366    7.7820 H   0  0  0  0  0  0  0  0  0  0  0  0
    1.6413    3.0485    2.3746 H   0  0  0  0  0  0  0  0  0  0  0  0
    3.0878    4.2659    4.7546 H   0  0  0  0  0  0  0  0  0  0  0  0
    2.7907    5.0879    3.2279 H   0  0  0  0  0  0  0  0  0  0  0  0
    3.7960    3.6814    3.2371 H   0  0  0  0  0  0  0  0  0  0  0  0
    0.4363    4.6607    4.5937 H   0  0  0  0  0  0  0  0  0  0  0  0
   -0.5098    3.6584    3.4614 H   0  0  0  0  0  0  0  0  0  0  0  0
    0.4792    4.9726    2.9005 H   0  0  0  0  0  0  0  0  0  0  0  0
   -0.3930    1.4834    3.4575 H   0  0  0  0  0  0  0  0  0  0  0  0
    0.2866   -0.4781    1.8322 H   0  0  0  0  0  0  0  0  0  0  0  0
    0.4214    1.1996    1.4183 H   0  0  0  0  0  0  0  0  0  0  0  0
    2.5136    0.4220    0.6436 H   0  0  0  0  0  0  0  0  0  0  0  0
    5.0661    0.9604    3.5490 H   0  0  0  0  0  0  0  0  0  0  0  0
    4.4873    2.2284    4.5992 H   0  0  0  0  0  0  0  0  0  0  0  0
    5.7068    0.8903    5.7165 H   0  0  0  0  0  0  0  0  0  0  0  0
    0.8715    0.0676    5.1092 H   0  0  0  0  0  0  0  0  0  0  0  0
   -1.2085    1.1004    5.4633 H   0  0  0  0  0  0  0  0  0  0  0  0
   -2.2651   -1.5544    4.9781 H   0  0  0  0  0  0  0  0  0  0  0  0
   -2.7428    0.0302    4.4958 H   0  0  0  0  0  0  0  0  0  0  0  0
   -2.9317   -0.4251    6.1735 H   0  0  0  0  0  0  0  0  0  0  0  0
  1  2  1  0
  1 30  1  0
  1 31  1  0
  1 32  1  0
  2 22  1  0
  2  3  1  0
  2 33  1  1
  3 24  1  0
  3  4  2  0
  4  5  1  0
  4 34  1  0
  5 27  1  0
  5  6  1  0
  5 35  1  6
  7  6  1  1
  6 36  1  0
  6 37  1  0
  7 15  1  0
  7 28  1  0
  7  8  1  0
  8  9  1  0
  8 38  1  0
  8 39  1  0
  9 10  1  0
  9 40  1  0
  9 41  1  0
 10 11  2  0
 10 12  1  0
 12 13  1  0
 12 16  1  0
 13 14  1  0
 13 42  1  0
 13 43  1  0
 14 15  1  0
 14 44  1  0
 14 45  1  0
 16 24  1  0
 16 17  1  6
 16 20  1  0
 17 18  1  0
 17 19  1  0
 17 46  1  0
 18 47  1  0
 18 48  1  0
 18 49  1  0
 19 50  1  0
 19 51  1  0
 19 52  1  0
 20 21  1  0
 20 27  1  0
 20 53  1  6
 21 22  1  0
 21 54  1  0
 21 55  1  0
 22 23  1  0
 22 56  1  6
 23 24  1  0
 24 25  1  1
 25 26  1  0
 25 57  1  0
 25 58  1  0
 26 59  1  0
 27 28  1  0
 27 60  1  6
 28 29  1  0
 28 61  1  1
 29 62  1  0
 29 63  1  0
 29 64  1  0
M  END
>  <i_m_ct_stereo_status>  (185) 
1

>  <s_m_source_file>  (185) 
/var/tmp/pbs.5076255.sched01/tmp2obefojl/44ql_32cm2.sdf

>  <i_m_source_file_index>  (185) 
33

>  <i_lp_mmshare_version>  (185) 
48012

>  <i_f3d_flags>  (185) 
0

>  <s_epik_input>  (185) 
W0NIMl0xW0NAQEhdKE8yKVtDQEhdKFtDSDNdKUMoPVtDSF0zKVtDQF0yKFtDSDJdW09IXSlbQ0BdKFtDSF0oW0NIM10pW0NIM10pKE4oW0NIMl1bQ0gyXU80KUMoPU8pW0NIMl1bQ0gyXTUpW0NAQEhdMVtDQEhdKFtDSF0zW0NIMl1DNDU2KVtDQEhdNltDSDNd

>  <s_epik_cmdline>  (185) 
J2VwaWtfcHl0aG9uJywgJy1waHQnLCAnMi4wJywgJy1waCcsICc3LjAnLCAnLXRuJywgJzgnLCAnLW1hJywgJzIwMCcsICctaW1hZScsICc8aW5maWxlLm1hZT4nLCAnLW9tYWUnLCAnPG91dGZpbGUubWFlPic=

>  <r_lp_tautomer_probability>  (185) 
1

>  <r_epik_Ionization_Penalty>  (185) 
5.50935e-08

>  <r_epik_Ionization_Penalty_Charging>  (185) 
0

>  <r_epik_Ionization_Penalty_Neutral>  (185) 
5.50935e-08

>  <r_epik_State_Penalty>  (185) 
-0

>  <r_epik_Charging_Adjusted_Penalty>  (185) 
0

>  <i_epik_Tot_Q>  (185) 
0

>  <i_epik_Tot_abs_Q>  (185) 
0

>  <s_lp_Force_Field>  (185) 
OPLS3e

>  <r_lp_Energy>  (185) 
339.992

>  <b_lp_Chiralities_Consistent>  (185) 
1

>  <s_lp_Variant>  (185) 
45:0-3

>  <s_i_glide_gridfile>  (185) 
pfpi4k_grid

>  <i_i_glide_lignum>  (185) 
33

>  <i_i_glide_rotatable_bonds>  (185) 
3

>  <r_i_docking_score>  (185) 
-1.76531

>  <r_i_glide_ligand_efficiency>  (185) 
-0.0608728

>  <r_i_glide_ligand_efficiency_sa>  (185) 
-0.187021

>  <r_i_glide_ligand_efficiency_ln>  (185) 
-0.404212

>  <r_i_glide_gscore>  (185) 
-1.76531

>  <r_i_glide_lipo>  (185) 
-0.000212908

>  <r_i_glide_hbond>  (185) 
-0.0990993

>  <r_i_glide_metal>  (185) 
-0

>  <r_i_glide_rewards>  (185) 
-0.671325

>  <r_i_glide_evdw>  (185) 
-16.1737

>  <r_i_glide_ecoul>  (185) 
-2.05096

>  <r_i_glide_erotb>  (185) 
0.121656

>  <r_i_glide_esite>  (185) 
0

>  <r_i_glide_emodel>  (185) 
-19.207

>  <r_i_glide_energy>  (185) 
-18.2247

>  <r_i_glide_einternal>  (185) 
0.408039

>  <r_i_glide_intrahb_reward>  (185) 
-0

>  <i_i_glide_confnum>  (185) 
3

>  <i_i_glide_posenum>  (185) 
40

>  <r_i_glide_eff_state_penalty>  (185) 
0

>  <ligand_id>  (185) 
45

>  <original_smiles>  (185) 
CC1C2=CC3CC45CCC(=O)N(CCO4)C4(C(C)C)C(CC1OC24CO)C3C5C

>  <smiles>  (185) 
[H]OC([H])([H])C12OC3([H])C([H])([H])C4([H])C5([H])C([H])(C([H])=C1C3([H])C([H])([H])[H])C([H])([H])C1(OC([H])([H])C([H])([H])N(C(=O)C([H])([H])C1([H])[H])C24C([H])(C([H])([H])[H])C([H])([H])[H])C5([H])C([H])([H])[H]

$$$$
45:3:0
     RDKit          3D

 64 69  0  0  1  0  0  0  0  0999 V2000
   -3.5710    3.1763    2.9552 C   0  0  0  0  0  0  0  0  0  0  0  0
   -2.3280    3.8103    3.6006 C   0  0  2  0  0  0  0  0  0  0  0  0
   -0.9542    3.2497    3.3067 C   0  0  0  0  0  0  0  0  0  0  0  0
   -0.9310    2.0639    2.6081 C   0  0  0  0  0  0  0  0  0  0  0  0
   -0.5188    0.6698    3.1402 C   0  0  1  0  0  0  0  0  0  0  0  0
    0.7007   -0.1766    2.5060 C   0  0  0  0  0  0  0  0  0  0  0  0
    1.9175    0.0603    3.4880 C   0  0  2  0  0  0  0  0  0  0  0  0
    2.7365    1.2134    2.7450 C   0  0  0  0  0  0  0  0  0  0  0  0
    2.4895    2.7112    2.9270 C   0  0  0  0  0  0  0  0  0  0  0  0
    2.8182    3.1607    4.3418 C   0  0  0  0  0  0  0  0  0  0  0  0
    3.7776    3.8915    4.5590 O   0  0  0  0  0  0  0  0  0  0  0  0
    2.0995    2.6097    5.3343 N   0  0  0  0  0  0  0  0  0  0  0  0
    2.9300    1.5690    6.0575 C   0  0  0  0  0  0  0  0  0  0  0  0
    3.6380    0.3594    5.2047 C   0  0  0  0  0  0  0  0  0  0  0  0
    2.9599   -0.5669    4.2345 O   0  0  0  0  0  0  0  0  0  0  0  0
    0.6349    3.0320    5.6541 C   0  0  2  0  0  0  0  0  0  0  0  0
    0.7333    3.7173    7.1174 C   0  0  0  0  0  0  0  0  0  0  0  0
   -0.4805    3.7034    8.0952 C   0  0  0  0  0  0  0  0  0  0  0  0
    1.3143    5.1366    7.1763 C   0  0  0  0  0  0  0  0  0  0  0  0
   -0.3991    1.8189    5.6865 C   0  0  1  0  0  0  0  0  0  0  0  0
   -1.9290    2.2252    5.7033 C   0  0  0  0  0  0  0  0  0  0  0  0
   -2.2378    3.6686    5.1319 C   0  0  1  0  0  0  0  0  0  0  0  0
   -1.1029    4.4704    5.3446 O   0  0  0  0  0  0  0  0  0  0  0  0
   -0.0966    3.9398    4.4889 C   0  0  2  0  0  0  0  0  0  0  0  0
    0.6035    5.2617    3.9708 C   0  0  0  0  0  0  0  0  0  0  0  0
   -0.2980    6.1307    3.2992 O   0  0  0  0  0  0  0  0  0  0  0  0
   -0.0871    0.7905    4.5724 C   0  0  1  0  0  0  0  0  0  0  0  0
    0.9815   -0.1861    4.7723 C   0  0  1  0  0  0  0  0  0  0  0  0
    0.4437   -1.6321    4.9754 C   0  0  0  0  0  0  0  0  0  0  0  0
   -3.5240    3.1817    1.8645 H   0  0  0  0  0  0  0  0  0  0  0  0
   -4.4796    3.7304    3.1810 H   0  0  0  0  0  0  0  0  0  0  0  0
   -3.6997    2.1443    3.3185 H   0  0  0  0  0  0  0  0  0  0  0  0
   -2.3603    4.8610    3.3145 H   0  0  0  0  0  0  0  0  0  0  0  0
   -1.7250    1.8638    1.9240 H   0  0  0  0  0  0  0  0  0  0  0  0
   -1.4309    0.0641    3.1306 H   0  0  0  0  0  0  0  0  0  0  0  0
    0.4848   -1.2392    2.4438 H   0  0  0  0  0  0  0  0  0  0  0  0
    0.8468    0.1258    1.4723 H   0  0  0  0  0  0  0  0  0  0  0  0
    3.8083    1.0328    2.8130 H   0  0  0  0  0  0  0  0  0  0  0  0
    2.6475    1.0567    1.6704 H   0  0  0  0  0  0  0  0  0  0  0  0
    3.1324    3.2677    2.2452 H   0  0  0  0  0  0  0  0  0  0  0  0
    1.4922    2.9683    2.6067 H   0  0  0  0  0  0  0  0  0  0  0  0
    3.7540    2.1053    6.5291 H   0  0  0  0  0  0  0  0  0  0  0  0
    2.4008    1.2080    6.9437 H   0  0  0  0  0  0  0  0  0  0  0  0
    4.5307    0.7585    4.7236 H   0  0  0  0  0  0  0  0  0  0  0  0
    4.0592   -0.3196    5.9388 H   0  0  0  0  0  0  0  0  0  0  0  0
    1.4650    3.1021    7.6370 H   0  0  0  0  0  0  0  0  0  0  0  0
   -1.3739    4.2057    7.7149 H   0  0  0  0  0  0  0  0  0  0  0  0
   -0.2322    4.2272    9.0317 H   0  0  0  0  0  0  0  0  0  0  0  0
   -0.7348    2.6811    8.3753 H   0  0  0  0  0  0  0  0  0  0  0  0
    0.5645    5.8691    6.8740 H   0  0  0  0  0  0  0  0  0  0  0  0
    2.2219    5.2636    6.5844 H   0  0  0  0  0  0  0  0  0  0  0  0
    1.5607    5.3929    8.2069 H   0  0  0  0  0  0  0  0  0  0  0  0
   -0.1844    1.2729    6.5923 H   0  0  0  0  0  0  0  0  0  0  0  0
   -2.5168    1.4729    5.1497 H   0  0  0  0  0  0  0  0  0  0  0  0
   -2.2942    2.1987    6.7378 H   0  0  0  0  0  0  0  0  0  0  0  0
   -3.0835    4.1062    5.6475 H   0  0  0  0  0  0  0  0  0  0  0  0
    1.0464    5.8416    4.7741 H   0  0  0  0  0  0  0  0  0  0  0  0
    1.4148    5.0783    3.2705 H   0  0  0  0  0  0  0  0  0  0  0  0
    0.1645    6.8356    2.8777 H   0  0  0  0  0  0  0  0  0  0  0  0
    0.5377    1.5107    4.1554 H   0  0  0  0  0  0  0  0  0  0  0  0
    1.3682   -0.0839    5.7674 H   0  0  0  0  0  0  0  0  0  0  0  0
   -0.3083   -1.9533    4.2570 H   0  0  0  0  0  0  0  0  0  0  0  0
   -0.0260   -1.7078    5.9545 H   0  0  0  0  0  0  0  0  0  0  0  0
    1.2591   -2.3580    4.9579 H   0  0  0  0  0  0  0  0  0  0  0  0
  1  2  1  0
  1 30  1  0
  1 31  1  0
  1 32  1  0
  2 22  1  0
  2  3  1  0
  2 33  1  1
  3 24  1  0
  3  4  2  0
  4  5  1  0
  4 34  1  0
  5 27  1  0
  5  6  1  0
  5 35  1  1
  7  6  1  6
  6 36  1  0
  6 37  1  0
  7 15  1  0
  7 28  1  0
  7  8  1  0
  8  9  1  0
  8 38  1  0
  8 39  1  0
  9 10  1  0
  9 40  1  0
  9 41  1  0
 10 11  2  0
 10 12  1  0
 12 13  1  0
 12 16  1  0
 13 14  1  0
 13 42  1  0
 13 43  1  0
 14 15  1  0
 14 44  1  0
 14 45  1  0
 16 24  1  0
 16 17  1  1
 16 20  1  0
 17 18  1  0
 17 19  1  0
 17 46  1  0
 18 47  1  0
 18 48  1  0
 18 49  1  0
 19 50  1  0
 19 51  1  0
 19 52  1  0
 20 21  1  0
 20 27  1  0
 20 53  1  1
 21 22  1  0
 21 54  1  0
 21 55  1  0
 22 23  1  0
 22 56  1  1
 23 24  1  0
 24 25  1  6
 25 26  1  0
 25 57  1  0
 25 58  1  0
 26 59  1  0
 27 28  1  0
 27 60  1  1
 28 29  1  0
 28 61  1  1
 29 62  1  0
 29 63  1  0
 29 64  1  0
M  END
>  <i_m_ct_stereo_status>  (186) 
1

>  <s_m_source_file>  (186) 
/var/tmp/pbs.5076255.sched01/tmp2obefojl/44ql_32cm2.sdf

>  <i_m_source_file_index>  (186) 
34

>  <i_lp_mmshare_version>  (186) 
48012

>  <i_f3d_flags>  (186) 
0

>  <s_epik_input>  (186) 
W0NIMl0xW0NAQEhdKE8yKVtDQEhdKFtDSDNdKUMoPVtDSF0zKVtDQF0yKFtDSDJdW09IXSlbQ0BdKFtDSF0oW0NIM10pW0NIM10pKE4oW0NIMl1bQ0gyXU80KUMoPU8pW0NIMl1bQ0gyXTUpW0NAQEhdMVtDQEhdKFtDSF0zW0NIMl1DNDU2KVtDQEhdNltDSDNd

>  <s_epik_cmdline>  (186) 
J2VwaWtfcHl0aG9uJywgJy1waHQnLCAnMi4wJywgJy1waCcsICc3LjAnLCAnLXRuJywgJzgnLCAnLW1hJywgJzIwMCcsICctaW1hZScsICc8aW5maWxlLm1hZT4nLCAnLW9tYWUnLCAnPG91dGZpbGUubWFlPic=

>  <r_lp_tautomer_probability>  (186) 
1

>  <r_epik_Ionization_Penalty>  (186) 
5.50935e-08

>  <r_epik_Ionization_Penalty_Charging>  (186) 
0

>  <r_epik_Ionization_Penalty_Neutral>  (186) 
5.50935e-08

>  <r_epik_State_Penalty>  (186) 
-0

>  <r_epik_Charging_Adjusted_Penalty>  (186) 
0

>  <i_epik_Tot_Q>  (186) 
0

>  <i_epik_Tot_abs_Q>  (186) 
0

>  <s_lp_Force_Field>  (186) 
OPLS3e

>  <r_lp_Energy>  (186) 
293.141

>  <b_lp_Chiralities_Consistent>  (186) 
1

>  <s_lp_Variant>  (186) 
45:0-4

>  <s_i_glide_gridfile>  (186) 
pfpi4k_grid

>  <i_i_glide_lignum>  (186) 
34

>  <i_i_glide_rotatable_bonds>  (186) 
3

>  <r_i_docking_score>  (186) 
-2.35036

>  <r_i_glide_ligand_efficiency>  (186) 
-0.0810468

>  <r_i_glide_ligand_efficiency_sa>  (186) 
-0.249001

>  <r_i_glide_ligand_efficiency_ln>  (186) 
-0.538172

>  <r_i_glide_gscore>  (186) 
-2.35036

>  <r_i_glide_lipo>  (186) 
-0.00583925

>  <r_i_glide_hbond>  (186) 
0

>  <r_i_glide_metal>  (186) 
-0

>  <r_i_glide_rewards>  (186) 
-0.671325

>  <r_i_glide_evdw>  (186) 
-16.3857

>  <r_i_glide_ecoul>  (186) 
-6.42934

>  <r_i_glide_erotb>  (186) 
0.121656

>  <r_i_glide_esite>  (186) 
-0.0111618

>  <r_i_glide_emodel>  (186) 
-21.4487

>  <r_i_glide_energy>  (186) 
-22.8151

>  <r_i_glide_einternal>  (186) 
8.37611

>  <r_i_glide_intrahb_reward>  (186) 
-0

>  <i_i_glide_confnum>  (186) 
3

>  <i_i_glide_posenum>  (186) 
21

>  <r_i_glide_eff_state_penalty>  (186) 
0

>  <ligand_id>  (186) 
45

>  <original_smiles>  (186) 
CC1C2=CC3CC45CCC(=O)N(CCO4)C4(C(C)C)C(CC1OC24CO)C3C5C

>  <smiles>  (186) 
[H]OC([H])([H])C12OC3([H])C([H])([H])C4([H])C5([H])C([H])(C([H])=C1C3([H])C([H])([H])[H])C([H])([H])C1(OC([H])([H])C([H])([H])N(C(=O)C([H])([H])C1([H])[H])C24C([H])(C([H])([H])[H])C([H])([H])[H])C5([H])C([H])([H])[H]

$$$$
45:3:1
     RDKit          3D

 64 69  0  0  1  0  0  0  0  0999 V2000
   -3.3528    3.1522    2.9641 C   0  0  0  0  0  0  0  0  0  0  0  0
   -2.1052    3.7611    3.6494 C   0  0  2  0  0  0  0  0  0  0  0  0
   -0.7528    3.1360    3.4509 C   0  0  0  0  0  0  0  0  0  0  0  0
   -0.7330    1.9317    2.7569 C   0  0  0  0  0  0  0  0  0  0  0  0
   -0.4118    0.5462    3.3370 C   0  0  1  0  0  0  0  0  0  0  0  0
    0.8147   -0.3595    2.8007 C   0  0  0  0  0  0  0  0  0  0  0  0
    1.9797   -0.1545    3.8512 C   0  0  2  0  0  0  0  0  0  0  0  0
    2.8891    0.9594    3.1538 C   0  0  0  0  0  0  0  0  0  0  0  0
    2.6895    2.4671    3.3003 C   0  0  0  0  0  0  0  0  0  0  0  0
    2.9421    2.9215    4.7311 C   0  0  0  0  0  0  0  0  0  0  0  0
    3.9242    3.6076    4.9971 O   0  0  0  0  0  0  0  0  0  0  0  0
    2.1458    2.4182    5.6772 N   0  0  0  0  0  0  0  0  0  0  0  0
    2.8811    1.3555    6.4724 C   0  0  0  0  0  0  0  0  0  0  0  0
    3.5944    0.1078    5.6826 C   0  0  0  0  0  0  0  0  0  0  0  0
    2.9438   -0.8041    4.6820 O   0  0  0  0  0  0  0  0  0  0  0  0
    0.6752    2.9033    5.8972 C   0  0  2  0  0  0  0  0  0  0  0  0
    0.7054    3.6071    7.3469 C   0  0  0  0  0  0  0  0  0  0  0  0
   -0.5721    3.6568    8.2421 C   0  0  0  0  0  0  0  0  0  0  0  0
    1.3361    5.0071    7.4253 C   0  0  0  0  0  0  0  0  0  0  0  0
   -0.4058    1.7329    5.8814 C   0  0  1  0  0  0  0  0  0  0  0  0
   -1.9167    2.1971    5.7937 C   0  0  0  0  0  0  0  0  0  0  0  0
   -2.1294    3.6423    5.1807 C   0  0  1  0  0  0  0  0  0  0  0  0
   -0.9872    4.4044    5.4431 O   0  0  0  0  0  0  0  0  0  0  0  0
    0.0544    3.8031    4.6687 C   0  0  2  0  0  0  0  0  0  0  0  0
    0.8336    5.0919    4.1799 C   0  0  0  0  0  0  0  0  0  0  0  0
    0.0819    5.7998    3.2258 O   0  0  0  0  0  0  0  0  0  0  0  0
   -0.0635    0.6765    4.8016 C   0  0  1  0  0  0  0  0  0  0  0  0
    0.9530   -0.3436    5.0792 C   0  0  1  0  0  0  0  0  0  0  0  0
    0.3444   -1.7616    5.2701 C   0  0  0  0  0  0  0  0  0  0  0  0
   -3.2806    3.1860    1.8669 H   0  0  0  0  0  0  0  0  0  0  0  0
   -4.2560    3.7163    3.2132 H   0  0  0  0  0  0  0  0  0  0  0  0
   -3.5284    2.1442    3.3078 H   0  0  0  0  0  0  0  0  0  0  0  0
   -2.0947    4.8121    3.3511 H   0  0  0  0  0  0  0  0  0  0  0  0
   -1.4845    1.7817    2.0215 H   0  0  0  0  0  0  0  0  0  0  0  0
   -1.3395   -0.0361    3.2876 H   0  0  0  0  0  0  0  0  0  0  0  0
    0.5547   -1.4112    2.7355 H   0  0  0  0  0  0  0  0  0  0  0  0
    1.0415   -0.0836    1.7756 H   0  0  0  0  0  0  0  0  0  0  0  0
    3.9458    0.7460    3.2936 H   0  0  0  0  0  0  0  0  0  0  0  0
    2.8635    0.7889    2.0799 H   0  0  0  0  0  0  0  0  0  0  0  0
    3.4048    2.9839    2.6633 H   0  0  0  0  0  0  0  0  0  0  0  0
    1.7277    2.7662    2.9215 H   0  0  0  0  0  0  0  0  0  0  0  0
    3.6907    1.8676    6.9893 H   0  0  0  0  0  0  0  0  0  0  0  0
    2.2804    1.0298    7.3244 H   0  0  0  0  0  0  0  0  0  0  0  0
    4.5305    0.4635    5.2557 H   0  0  0  0  0  0  0  0  0  0  0  0
    3.9398   -0.5748    6.4496 H   0  0  0  0  0  0  0  0  0  0  0  0
    1.3735    2.9774    7.9299 H   0  0  0  0  0  0  0  0  0  0  0  0
   -1.4173    4.1835    7.7892 H   0  0  0  0  0  0  0  0  0  0  0  0
   -0.3739    4.1895    9.1878 H   0  0  0  0  0  0  0  0  0  0  0  0
   -0.8856    2.6492    8.5192 H   0  0  0  0  0  0  0  0  0  0  0  0
    0.6322    5.7650    7.0810 H   0  0  0  0  0  0  0  0  0  0  0  0
    2.2767    5.0946    6.8788 H   0  0  0  0  0  0  0  0  0  0  0  0
    1.5336    5.2645    8.4663 H   0  0  0  0  0  0  0  0  0  0  0  0
   -0.2720    1.1938    6.8018 H   0  0  0  0  0  0  0  0  0  0  0  0
   -2.4812    1.4561    5.2111 H   0  0  0  0  0  0  0  0  0  0  0  0
   -2.3497    2.2037    6.7963 H   0  0  0  0  0  0  0  0  0  0  0  0
   -2.9886    4.1385    5.6068 H   0  0  0  0  0  0  0  0  0  0  0  0
    1.0600    5.7565    5.0052 H   0  0  0  0  0  0  0  0  0  0  0  0
    1.7668    4.9086    3.6618 H   0  0  0  0  0  0  0  0  0  0  0  0
    0.2206    5.3895    2.3845 H   0  0  0  0  0  0  0  0  0  0  0  0
    0.6140    1.3599    4.4070 H   0  0  0  0  0  0  0  0  0  0  0  0
    1.2774   -0.2347    6.0996 H   0  0  0  0  0  0  0  0  0  0  0  0
   -0.3706   -2.0639    4.5096 H   0  0  0  0  0  0  0  0  0  0  0  0
   -0.1879   -1.8019    6.2163 H   0  0  0  0  0  0  0  0  0  0  0  0
    1.1302   -2.5161    5.3159 H   0  0  0  0  0  0  0  0  0  0  0  0
  1  2  1  0
  1 30  1  0
  1 31  1  0
  1 32  1  0
  2 22  1  0
  2  3  1  0
  2 33  1  1
  3 24  1  0
  3  4  2  0
  4  5  1  0
  4 34  1  0
  5 27  1  0
  5  6  1  0
  5 35  1  1
  7  6  1  6
  6 36  1  0
  6 37  1  0
  7 15  1  0
  7 28  1  0
  7  8  1  0
  8  9  1  0
  8 38  1  0
  8 39  1  0
  9 10  1  0
  9 40  1  0
  9 41  1  0
 10 11  2  0
 10 12  1  0
 12 13  1  0
 12 16  1  0
 13 14  1  0
 13 42  1  0
 13 43  1  0
 14 15  1  0
 14 44  1  0
 14 45  1  0
 16 24  1  0
 16 17  1  1
 16 20  1  0
 17 18  1  0
 17 19  1  0
 17 46  1  0
 18 47  1  0
 18 48  1  0
 18 49  1  0
 19 50  1  0
 19 51  1  0
 19 52  1  0
 20 21  1  0
 20 27  1  0
 20 53  1  1
 21 22  1  0
 21 54  1  0
 21 55  1  0
 22 23  1  0
 22 56  1  1
 23 24  1  0
 24 25  1  6
 25 26  1  0
 25 57  1  0
 25 58  1  0
 26 59  1  0
 27 28  1  0
 27 60  1  1
 28 29  1  0
 28 61  1  1
 29 62  1  0
 29 63  1  0
 29 64  1  0
M  END
>  <i_m_ct_stereo_status>  (187) 
1

>  <s_m_source_file>  (187) 
/var/tmp/pbs.5076255.sched01/tmp2obefojl/44ql_32cm2.sdf

>  <i_m_source_file_index>  (187) 
34

>  <i_lp_mmshare_version>  (187) 
48012

>  <i_f3d_flags>  (187) 
0

>  <s_epik_input>  (187) 
W0NIMl0xW0NAQEhdKE8yKVtDQEhdKFtDSDNdKUMoPVtDSF0zKVtDQF0yKFtDSDJdW09IXSlbQ0BdKFtDSF0oW0NIM10pW0NIM10pKE4oW0NIMl1bQ0gyXU80KUMoPU8pW0NIMl1bQ0gyXTUpW0NAQEhdMVtDQEhdKFtDSF0zW0NIMl1DNDU2KVtDQEhdNltDSDNd

>  <s_epik_cmdline>  (187) 
J2VwaWtfcHl0aG9uJywgJy1waHQnLCAnMi4wJywgJy1waCcsICc3LjAnLCAnLXRuJywgJzgnLCAnLW1hJywgJzIwMCcsICctaW1hZScsICc8aW5maWxlLm1hZT4nLCAnLW9tYWUnLCAnPG91dGZpbGUubWFlPic=

>  <r_lp_tautomer_probability>  (187) 
1

>  <r_epik_Ionization_Penalty>  (187) 
5.50935e-08

>  <r_epik_Ionization_Penalty_Charging>  (187) 
0

>  <r_epik_Ionization_Penalty_Neutral>  (187) 
5.50935e-08

>  <r_epik_State_Penalty>  (187) 
-0

>  <r_epik_Charging_Adjusted_Penalty>  (187) 
0

>  <i_epik_Tot_Q>  (187) 
0

>  <i_epik_Tot_abs_Q>  (187) 
0

>  <s_lp_Force_Field>  (187) 
OPLS3e

>  <r_lp_Energy>  (187) 
293.141

>  <b_lp_Chiralities_Consistent>  (187) 
1

>  <s_lp_Variant>  (187) 
45:0-4

>  <s_i_glide_gridfile>  (187) 
pfpi4k_grid

>  <i_i_glide_lignum>  (187) 
34

>  <i_i_glide_rotatable_bonds>  (187) 
3

>  <r_i_docking_score>  (187) 
-2.12477

>  <r_i_glide_ligand_efficiency>  (187) 
-0.0732679

>  <r_i_glide_ligand_efficiency_sa>  (187) 
-0.225102

>  <r_i_glide_ligand_efficiency_ln>  (187) 
-0.486518

>  <r_i_glide_gscore>  (187) 
-2.12477

>  <r_i_glide_lipo>  (187) 
-0.00124871

>  <r_i_glide_hbond>  (187) 
0

>  <r_i_glide_metal>  (187) 
-0

>  <r_i_glide_rewards>  (187) 
-0.671325

>  <r_i_glide_evdw>  (187) 
-17.7993

>  <r_i_glide_ecoul>  (187) 
-4.51652

>  <r_i_glide_erotb>  (187) 
0.121656

>  <r_i_glide_esite>  (187) 
-0.00640801

>  <r_i_glide_emodel>  (187) 
-20.2293

>  <r_i_glide_energy>  (187) 
-22.3158

>  <r_i_glide_einternal>  (187) 
7.93413

>  <r_i_glide_intrahb_reward>  (187) 
-0

>  <i_i_glide_confnum>  (187) 
3

>  <i_i_glide_posenum>  (187) 
16

>  <r_i_glide_eff_state_penalty>  (187) 
0

>  <ligand_id>  (187) 
45

>  <original_smiles>  (187) 
CC1C2=CC3CC45CCC(=O)N(CCO4)C4(C(C)C)C(CC1OC24CO)C3C5C

>  <smiles>  (187) 
[H]OC([H])([H])C12OC3([H])C([H])([H])C4([H])C5([H])C([H])(C([H])=C1C3([H])C([H])([H])[H])C([H])([H])C1(OC([H])([H])C([H])([H])N(C(=O)C([H])([H])C1([H])[H])C24C([H])(C([H])([H])[H])C([H])([H])[H])C5([H])C([H])([H])[H]

$$$$
45:3:2
     RDKit          3D

 64 69  0  0  1  0  0  0  0  0999 V2000
   -3.3686    3.1701    2.9580 C   0  0  0  0  0  0  0  0  0  0  0  0
   -2.1247    3.8119    3.5883 C   0  0  2  0  0  0  0  0  0  0  0  0
   -0.7653    3.2221    3.3625 C   0  0  0  0  0  0  0  0  0  0  0  0
   -0.7359    2.0105    2.6750 C   0  0  0  0  0  0  0  0  0  0  0  0
   -0.3618    0.6221    3.2454 C   0  0  1  0  0  0  0  0  0  0  0  0
    0.8760   -0.2487    2.6772 C   0  0  0  0  0  0  0  0  0  0  0  0
    2.0594   -0.0189    3.7166 C   0  0  2  0  0  0  0  0  0  0  0  0
    2.9536    1.1019    3.0096 C   0  0  0  0  0  0  0  0  0  0  0  0
    2.7020    2.5962    3.1639 C   0  0  0  0  0  0  0  0  0  0  0  0
    2.9435    3.0863    4.5878 C   0  0  0  0  0  0  0  0  0  0  0  0
    3.8902    3.8215    4.8582 O   0  0  0  0  0  0  0  0  0  0  0  0
    2.1809    2.5479    5.5409 N   0  0  0  0  0  0  0  0  0  0  0  0
    2.9662    1.5120    6.3141 C   0  0  0  0  0  0  0  0  0  0  0  0
    3.6997    0.2816    5.5094 C   0  0  0  0  0  0  0  0  0  0  0  0
    3.0544   -0.6544    4.5233 O   0  0  0  0  0  0  0  0  0  0  0  0
    0.7084    2.9944    5.7892 C   0  0  2  0  0  0  0  0  0  0  0  0
    0.7467    3.7037    7.2405 C   0  0  0  0  0  0  0  0  0  0  0  0
   -0.5183    3.7093    8.1441 C   0  0  0  0  0  0  0  0  0  0  0  0
    1.3414    5.1202    7.3074 C   0  0  0  0  0  0  0  0  0  0  0  0
   -0.3429    1.7966    5.7807 C   0  0  1  0  0  0  0  0  0  0  0  0
   -1.8601    2.2485    5.7425 C   0  0  0  0  0  0  0  0  0  0  0  0
   -2.1233    3.6815    5.1157 C   0  0  1  0  0  0  0  0  0  0  0  0
   -0.9798    4.4569    5.3639 O   0  0  0  0  0  0  0  0  0  0  0  0
    0.0539    3.8886    4.5791 C   0  0  2  0  0  0  0  0  0  0  0  0
    0.7265    5.2379    4.1134 C   0  0  0  0  0  0  0  0  0  0  0  0
    1.4270    5.1960    2.8828 O   0  0  0  0  0  0  0  0  0  0  0  0
    0.0041    0.7521    4.6954 C   0  0  1  0  0  0  0  0  0  0  0  0
    1.0582   -0.2296    4.9540 C   0  0  1  0  0  0  0  0  0  0  0  0
    0.4926   -1.6661    5.1528 C   0  0  0  0  0  0  0  0  0  0  0  0
   -3.3474    3.2119    1.8723 H   0  0  0  0  0  0  0  0  0  0  0  0
   -4.2604    3.7280    3.2313 H   0  0  0  0  0  0  0  0  0  0  0  0
   -3.5002    2.1429    3.2736 H   0  0  0  0  0  0  0  0  0  0  0  0
   -2.0792    4.8715    3.2942 H   0  0  0  0  0  0  0  0  0  0  0  0
   -1.5143    1.8392    1.9486 H   0  0  0  0  0  0  0  0  0  0  0  0
   -1.2765    0.0228    3.1990 H   0  0  0  0  0  0  0  0  0  0  0  0
    0.6191   -1.3045    2.6017 H   0  0  0  0  0  0  0  0  0  0  0  0
    1.0751    0.0400    1.6469 H   0  0  0  0  0  0  0  0  0  0  0  0
    4.0237    0.9085    3.1118 H   0  0  0  0  0  0  0  0  0  0  0  0
    2.8970    0.9424    1.9310 H   0  0  0  0  0  0  0  0  0  0  0  0
    3.3630    3.1498    2.4964 H   0  0  0  0  0  0  0  0  0  0  0  0
    1.7085    2.8061    2.8026 H   0  0  0  0  0  0  0  0  0  0  0  0
    3.7772    2.0478    6.8154 H   0  0  0  0  0  0  0  0  0  0  0  0
    2.3896    1.1587    7.1701 H   0  0  0  0  0  0  0  0  0  0  0  0
    4.6196    0.6670    5.0678 H   0  0  0  0  0  0  0  0  0  0  0  0
    4.0816   -0.3955    6.2742 H   0  0  0  0  0  0  0  0  0  0  0  0
    1.4464    3.0980    7.8103 H   0  0  0  0  0  0  0  0  0  0  0  0
   -1.3819    4.1985    7.6856 H   0  0  0  0  0  0  0  0  0  0  0  0
   -0.3195    4.2336    9.0810 H   0  0  0  0  0  0  0  0  0  0  0  0
   -0.8042    2.6912    8.4163 H   0  0  0  0  0  0  0  0  0  0  0  0
    0.6377    5.8581    6.9184 H   0  0  0  0  0  0  0  0  0  0  0  0
    2.2965    5.2226    6.7920 H   0  0  0  0  0  0  0  0  0  0  0  0
    1.5192    5.3961    8.3470 H   0  0  0  0  0  0  0  0  0  0  0  0
   -0.1957    1.2613    6.7155 H   0  0  0  0  0  0  0  0  0  0  0  0
   -2.4482    1.4979    5.1992 H   0  0  0  0  0  0  0  0  0  0  0  0
   -2.2455    2.2656    6.7667 H   0  0  0  0  0  0  0  0  0  0  0  0
   -2.9883    4.1460    5.5763 H   0  0  0  0  0  0  0  0  0  0  0  0
   -0.0408    6.0078    3.9948 H   0  0  0  0  0  0  0  0  0  0  0  0
    1.4486    5.6148    4.8271 H   0  0  0  0  0  0  0  0  0  0  0  0
    0.8507    4.9027    2.1882 H   0  0  0  0  0  0  0  0  0  0  0  0
    0.6619    1.4573    4.2989 H   0  0  0  0  0  0  0  0  0  0  0  0
    1.3957   -0.1201    5.9618 H   0  0  0  0  0  0  0  0  0  0  0  0
   -0.2311   -1.9864    4.4038 H   0  0  0  0  0  0  0  0  0  0  0  0
   -0.0251   -1.7276    6.1114 H   0  0  0  0  0  0  0  0  0  0  0  0
    1.2970   -2.4047    5.1789 H   0  0  0  0  0  0  0  0  0  0  0  0
  1  2  1  0
  1 30  1  0
  1 31  1  0
  1 32  1  0
  2 22  1  0
  2  3  1  0
  2 33  1  1
  3 24  1  0
  3  4  2  0
  4  5  1  0
  4 34  1  0
  5 27  1  0
  5  6  1  0
  5 35  1  1
  7  6  1  6
  6 36  1  0
  6 37  1  0
  7 15  1  0
  7 28  1  0
  7  8  1  0
  8  9  1  0
  8 38  1  0
  8 39  1  0
  9 10  1  0
  9 40  1  0
  9 41  1  0
 10 11  2  0
 10 12  1  0
 12 13  1  0
 12 16  1  0
 13 14  1  0
 13 42  1  0
 13 43  1  0
 14 15  1  0
 14 44  1  0
 14 45  1  0
 16 24  1  0
 16 17  1  1
 16 20  1  0
 17 18  1  0
 17 19  1  0
 17 46  1  0
 18 47  1  0
 18 48  1  0
 18 49  1  0
 19 50  1  0
 19 51  1  0
 19 52  1  0
 20 21  1  0
 20 27  1  0
 20 53  1  1
 21 22  1  0
 21 54  1  0
 21 55  1  0
 22 23  1  0
 22 56  1  1
 23 24  1  0
 24 25  1  6
 25 26  1  0
 25 57  1  0
 25 58  1  0
 26 59  1  0
 27 28  1  0
 27 60  1  1
 28 29  1  0
 28 61  1  1
 29 62  1  0
 29 63  1  0
 29 64  1  0
M  END
>  <i_m_ct_stereo_status>  (188) 
1

>  <s_m_source_file>  (188) 
/var/tmp/pbs.5076255.sched01/tmp2obefojl/44ql_32cm2.sdf

>  <i_m_source_file_index>  (188) 
34

>  <i_lp_mmshare_version>  (188) 
48012

>  <i_f3d_flags>  (188) 
0

>  <s_epik_input>  (188) 
W0NIMl0xW0NAQEhdKE8yKVtDQEhdKFtDSDNdKUMoPVtDSF0zKVtDQF0yKFtDSDJdW09IXSlbQ0BdKFtDSF0oW0NIM10pW0NIM10pKE4oW0NIMl1bQ0gyXU80KUMoPU8pW0NIMl1bQ0gyXTUpW0NAQEhdMVtDQEhdKFtDSF0zW0NIMl1DNDU2KVtDQEhdNltDSDNd

>  <s_epik_cmdline>  (188) 
J2VwaWtfcHl0aG9uJywgJy1waHQnLCAnMi4wJywgJy1waCcsICc3LjAnLCAnLXRuJywgJzgnLCAnLW1hJywgJzIwMCcsICctaW1hZScsICc8aW5maWxlLm1hZT4nLCAnLW9tYWUnLCAnPG91dGZpbGUubWFlPic=

>  <r_lp_tautomer_probability>  (188) 
1

>  <r_epik_Ionization_Penalty>  (188) 
5.50935e-08

>  <r_epik_Ionization_Penalty_Charging>  (188) 
0

>  <r_epik_Ionization_Penalty_Neutral>  (188) 
5.50935e-08

>  <r_epik_State_Penalty>  (188) 
-0

>  <r_epik_Charging_Adjusted_Penalty>  (188) 
0

>  <i_epik_Tot_Q>  (188) 
0

>  <i_epik_Tot_abs_Q>  (188) 
0

>  <s_lp_Force_Field>  (188) 
OPLS3e

>  <r_lp_Energy>  (188) 
293.141

>  <b_lp_Chiralities_Consistent>  (188) 
1

>  <s_lp_Variant>  (188) 
45:0-4

>  <s_i_glide_gridfile>  (188) 
pfpi4k_grid

>  <i_i_glide_lignum>  (188) 
34

>  <i_i_glide_rotatable_bonds>  (188) 
3

>  <r_i_docking_score>  (188) 
-2.12123

>  <r_i_glide_ligand_efficiency>  (188) 
-0.0731458

>  <r_i_glide_ligand_efficiency_sa>  (188) 
-0.224727

>  <r_i_glide_ligand_efficiency_ln>  (188) 
-0.485707

>  <r_i_glide_gscore>  (188) 
-2.12123

>  <r_i_glide_lipo>  (188) 
-0.00651789

>  <r_i_glide_hbond>  (188) 
0

>  <r_i_glide_metal>  (188) 
-0

>  <r_i_glide_rewards>  (188) 
-0.671325

>  <r_i_glide_evdw>  (188) 
-17.5641

>  <r_i_glide_ecoul>  (188) 
-4.52542

>  <r_i_glide_erotb>  (188) 
0.121656

>  <r_i_glide_esite>  (188) 
-0.00802418

>  <r_i_glide_emodel>  (188) 
-21.9387

>  <r_i_glide_energy>  (188) 
-22.0895

>  <r_i_glide_einternal>  (188) 
5.05351

>  <r_i_glide_intrahb_reward>  (188) 
-0

>  <i_i_glide_confnum>  (188) 
3

>  <i_i_glide_posenum>  (188) 
7

>  <r_i_glide_eff_state_penalty>  (188) 
0

>  <ligand_id>  (188) 
45

>  <original_smiles>  (188) 
CC1C2=CC3CC45CCC(=O)N(CCO4)C4(C(C)C)C(CC1OC24CO)C3C5C

>  <smiles>  (188) 
[H]OC([H])([H])C12OC3([H])C([H])([H])C4([H])C5([H])C([H])(C([H])=C1C3([H])C([H])([H])[H])C([H])([H])C1(OC([H])([H])C([H])([H])N(C(=O)C([H])([H])C1([H])[H])C24C([H])(C([H])([H])[H])C([H])([H])[H])C5([H])C([H])([H])[H]

$$$$
47:0:0
     RDKit          3D

 68 75  0  0  1  0  0  0  0  0999 V2000
    3.2372   -0.6899   -3.6704 C   0  0  0  0  0  0  0  0  0  0  0  0
    4.2765   -1.2383   -2.6677 C   0  0  2  0  0  0  0  0  0  0  0  0
    5.1469   -2.3223   -3.2278 C   0  0  2  0  0  0  0  0  0  0  0  0
    4.2831   -3.5085   -3.4674 C   0  0  0  0  0  0  0  0  0  0  0  0
    3.4169   -3.3951   -2.2309 C   0  0  0  0  0  0  0  0  0  0  0  0
    3.6938   -2.0406   -1.5236 C   0  0  1  0  0  0  0  0  0  0  0  0
    4.7529   -2.0818   -0.3627 C   0  0  2  0  0  0  0  0  0  0  0  0
    6.1439   -2.8139   -0.7458 C   0  0  2  0  0  0  0  0  0  0  0  0
    7.4884   -2.1608   -0.2187 C   0  0  0  0  0  0  0  0  0  0  0  0
    6.3412   -2.7065   -2.2999 C   0  0  0  0  0  0  0  0  0  0  0  0
    6.1949   -4.2433   -0.3172 N   0  0  0  0  0  0  0  0  0  0  0  0
    6.2806   -4.6299    1.1417 C   0  0  1  0  0  0  0  0  0  0  0  0
    7.4368   -5.5704    1.4397 C   0  0  0  0  0  0  0  0  0  0  0  0
    5.8501   -3.6117    2.0738 C   0  0  1  0  0  0  0  0  0  0  0  0
    5.3539   -2.1659    2.0187 C   0  0  2  0  0  0  0  0  0  0  0  0
    5.2071   -1.5095    3.4093 C   0  0  0  0  0  0  0  0  0  0  0  0
    4.8104   -2.4278    4.5404 C   0  0  0  0  0  0  0  0  0  0  0  0
    3.9267   -3.5900    4.1515 C   0  0  2  0  0  0  0  0  0  0  0  0
    4.3168   -4.8875    3.3496 C   0  0  1  0  0  0  0  0  0  0  0  0
    2.7683   -5.0172    3.4419 C   0  0  0  0  0  0  0  0  0  0  0  0
    2.7565   -3.4668    3.1519 C   0  0  1  0  0  0  0  0  0  0  0  0
    1.6360   -2.8501    3.7597 O   0  0  0  0  0  0  0  0  0  0  0  0
    2.9356   -2.9818    1.5861 C   0  0  2  0  0  0  0  0  0  0  0  0
    1.8063   -2.2207    1.3329 O   0  0  0  0  0  0  0  0  0  0  0  0
    2.8310   -4.2549    0.7266 C   0  0  0  0  0  0  0  0  0  0  0  0
    1.8770   -4.5394   -0.0194 O   0  0  0  0  0  0  0  0  0  0  0  0
    3.9027   -5.2838    0.8809 C   0  0  0  0  0  0  0  0  0  0  0  0
    4.9259   -4.8217    1.9092 C   0  0  2  0  0  0  0  0  0  0  0  0
    4.1462   -1.9913    1.1182 C   0  0  2  0  0  0  0  0  0  0  0  0
    3.7011   -0.4850    1.2610 C   0  0  0  0  0  0  0  0  0  0  0  0
    2.5697   -1.4556   -4.0718 H   0  0  0  0  0  0  0  0  0  0  0  0
    3.7294   -0.2228   -4.5211 H   0  0  0  0  0  0  0  0  0  0  0  0
    2.6170    0.0761   -3.2022 H   0  0  0  0  0  0  0  0  0  0  0  0
    4.8844   -0.3968   -2.3484 H   0  0  0  0  0  0  0  0  0  0  0  0
    5.4134   -1.9150   -4.1936 H   0  0  0  0  0  0  0  0  0  0  0  0
    3.6917   -3.4332   -4.3849 H   0  0  0  0  0  0  0  0  0  0  0  0
    4.8410   -4.4471   -3.5341 H   0  0  0  0  0  0  0  0  0  0  0  0
    2.3655   -3.5295   -2.5084 H   0  0  0  0  0  0  0  0  0  0  0  0
    3.7260   -4.2253   -1.6223 H   0  0  0  0  0  0  0  0  0  0  0  0
    2.7450   -1.6190   -1.1941 H   0  0  0  0  0  0  0  0  0  0  0  0
    5.1557   -1.0767   -0.4247 H   0  0  0  0  0  0  0  0  0  0  0  0
    7.4250   -1.0704   -0.2717 H   0  0  0  0  0  0  0  0  0  0  0  0
    8.3535   -2.4632   -0.8259 H   0  0  0  0  0  0  0  0  0  0  0  0
    7.8065   -2.4192    0.7963 H   0  0  0  0  0  0  0  0  0  0  0  0
    6.8652   -3.5782   -2.6741 H   0  0  0  0  0  0  0  0  0  0  0  0
    7.0870   -1.9463   -2.4153 H   0  0  0  0  0  0  0  0  0  0  0  0
    5.3987   -4.7221   -0.7253 H   0  0  0  0  0  0  0  0  0  0  0  0
    7.4186   -5.8524    2.4943 H   0  0  0  0  0  0  0  0  0  0  0  0
    8.4103   -5.1142    1.2505 H   0  0  0  0  0  0  0  0  0  0  0  0
    7.3521   -6.4888    0.8631 H   0  0  0  0  0  0  0  0  0  0  0  0
    6.5370   -3.6818    2.8822 H   0  0  0  0  0  0  0  0  0  0  0  0
    6.1337   -1.5217    1.6313 H   0  0  0  0  0  0  0  0  0  0  0  0
    6.1586   -1.1043    3.7035 H   0  0  0  0  0  0  0  0  0  0  0  0
    4.6664   -0.5664    3.4585 H   0  0  0  0  0  0  0  0  0  0  0  0
    5.6877   -2.7835    5.0843 H   0  0  0  0  0  0  0  0  0  0  0  0
    4.2924   -1.7983    5.2634 H   0  0  0  0  0  0  0  0  0  0  0  0
    3.5587   -3.8766    5.1501 H   0  0  0  0  0  0  0  0  0  0  0  0
    4.8290   -5.5895    4.0007 H   0  0  0  0  0  0  0  0  0  0  0  0
    2.2575   -5.6898    2.7603 H   0  0  0  0  0  0  0  0  0  0  0  0
    2.3956   -5.3090    4.4320 H   0  0  0  0  0  0  0  0  0  0  0  0
    0.9397   -2.9086    3.1277 H   0  0  0  0  0  0  0  0  0  0  0  0
    1.8186   -1.8766    0.4396 H   0  0  0  0  0  0  0  0  0  0  0  0
    3.4863   -6.2311    1.2247 H   0  0  0  0  0  0  0  0  0  0  0  0
    4.3343   -5.5184   -0.0829 H   0  0  0  0  0  0  0  0  0  0  0  0
    3.1498   -0.3050    2.1875 H   0  0  0  0  0  0  0  0  0  0  0  0
    3.0276   -0.1807    0.4651 H   0  0  0  0  0  0  0  0  0  0  0  0
    4.5507    0.2048    1.2494 H   0  0  0  0  0  0  0  0  0  0  0  0
    7.0511   -4.6142   -0.7244 H   0  0  0  0  0  0  0  0  0  0  0  0
  1  2  1  0
  1 31  1  0
  1 32  1  0
  1 33  1  0
  2  6  1  0
  2  3  1  0
  2 34  1  1
  3 10  1  0
  3  4  1  0
  3 35  1  6
  4  5  1  0
  4 36  1  0
  4 37  1  0
  5  6  1  0
  5 38  1  0
  5 39  1  0
  6  7  1  0
  6 40  1  1
  7 29  1  0
  7  8  1  0
  7 41  1  6
  8  9  1  1
  8 10  1  0
  8 11  1  0
  9 42  1  0
  9 43  1  0
  9 44  1  0
 10 45  1  0
 10 46  1  0
 11 12  1  0
 11 47  1  0
 11 68  1  0
 12 28  1  0
 12 13  1  1
 12 14  1  0
 13 48  1  0
 13 49  1  0
 13 50  1  0
 14 28  1  0
 14 15  1  0
 14 51  1  1
 15 29  1  0
 15 16  1  0
 15 52  1  6
 16 17  1  0
 16 53  1  0
 16 54  1  0
 17 18  1  0
 17 55  1  0
 17 56  1  0
 18 21  1  0
 18 19  1  0
 18 57  1  1
 19 28  1  0
 19 20  1  0
 19 58  1  1
 20 21  1  0
 20 59  1  0
 20 60  1  0
 21 22  1  1
 21 23  1  0
 22 61  1  0
 23 24  1  6
 23 25  1  0
 23 29  1  0
 24 62  1  0
 25 26  2  0
 25 27  1  0
 28 27  1  6
 27 63  1  0
 27 64  1  0
 29 30  1  6
 30 65  1  0
 30 66  1  0
 30 67  1  0
M  CHG  1  11   1
M  END
>  <i_m_ct_stereo_status>  (189) 
1

>  <s_m_source_file>  (189) 
/var/tmp/pbs.5076255.sched01/tmp2obefojl/44ql_32cm2.sdf

>  <i_m_source_file_index>  (189) 
37

>  <i_lp_mmshare_version>  (189) 
48012

>  <i_f3d_flags>  (189) 
0

>  <s_epik_input>  (189) 
W0NIM11bQ0BdMShbTkhdMilbQ0gyXVtDQEBIXShbQ0gyXVtDSDJdMylbQ0BASF0oW0NIM10pW0NAQEhdM1tDQEhdMVtDQF0oW0NIM10pKFtDQEBIXTRbQ0BASF01W0NAXTIoW0NAXTU2NylbQ0gzXSlbQ0BAXShbT0hdKShDKD1PKVtDSDJdNylbQ0BdOChbT0hdKVtDQEhdKFtDSDJdW0NIMl00KVtDQEhdNltDSDJdOA==

>  <s_epik_cmdline>  (189) 
J2VwaWtfcHl0aG9uJywgJy1waHQnLCAnMi4wJywgJy1waCcsICc3LjAnLCAnLXRuJywgJzgnLCAnLW1hJywgJzIwMCcsICctaW1hZScsICc8aW5maWxlLm1hZT4nLCAnLW9tYWUnLCAnPG91dGZpbGUubWFlPic=

>  <r_lp_tautomer_probability>  (189) 
0.99995

>  <r_epik_Ionization_Penalty>  (189) 
0.0172886

>  <r_epik_Ionization_Penalty_Charging>  (189) 
0.0172886

>  <r_epik_Ionization_Penalty_Neutral>  (189) 
6.56038e-08

>  <r_epik_State_Penalty>  (189) 
0.0136945

>  <r_epik_Charging_Adjusted_Penalty>  (189) 
0.030983

>  <i_epik_Tot_Q>  (189) 
1

>  <i_epik_Tot_abs_Q>  (189) 
1

>  <s_lp_Force_Field>  (189) 
OPLS3e

>  <r_lp_Energy>  (189) 
203.834

>  <b_lp_Chiralities_Consistent>  (189) 
1

>  <s_lp_Variant>  (189) 
47:0-1

>  <s_i_glide_gridfile>  (189) 
pfpi4k_grid

>  <i_i_glide_lignum>  (189) 
37

>  <i_i_glide_rotatable_bonds>  (189) 
2

>  <r_i_docking_score>  (189) 
-2.58221

>  <r_i_glide_ligand_efficiency>  (189) 
-0.0860736

>  <r_i_glide_ligand_efficiency_sa>  (189) 
-0.267451

>  <r_i_glide_ligand_efficiency_ln>  (189) 
-0.586706

>  <r_i_glide_gscore>  (189) 
-2.58221

>  <r_i_glide_lipo>  (189) 
-0.799538

>  <r_i_glide_hbond>  (189) 
-0.0223045

>  <r_i_glide_metal>  (189) 
-0

>  <r_i_glide_rewards>  (189) 
-0.596013

>  <r_i_glide_evdw>  (189) 
-11.2432

>  <r_i_glide_ecoul>  (189) 
-3.88322

>  <r_i_glide_erotb>  (189) 
0

>  <r_i_glide_esite>  (189) 
-0.0197109

>  <r_i_glide_emodel>  (189) 
-16.1265

>  <r_i_glide_energy>  (189) 
-15.1264

>  <r_i_glide_einternal>  (189) 
2.13777

>  <r_i_glide_intrahb_reward>  (189) 
-0

>  <i_i_glide_confnum>  (189) 
2

>  <i_i_glide_posenum>  (189) 
19

>  <r_i_glide_eff_state_penalty>  (189) 
0

>  <ligand_id>  (189) 
47

>  <original_smiles>  (189) 
CC1C2CCC1C1C(C)(C2)NC2(C)C3C4CCC5C6CC5(O)C(O)(C(=O)CC632)C41C

>  <smiles>  (189) 
[H]OC12C(=O)C([H])([H])C34C5([H])C([H])([H])C1(O[H])C5([H])C([H])([H])C([H])([H])C1([H])C3([H])C4(C([H])([H])[H])[N+]([H])([H])C3(C([H])([H])[H])C([H])([H])C4([H])C([H])([H])C([H])([H])C([H])(C4([H])C([H])([H])[H])C3([H])C21C([H])([H])[H]

$$$$
47:0:1
     RDKit          3D

 68 75  0  0  1  0  0  0  0  0999 V2000
   -0.0729   -6.8777    3.0387 C   0  0  0  0  0  0  0  0  0  0  0  0
    1.3892   -6.9085    2.5604 C   0  0  2  0  0  0  0  0  0  0  0  0
    2.3526   -7.6481    3.4937 C   0  0  2  0  0  0  0  0  0  0  0  0
    2.4530   -6.7533    4.7104 C   0  0  0  0  0  0  0  0  0  0  0  0
    2.4452   -5.3717    4.0802 C   0  0  0  0  0  0  0  0  0  0  0  0
    2.0734   -5.5325    2.5747 C   0  0  1  0  0  0  0  0  0  0  0  0
    3.2732   -5.5585    1.5560 C   0  0  2  0  0  0  0  0  0  0  0  0
    4.4113   -6.6252    1.9889 C   0  0  2  0  0  0  0  0  0  0  0  0
    4.9965   -7.5139    0.8619 C   0  0  0  0  0  0  0  0  0  0  0  0
    3.7510   -7.8108    2.8333 C   0  0  0  0  0  0  0  0  0  0  0  0
    5.5624   -6.0236    2.6966 N   0  0  0  0  0  0  0  0  0  0  0  0
    6.5446   -5.1256    1.9888 C   0  0  1  0  0  0  0  0  0  0  0  0
    7.9837   -5.5248    2.2313 C   0  0  0  0  0  0  0  0  0  0  0  0
    6.0786   -4.5459    0.7407 C   0  0  1  0  0  0  0  0  0  0  0  0
    4.8313   -4.5497   -0.1004 C   0  0  2  0  0  0  0  0  0  0  0  0
    5.0768   -3.8324   -1.4387 C   0  0  0  0  0  0  0  0  0  0  0  0
    5.8451   -2.5421   -1.3820 C   0  0  0  0  0  0  0  0  0  0  0  0
    5.8022   -1.8140   -0.0574 C   0  0  2  0  0  0  0  0  0  0  0  0
    6.4868   -2.2511    1.2748 C   0  0  1  0  0  0  0  0  0  0  0  0
    5.6909   -0.9913    1.7444 C   0  0  0  0  0  0  0  0  0  0  0  0
    4.5524   -1.5631    0.8261 C   0  0  1  0  0  0  0  0  0  0  0  0
    3.7924   -0.4787    0.3608 O   0  0  0  0  0  0  0  0  0  0  0  0
    3.5675   -2.7235    1.4041 C   0  0  2  0  0  0  0  0  0  0  0  0
    2.2289   -2.2107    1.3802 O   0  0  0  0  0  0  0  0  0  0  0  0
    3.9164   -2.8302    2.8818 C   0  0  0  0  0  0  0  0  0  0  0  0
    3.1595   -2.4813    3.7906 O   0  0  0  0  0  0  0  0  0  0  0  0
    5.3037   -3.3173    3.2158 C   0  0  0  0  0  0  0  0  0  0  0  0
    6.1189   -3.6056    1.9585 C   0  0  2  0  0  0  0  0  0  0  0  0
    3.5569   -4.2062    0.6994 C   0  0  2  0  0  0  0  0  0  0  0  0
    2.4157   -4.1766   -0.3474 C   0  0  0  0  0  0  0  0  0  0  0  0
   -0.2053   -6.3832    4.0015 H   0  0  0  0  0  0  0  0  0  0  0  0
   -0.4881   -7.8809    3.1248 H   0  0  0  0  0  0  0  0  0  0  0  0
   -0.6770   -6.3509    2.3094 H   0  0  0  0  0  0  0  0  0  0  0  0
    1.3763   -7.3837    1.5757 H   0  0  0  0  0  0  0  0  0  0  0  0
    1.9445   -8.6237    3.7740 H   0  0  0  0  0  0  0  0  0  0  0  0
    1.5891   -6.8921    5.3609 H   0  0  0  0  0  0  0  0  0  0  0  0
    3.3452   -6.9575    5.3045 H   0  0  0  0  0  0  0  0  0  0  0  0
    1.7197   -4.7401    4.5910 H   0  0  0  0  0  0  0  0  0  0  0  0
    3.4231   -4.9565    4.2609 H   0  0  0  0  0  0  0  0  0  0  0  0
    1.3788   -4.7466    2.2879 H   0  0  0  0  0  0  0  0  0  0  0  0
    2.8472   -6.1680    0.7596 H   0  0  0  0  0  0  0  0  0  0  0  0
    4.2682   -7.8286    0.1119 H   0  0  0  0  0  0  0  0  0  0  0  0
    5.4738   -8.4277    1.2374 H   0  0  0  0  0  0  0  0  0  0  0  0
    5.8148   -7.0224    0.3768 H   0  0  0  0  0  0  0  0  0  0  0  0
    4.4546   -8.2114    3.5735 H   0  0  0  0  0  0  0  0  0  0  0  0
    3.5484   -8.6785    2.1894 H   0  0  0  0  0  0  0  0  0  0  0  0
    5.1857   -5.5514    3.5017 H   0  0  0  0  0  0  0  0  0  0  0  0
    8.6385   -4.7799    1.7840 H   0  0  0  0  0  0  0  0  0  0  0  0
    8.2107   -6.4936    1.7878 H   0  0  0  0  0  0  0  0  0  0  0  0
    8.2118   -5.5487    3.2978 H   0  0  0  0  0  0  0  0  0  0  0  0
    6.9432   -4.4625    0.0958 H   0  0  0  0  0  0  0  0  0  0  0  0
    4.6977   -5.5380   -0.5021 H   0  0  0  0  0  0  0  0  0  0  0  0
    5.6769   -4.4939   -2.0590 H   0  0  0  0  0  0  0  0  0  0  0  0
    4.1810   -3.7084   -2.0404 H   0  0  0  0  0  0  0  0  0  0  0  0
    6.8832   -2.7213   -1.6671 H   0  0  0  0  0  0  0  0  0  0  0  0
    5.4614   -1.8859   -2.1695 H   0  0  0  0  0  0  0  0  0  0  0  0
    6.2245   -0.8545   -0.3898 H   0  0  0  0  0  0  0  0  0  0  0  0
    7.5374   -2.0502    1.0790 H   0  0  0  0  0  0  0  0  0  0  0  0
    5.4801   -0.8405    2.7969 H   0  0  0  0  0  0  0  0  0  0  0  0
    6.0926   -0.0249    1.4153 H   0  0  0  0  0  0  0  0  0  0  0  0
    3.0465   -0.8106   -0.1002 H   0  0  0  0  0  0  0  0  0  0  0  0
    1.9415   -2.0113    0.5007 H   0  0  0  0  0  0  0  0  0  0  0  0
    5.8164   -2.5499    3.7971 H   0  0  0  0  0  0  0  0  0  0  0  0
    5.2883   -4.1308    3.9221 H   0  0  0  0  0  0  0  0  0  0  0  0
    2.3880   -3.2672   -0.9461 H   0  0  0  0  0  0  0  0  0  0  0  0
    1.4465   -4.3274    0.0937 H   0  0  0  0  0  0  0  0  0  0  0  0
    2.4582   -5.0013   -1.0320 H   0  0  0  0  0  0  0  0  0  0  0  0
    6.1010   -6.8095    3.0285 H   0  0  0  0  0  0  0  0  0  0  0  0
  1  2  1  0
  1 31  1  0
  1 32  1  0
  1 33  1  0
  2  6  1  0
  2  3  1  0
  2 34  1  6
  3 10  1  0
  3  4  1  0
  3 35  1  1
  4  5  1  0
  4 36  1  0
  4 37  1  0
  5  6  1  0
  5 38  1  0
  5 39  1  0
  6  7  1  0
  6 40  1  6
  7 29  1  0
  7  8  1  0
  7 41  1  6
  8  9  1  6
  8 10  1  0
  8 11  1  0
  9 42  1  0
  9 43  1  0
  9 44  1  0
 10 45  1  0
 10 46  1  0
 11 12  1  0
 11 47  1  0
 11 68  1  0
 12 28  1  0
 12 13  1  6
 12 14  1  0
 13 48  1  0
 13 49  1  0
 13 50  1  0
 14 28  1  0
 14 15  1  0
 14 51  1  6
 15 29  1  0
 15 16  1  0
 15 52  1  6
 16 17  1  0
 16 53  1  0
 16 54  1  0
 17 18  1  0
 17 55  1  0
 17 56  1  0
 18 21  1  0
 18 19  1  0
 18 57  1  6
 19 28  1  0
 19 20  1  0
 19 58  1  6
 20 21  1  0
 20 59  1  0
 20 60  1  0
 21 22  1  6
 21 23  1  0
 22 61  1  0
 23 24  1  1
 23 25  1  0
 23 29  1  0
 24 62  1  0
 25 26  2  0
 25 27  1  0
 28 27  1  1
 27 63  1  0
 27 64  1  0
 29 30  1  6
 30 65  1  0
 30 66  1  0
 30 67  1  0
M  CHG  1  11   1
M  END
>  <i_m_ct_stereo_status>  (190) 
1

>  <s_m_source_file>  (190) 
/var/tmp/pbs.5076255.sched01/tmp2obefojl/44ql_32cm2.sdf

>  <i_m_source_file_index>  (190) 
37

>  <i_lp_mmshare_version>  (190) 
48012

>  <i_f3d_flags>  (190) 
0

>  <s_epik_input>  (190) 
W0NIM11bQ0BdMShbTkhdMilbQ0gyXVtDQEBIXShbQ0gyXVtDSDJdMylbQ0BASF0oW0NIM10pW0NAQEhdM1tDQEhdMVtDQF0oW0NIM10pKFtDQEBIXTRbQ0BASF01W0NAXTIoW0NAXTU2NylbQ0gzXSlbQ0BAXShbT0hdKShDKD1PKVtDSDJdNylbQ0BdOChbT0hdKVtDQEhdKFtDSDJdW0NIMl00KVtDQEhdNltDSDJdOA==

>  <s_epik_cmdline>  (190) 
J2VwaWtfcHl0aG9uJywgJy1waHQnLCAnMi4wJywgJy1waCcsICc3LjAnLCAnLXRuJywgJzgnLCAnLW1hJywgJzIwMCcsICctaW1hZScsICc8aW5maWxlLm1hZT4nLCAnLW9tYWUnLCAnPG91dGZpbGUubWFlPic=

>  <r_lp_tautomer_probability>  (190) 
0.99995

>  <r_epik_Ionization_Penalty>  (190) 
0.0172886

>  <r_epik_Ionization_Penalty_Charging>  (190) 
0.0172886

>  <r_epik_Ionization_Penalty_Neutral>  (190) 
6.56038e-08

>  <r_epik_State_Penalty>  (190) 
0.0136945

>  <r_epik_Charging_Adjusted_Penalty>  (190) 
0.030983

>  <i_epik_Tot_Q>  (190) 
1

>  <i_epik_Tot_abs_Q>  (190) 
1

>  <s_lp_Force_Field>  (190) 
OPLS3e

>  <r_lp_Energy>  (190) 
203.834

>  <b_lp_Chiralities_Consistent>  (190) 
1

>  <s_lp_Variant>  (190) 
47:0-1

>  <s_i_glide_gridfile>  (190) 
pfpi4k_grid

>  <i_i_glide_lignum>  (190) 
37

>  <i_i_glide_rotatable_bonds>  (190) 
2

>  <r_i_docking_score>  (190) 
-2.53257

>  <r_i_glide_ligand_efficiency>  (190) 
-0.084419

>  <r_i_glide_ligand_efficiency_sa>  (190) 
-0.262309

>  <r_i_glide_ligand_efficiency_ln>  (190) 
-0.575427

>  <r_i_glide_gscore>  (190) 
-2.53257

>  <r_i_glide_lipo>  (190) 
-0.564867

>  <r_i_glide_hbond>  (190) 
0

>  <r_i_glide_metal>  (190) 
-0

>  <r_i_glide_rewards>  (190) 
-0.596736

>  <r_i_glide_evdw>  (190) 
-20.3406

>  <r_i_glide_ecoul>  (190) 
-2.3596

>  <r_i_glide_erotb>  (190) 
0

>  <r_i_glide_esite>  (190) 
0

>  <r_i_glide_emodel>  (190) 
-24.6594

>  <r_i_glide_energy>  (190) 
-22.7002

>  <r_i_glide_einternal>  (190) 
1.20845

>  <r_i_glide_intrahb_reward>  (190) 
-0

>  <i_i_glide_confnum>  (190) 
1

>  <i_i_glide_posenum>  (190) 
10

>  <r_i_glide_eff_state_penalty>  (190) 
0

>  <ligand_id>  (190) 
47

>  <original_smiles>  (190) 
CC1C2CCC1C1C(C)(C2)NC2(C)C3C4CCC5C6CC5(O)C(O)(C(=O)CC632)C41C

>  <smiles>  (190) 
[H]OC12C(=O)C([H])([H])C34C5([H])C([H])([H])C1(O[H])C5([H])C([H])([H])C([H])([H])C1([H])C3([H])C4(C([H])([H])[H])[N+]([H])([H])C3(C([H])([H])[H])C([H])([H])C4([H])C([H])([H])C([H])([H])C([H])(C4([H])C([H])([H])[H])C3([H])C21C([H])([H])[H]

$$$$
47:0:2
     RDKit          3D

 68 75  0  0  1  0  0  0  0  0999 V2000
    3.3157   -1.0018   -2.7049 C   0  0  0  0  0  0  0  0  0  0  0  0
    4.3414   -1.5945   -1.7177 C   0  0  2  0  0  0  0  0  0  0  0  0
    5.2700   -2.6102   -2.3774 C   0  0  2  0  0  0  0  0  0  0  0  0
    4.3885   -3.7694   -2.7062 C   0  0  0  0  0  0  0  0  0  0  0  0
    3.4910   -3.8036   -1.4921 C   0  0  0  0  0  0  0  0  0  0  0  0
    3.7173   -2.5256   -0.6585 C   0  0  1  0  0  0  0  0  0  0  0  0
    4.7212   -2.6777    0.5534 C   0  0  2  0  0  0  0  0  0  0  0  0
    6.1069   -3.3679    0.1126 C   0  0  2  0  0  0  0  0  0  0  0  0
    7.4065   -2.7318    0.6628 C   0  0  0  0  0  0  0  0  0  0  0  0
    6.3873   -3.0569   -1.4155 C   0  0  0  0  0  0  0  0  0  0  0  0
    6.1754   -4.8226    0.4147 N   0  0  0  0  0  0  0  0  0  0  0  0
    6.2656   -5.3542    1.8304 C   0  0  1  0  0  0  0  0  0  0  0  0
    7.3936   -6.3384    2.0208 C   0  0  0  0  0  0  0  0  0  0  0  0
    5.8097   -4.4613    2.8670 C   0  0  1  0  0  0  0  0  0  0  0  0
    5.2888   -3.0371    2.9553 C   0  0  2  0  0  0  0  0  0  0  0  0
    5.1402   -2.5904    4.4219 C   0  0  0  0  0  0  0  0  0  0  0  0
    4.6358   -3.5989    5.4165 C   0  0  0  0  0  0  0  0  0  0  0  0
    3.7727   -4.7031    4.8511 C   0  0  2  0  0  0  0  0  0  0  0  0
    4.2141   -5.8929    3.9163 C   0  0  1  0  0  0  0  0  0  0  0  0
    2.6607   -6.0463    3.9460 C   0  0  0  0  0  0  0  0  0  0  0  0
    2.6354   -4.4734    3.8203 C   0  0  1  0  0  0  0  0  0  0  0  0
    1.4640   -3.9592    4.4195 O   0  0  0  0  0  0  0  0  0  0  0  0
    2.8881   -3.8035    2.3577 C   0  0  2  0  0  0  0  0  0  0  0  0
    1.8041   -2.9802    2.1133 O   0  0  0  0  0  0  0  0  0  0  0  0
    2.7972   -4.9655    1.3682 C   0  0  0  0  0  0  0  0  0  0  0  0
    1.8559   -5.1520    0.5979 O   0  0  0  0  0  0  0  0  0  0  0  0
    3.8797   -5.9942    1.4289 C   0  0  0  0  0  0  0  0  0  0  0  0
    4.8780   -5.6343    2.5145 C   0  0  2  0  0  0  0  0  0  0  0  0
    4.0977   -2.7715    2.0366 C   0  0  2  0  0  0  0  0  0  0  0  0
    3.6268   -1.2897    2.3387 C   0  0  0  0  0  0  0  0  0  0  0  0
    2.6630   -1.7355   -3.1733 H   0  0  0  0  0  0  0  0  0  0  0  0
    3.7949   -0.4004   -3.4731 H   0  0  0  0  0  0  0  0  0  0  0  0
    2.6256   -0.3470   -2.1964 H   0  0  0  0  0  0  0  0  0  0  0  0
    4.9009   -0.7661   -1.2716 H   0  0  0  0  0  0  0  0  0  0  0  0
    5.6912   -2.2608   -3.3147 H   0  0  0  0  0  0  0  0  0  0  0  0
    3.8161   -3.5690   -3.6110 H   0  0  0  0  0  0  0  0  0  0  0  0
    4.9544   -4.6777   -2.8755 H   0  0  0  0  0  0  0  0  0  0  0  0
    2.4508   -3.8442   -1.8057 H   0  0  0  0  0  0  0  0  0  0  0  0
    3.7559   -4.7032   -0.9584 H   0  0  0  0  0  0  0  0  0  0  0  0
    2.7521   -2.1340   -0.3082 H   0  0  0  0  0  0  0  0  0  0  0  0
    5.0955   -1.6588    0.6141 H   0  0  0  0  0  0  0  0  0  0  0  0
    7.3439   -1.6462    0.7700 H   0  0  0  0  0  0  0  0  0  0  0  0
    8.2786   -2.9450    0.0411 H   0  0  0  0  0  0  0  0  0  0  0  0
    7.6864   -3.1861    1.5936 H   0  0  0  0  0  0  0  0  0  0  0  0
    6.9659   -3.8543   -1.8901 H   0  0  0  0  0  0  0  0  0  0  0  0
    7.0735   -2.2206   -1.5194 H   0  0  0  0  0  0  0  0  0  0  0  0
    5.3975   -5.2682   -0.0524 H   0  0  0  0  0  0  0  0  0  0  0  0
    7.3375   -6.7392    3.0297 H   0  0  0  0  0  0  0  0  0  0  0  0
    8.3645   -5.8605    1.9050 H   0  0  0  0  0  0  0  0  0  0  0  0
    7.3111   -7.1793    1.3329 H   0  0  0  0  0  0  0  0  0  0  0  0
    6.3878   -4.6741    3.7616 H   0  0  0  0  0  0  0  0  0  0  0  0
    6.0648   -2.3535    2.6444 H   0  0  0  0  0  0  0  0  0  0  0  0
    6.1322   -2.4129    4.8147 H   0  0  0  0  0  0  0  0  0  0  0  0
    4.6545   -1.6298    4.5634 H   0  0  0  0  0  0  0  0  0  0  0  0
    5.4834   -4.0343    5.9556 H   0  0  0  0  0  0  0  0  0  0  0  0
    4.0802   -3.0537    6.1844 H   0  0  0  0  0  0  0  0  0  0  0  0
    3.3905   -5.1086    5.8060 H   0  0  0  0  0  0  0  0  0  0  0  0
    4.6928   -6.6734    4.5048 H   0  0  0  0  0  0  0  0  0  0  0  0
    2.1631   -6.6370    3.1849 H   0  0  0  0  0  0  0  0  0  0  0  0
    2.2560   -6.4499    4.8868 H   0  0  0  0  0  0  0  0  0  0  0  0
    1.7002   -3.1270    4.7858 H   0  0  0  0  0  0  0  0  0  0  0  0
    1.7954   -2.2979    2.7787 H   0  0  0  0  0  0  0  0  0  0  0  0
    3.4724   -6.9810    1.6596 H   0  0  0  0  0  0  0  0  0  0  0  0
    4.3264   -6.1386    0.4602 H   0  0  0  0  0  0  0  0  0  0  0  0
    3.0473   -1.2092    3.2616 H   0  0  0  0  0  0  0  0  0  0  0  0
    2.9728   -0.9147    1.5451 H   0  0  0  0  0  0  0  0  0  0  0  0
    4.4535   -0.5902    2.4142 H   0  0  0  0  0  0  0  0  0  0  0  0
    7.0266   -5.1424   -0.0230 H   0  0  0  0  0  0  0  0  0  0  0  0
  1  2  1  0
  1 31  1  0
  1 32  1  0
  1 33  1  0
  2  6  1  0
  2  3  1  0
  2 34  1  1
  3 10  1  0
  3  4  1  0
  3 35  1  6
  4  5  1  0
  4 36  1  0
  4 37  1  0
  5  6  1  0
  5 38  1  0
  5 39  1  0
  6  7  1  0
  6 40  1  1
  7 29  1  0
  7  8  1  0
  7 41  1  1
  8  9  1  1
  8 10  1  0
  8 11  1  0
  9 42  1  0
  9 43  1  0
  9 44  1  0
 10 45  1  0
 10 46  1  0
 11 12  1  0
 11 47  1  0
 11 68  1  0
 12 28  1  0
 12 13  1  1
 12 14  1  0
 13 48  1  0
 13 49  1  0
 13 50  1  0
 14 28  1  0
 14 15  1  0
 14 51  1  1
 15 29  1  0
 15 16  1  0
 15 52  1  6
 16 17  1  0
 16 53  1  0
 16 54  1  0
 17 18  1  0
 17 55  1  0
 17 56  1  0
 18 21  1  0
 18 19  1  0
 18 57  1  1
 19 28  1  0
 19 20  1  0
 19 58  1  1
 20 21  1  0
 20 59  1  0
 20 60  1  0
 21 22  1  1
 21 23  1  0
 22 61  1  0
 23 24  1  6
 23 25  1  0
 23 29  1  0
 24 62  1  0
 25 26  2  0
 25 27  1  0
 28 27  1  6
 27 63  1  0
 27 64  1  0
 29 30  1  1
 30 65  1  0
 30 66  1  0
 30 67  1  0
M  CHG  1  11   1
M  END
>  <i_m_ct_stereo_status>  (191) 
1

>  <s_m_source_file>  (191) 
/var/tmp/pbs.5076255.sched01/tmp2obefojl/44ql_32cm2.sdf

>  <i_m_source_file_index>  (191) 
37

>  <i_lp_mmshare_version>  (191) 
48012

>  <i_f3d_flags>  (191) 
0

>  <s_epik_input>  (191) 
W0NIM11bQ0BdMShbTkhdMilbQ0gyXVtDQEBIXShbQ0gyXVtDSDJdMylbQ0BASF0oW0NIM10pW0NAQEhdM1tDQEhdMVtDQF0oW0NIM10pKFtDQEBIXTRbQ0BASF01W0NAXTIoW0NAXTU2NylbQ0gzXSlbQ0BAXShbT0hdKShDKD1PKVtDSDJdNylbQ0BdOChbT0hdKVtDQEhdKFtDSDJdW0NIMl00KVtDQEhdNltDSDJdOA==

>  <s_epik_cmdline>  (191) 
J2VwaWtfcHl0aG9uJywgJy1waHQnLCAnMi4wJywgJy1waCcsICc3LjAnLCAnLXRuJywgJzgnLCAnLW1hJywgJzIwMCcsICctaW1hZScsICc8aW5maWxlLm1hZT4nLCAnLW9tYWUnLCAnPG91dGZpbGUubWFlPic=

>  <r_lp_tautomer_probability>  (191) 
0.99995

>  <r_epik_Ionization_Penalty>  (191) 
0.0172886

>  <r_epik_Ionization_Penalty_Charging>  (191) 
0.0172886

>  <r_epik_Ionization_Penalty_Neutral>  (191) 
6.56038e-08

>  <r_epik_State_Penalty>  (191) 
0.0136945

>  <r_epik_Charging_Adjusted_Penalty>  (191) 
0.030983

>  <i_epik_Tot_Q>  (191) 
1

>  <i_epik_Tot_abs_Q>  (191) 
1

>  <s_lp_Force_Field>  (191) 
OPLS3e

>  <r_lp_Energy>  (191) 
203.834

>  <b_lp_Chiralities_Consistent>  (191) 
1

>  <s_lp_Variant>  (191) 
47:0-1

>  <s_i_glide_gridfile>  (191) 
pfpi4k_grid

>  <i_i_glide_lignum>  (191) 
37

>  <i_i_glide_rotatable_bonds>  (191) 
2

>  <r_i_docking_score>  (191) 
-2.03009

>  <r_i_glide_ligand_efficiency>  (191) 
-0.0676697

>  <r_i_glide_ligand_efficiency_sa>  (191) 
-0.210265

>  <r_i_glide_ligand_efficiency_ln>  (191) 
-0.461259

>  <r_i_glide_gscore>  (191) 
-2.03009

>  <r_i_glide_lipo>  (191) 
-0.60462

>  <r_i_glide_hbond>  (191) 
-0.0808622

>  <r_i_glide_metal>  (191) 
-0

>  <r_i_glide_rewards>  (191) 
-0.596013

>  <r_i_glide_evdw>  (191) 
-14.9161

>  <r_i_glide_ecoul>  (191) 
0.0629349

>  <r_i_glide_erotb>  (191) 
0

>  <r_i_glide_esite>  (191) 
-0.0122326

>  <r_i_glide_emodel>  (191) 
-16.3897

>  <r_i_glide_energy>  (191) 
-14.8531

>  <r_i_glide_einternal>  (191) 
0.214066

>  <r_i_glide_intrahb_reward>  (191) 
-0

>  <i_i_glide_confnum>  (191) 
1

>  <i_i_glide_posenum>  (191) 
17

>  <r_i_glide_eff_state_penalty>  (191) 
0

>  <ligand_id>  (191) 
47

>  <original_smiles>  (191) 
CC1C2CCC1C1C(C)(C2)NC2(C)C3C4CCC5C6CC5(O)C(O)(C(=O)CC632)C41C

>  <smiles>  (191) 
[H]OC12C(=O)C([H])([H])C34C5([H])C([H])([H])C1(O[H])C5([H])C([H])([H])C([H])([H])C1([H])C3([H])C4(C([H])([H])[H])[N+]([H])([H])C3(C([H])([H])[H])C([H])([H])C4([H])C([H])([H])C([H])([H])C([H])(C4([H])C([H])([H])[H])C3([H])C21C([H])([H])[H]

$$$$
47:1:0
     RDKit          3D

 67 74  0  0  1  0  0  0  0  0999 V2000
    2.5583   -3.8247    4.1469 C   0  0  0  0  0  0  0  0  0  0  0  0
    2.4020   -2.3612    3.6781 C   0  0  2  0  0  0  0  0  0  0  0  0
    3.7062   -1.6770    3.2686 C   0  0  2  0  0  0  0  0  0  0  0  0
    4.4439   -1.4923    4.5800 C   0  0  0  0  0  0  0  0  0  0  0  0
    3.3151   -1.1233    5.5288 C   0  0  0  0  0  0  0  0  0  0  0  0
    1.9678   -1.3966    4.7980 C   0  0  1  0  0  0  0  0  0  0  0  0
    1.2770   -0.1456    4.1357 C   0  0  2  0  0  0  0  0  0  0  0  0
    2.2390    0.6285    3.0831 C   0  0  2  0  0  0  0  0  0  0  0  0
    1.5902    1.0195    1.7064 C   0  0  0  0  0  0  0  0  0  0  0  0
    3.4366   -0.3046    2.5931 C   0  0  0  0  0  0  0  0  0  0  0  0
    2.8264    1.8822    3.5948 N   0  0  0  0  0  0  0  0  0  0  0  0
    1.9806    3.0433    3.9852 C   0  0  1  0  0  0  0  0  0  0  0  0
    2.5769    4.3184    3.4152 C   0  0  0  0  0  0  0  0  0  0  0  0
    0.5510    2.8869    4.1110 C   0  0  1  0  0  0  0  0  0  0  0  0
   -0.4042    1.7095    4.0174 C   0  0  2  0  0  0  0  0  0  0  0  0
   -1.8567    2.2028    4.0555 C   0  0  0  0  0  0  0  0  0  0  0  0
   -2.1399    3.3106    5.0438 C   0  0  0  0  0  0  0  0  0  0  0  0
   -1.2191    3.4069    6.2462 C   0  0  2  0  0  0  0  0  0  0  0  0
    0.2814    3.8677    6.2707 C   0  0  1  0  0  0  0  0  0  0  0  0
    0.0862    3.3664    7.7418 C   0  0  0  0  0  0  0  0  0  0  0  0
   -0.7597    2.1849    7.1045 C   0  0  1  0  0  0  0  0  0  0  0  0
   -1.7877    1.7427    7.9732 O   0  0  0  0  0  0  0  0  0  0  0  0
    0.0655    0.8941    6.5015 C   0  0  2  0  0  0  0  0  0  0  0  0
   -0.3758   -0.2600    7.2201 O   0  0  0  0  0  0  0  0  0  0  0  0
    1.5204    1.0876    6.9376 C   0  0  0  0  0  0  0  0  0  0  0  0
    2.0532    0.3881    7.8007 O   0  0  0  0  0  0  0  0  0  0  0  0
    2.2471    2.2725    6.3360 C   0  0  0  0  0  0  0  0  0  0  0  0
    1.3522    3.1126    5.4201 C   0  0  2  0  0  0  0  0  0  0  0  0
   -0.0103    0.5080    4.9091 C   0  0  2  0  0  0  0  0  0  0  0  0
   -1.1585   -0.5527    4.7352 C   0  0  0  0  0  0  0  0  0  0  0  0
    3.2007   -3.9274    5.0242 H   0  0  0  0  0  0  0  0  0  0  0  0
    2.9836   -4.4491    3.3587 H   0  0  0  0  0  0  0  0  0  0  0  0
    1.5912   -4.2517    4.4124 H   0  0  0  0  0  0  0  0  0  0  0  0
    1.7131   -2.3889    2.8312 H   0  0  0  0  0  0  0  0  0  0  0  0
    4.2937   -2.3070    2.5969 H   0  0  0  0  0  0  0  0  0  0  0  0
    4.9234   -2.4200    4.8905 H   0  0  0  0  0  0  0  0  0  0  0  0
    5.2222   -0.7305    4.5272 H   0  0  0  0  0  0  0  0  0  0  0  0
    3.3907   -1.6993    6.4507 H   0  0  0  0  0  0  0  0  0  0  0  0
    3.4731   -0.0844    5.7713 H   0  0  0  0  0  0  0  0  0  0  0  0
    1.2776   -1.8996    5.4702 H   0  0  0  0  0  0  0  0  0  0  0  0
    0.7039   -0.6567    3.3680 H   0  0  0  0  0  0  0  0  0  0  0  0
    0.9448    0.2305    1.3129 H   0  0  0  0  0  0  0  0  0  0  0  0
    2.3493    1.1997    0.9455 H   0  0  0  0  0  0  0  0  0  0  0  0
    1.0275    1.9537    1.6944 H   0  0  0  0  0  0  0  0  0  0  0  0
    4.3682    0.2631    2.5555 H   0  0  0  0  0  0  0  0  0  0  0  0
    3.2778   -0.5961    1.5525 H   0  0  0  0  0  0  0  0  0  0  0  0
    3.5585    2.1929    2.9608 H   0  0  0  0  0  0  0  0  0  0  0  0
    1.9998    5.1828    3.7488 H   0  0  0  0  0  0  0  0  0  0  0  0
    2.5620    4.3057    2.3248 H   0  0  0  0  0  0  0  0  0  0  0  0
    3.6024    4.4520    3.7617 H   0  0  0  0  0  0  0  0  0  0  0  0
    0.0730    3.7619    3.6704 H   0  0  0  0  0  0  0  0  0  0  0  0
   -0.4135    1.3338    3.0070 H   0  0  0  0  0  0  0  0  0  0  0  0
   -2.0918    2.6079    3.0666 H   0  0  0  0  0  0  0  0  0  0  0  0
   -2.5818    1.4115    4.1697 H   0  0  0  0  0  0  0  0  0  0  0  0
   -2.1343    4.2641    4.5150 H   0  0  0  0  0  0  0  0  0  0  0  0
   -3.1724    3.1934    5.3873 H   0  0  0  0  0  0  0  0  0  0  0  0
   -1.8134    4.1085    6.8514 H   0  0  0  0  0  0  0  0  0  0  0  0
    0.3722    4.9540    6.2097 H   0  0  0  0  0  0  0  0  0  0  0  0
    0.9632    3.1398    8.3425 H   0  0  0  0  0  0  0  0  0  0  0  0
   -0.4684    4.0616    8.3773 H   0  0  0  0  0  0  0  0  0  0  0  0
   -1.9743    2.4701    8.5512 H   0  0  0  0  0  0  0  0  0  0  0  0
    0.2495   -0.9430    7.0356 H   0  0  0  0  0  0  0  0  0  0  0  0
    2.6171    2.9114    7.1343 H   0  0  0  0  0  0  0  0  0  0  0  0
    3.1646    1.9457    5.8578 H   0  0  0  0  0  0  0  0  0  0  0  0
   -2.0505   -0.3071    5.3139 H   0  0  0  0  0  0  0  0  0  0  0  0
   -0.8570   -1.5508    5.0510 H   0  0  0  0  0  0  0  0  0  0  0  0
   -1.4719   -0.6438    3.6951 H   0  0  0  0  0  0  0  0  0  0  0  0
  1  2  1  0
  1 31  1  0
  1 32  1  0
  1 33  1  0
  2  6  1  0
  2  3  1  0
  2 34  1  6
  3 10  1  0
  3  4  1  0
  3 35  1  6
  4  5  1  0
  4 36  1  0
  4 37  1  0
  5  6  1  0
  5 38  1  0
  5 39  1  0
  6  7  1  0
  6 40  1  1
  7 29  1  0
  7  8  1  0
  7 41  1  6
  8  9  1  6
  8 10  1  0
  8 11  1  0
  9 42  1  0
  9 43  1  0
  9 44  1  0
 10 45  1  0
 10 46  1  0
 11 12  1  0
 11 47  1  0
 12 28  1  0
 12 13  1  6
 12 14  1  0
 13 48  1  0
 13 49  1  0
 13 50  1  0
 14 28  1  0
 14 15  1  0
 14 51  1  6
 15 29  1  0
 15 16  1  0
 15 52  1  6
 16 17  1  0
 16 53  1  0
 16 54  1  0
 17 18  1  0
 17 55  1  0
 17 56  1  0
 18 21  1  0
 18 19  1  0
 18 57  1  1
 19 28  1  0
 19 20  1  0
 19 58  1  1
 20 21  1  0
 20 59  1  0
 20 60  1  0
 21 22  1  1
 21 23  1  0
 22 61  1  0
 23 24  1  1
 23 25  1  0
 23 29  1  0
 24 62  1  0
 25 26  2  0
 25 27  1  0
 28 27  1  1
 27 63  1  0
 27 64  1  0
 29 30  1  1
 30 65  1  0
 30 66  1  0
 30 67  1  0
M  END
>  <i_m_ct_stereo_status>  (192) 
1

>  <s_m_source_file>  (192) 
/var/tmp/pbs.5076255.sched01/tmp2obefojl/44ql_32cm2.sdf

>  <i_m_source_file_index>  (192) 
38

>  <i_lp_mmshare_version>  (192) 
48012

>  <i_f3d_flags>  (192) 
0

>  <s_epik_input>  (192) 
W0NIM11bQ0BdMShbTkhdMilbQ0gyXVtDQEBIXShbQ0gyXVtDSDJdMylbQ0BASF0oW0NIM10pW0NAQEhdM1tDQEhdMVtDQF0oW0NIM10pKFtDQEBIXTRbQ0BASF01W0NAXTIoW0NAXTU2NylbQ0gzXSlbQ0BAXShbT0hdKShDKD1PKVtDSDJdNylbQ0BdOChbT0hdKVtDQEhdKFtDSDJdW0NIMl00KVtDQEhdNltDSDJdOA==

>  <s_epik_cmdline>  (192) 
J2VwaWtfcHl0aG9uJywgJy1waHQnLCAnMi4wJywgJy1waCcsICc3LjAnLCAnLXRuJywgJzgnLCAnLW1hJywgJzIwMCcsICctaW1hZScsICc8aW5maWxlLm1hZT4nLCAnLW9tYWUnLCAnPG91dGZpbGUubWFlPic=

>  <r_lp_tautomer_probability>  (192) 
0.99995

>  <r_epik_Ionization_Penalty>  (192) 
2.10264

>  <r_epik_Ionization_Penalty_Charging>  (192) 
0

>  <r_epik_Ionization_Penalty_Neutral>  (192) 
2.10264

>  <r_epik_State_Penalty>  (192) 
2.23893

>  <r_epik_Charging_Adjusted_Penalty>  (192) 
2.23893

>  <i_epik_Tot_Q>  (192) 
0

>  <i_epik_Tot_abs_Q>  (192) 
0

>  <s_lp_Force_Field>  (192) 
OPLS3e

>  <r_lp_Energy>  (192) 
200.917

>  <b_lp_Chiralities_Consistent>  (192) 
1

>  <s_lp_Variant>  (192) 
47:0-2

>  <s_i_glide_gridfile>  (192) 
pfpi4k_grid

>  <i_i_glide_lignum>  (192) 
38

>  <i_i_glide_rotatable_bonds>  (192) 
2

>  <r_i_docking_score>  (192) 
-3.02777

>  <r_i_glide_ligand_efficiency>  (192) 
-0.100926

>  <r_i_glide_ligand_efficiency_sa>  (192) 
-0.313599

>  <r_i_glide_ligand_efficiency_ln>  (192) 
-0.687941

>  <r_i_glide_gscore>  (192) 
-3.02777

>  <r_i_glide_lipo>  (192) 
-0.0382804

>  <r_i_glide_hbond>  (192) 
-0.209949

>  <r_i_glide_metal>  (192) 
-0

>  <r_i_glide_rewards>  (192) 
-0.602885

>  <r_i_glide_evdw>  (192) 
-25.4462

>  <r_i_glide_ecoul>  (192) 
-6.02895

>  <r_i_glide_erotb>  (192) 
0

>  <r_i_glide_esite>  (192) 
0

>  <r_i_glide_emodel>  (192) 
-36.6088

>  <r_i_glide_energy>  (192) 
-31.4751

>  <r_i_glide_einternal>  (192) 
1.86232

>  <r_i_glide_intrahb_reward>  (192) 
-0

>  <i_i_glide_confnum>  (192) 
2

>  <i_i_glide_posenum>  (192) 
38

>  <r_i_glide_eff_state_penalty>  (192) 
0

>  <ligand_id>  (192) 
47

>  <original_smiles>  (192) 
CC1C2CCC1C1C(C)(C2)NC2(C)C3C4CCC5C6CC5(O)C(O)(C(=O)CC632)C41C

>  <smiles>  (192) 
[H]OC12C(=O)C([H])([H])C34C5([H])C([H])([H])C1(O[H])C5([H])C([H])([H])C([H])([H])C1([H])C3([H])C4(C([H])([H])[H])N([H])C3(C([H])([H])[H])C([H])([H])C4([H])C([H])([H])C([H])([H])C([H])(C4([H])C([H])([H])[H])C3([H])C21C([H])([H])[H]

$$$$
47:1:1
     RDKit          3D

 67 74  0  0  1  0  0  0  0  0999 V2000
    4.2199   -4.0563   -0.0893 C   0  0  0  0  0  0  0  0  0  0  0  0
    3.7861   -2.7625    0.6354 C   0  0  2  0  0  0  0  0  0  0  0  0
    4.7078   -1.5624    0.4114 C   0  0  2  0  0  0  0  0  0  0  0  0
    5.9687   -1.9237    1.1676 C   0  0  0  0  0  0  0  0  0  0  0  0
    5.4029   -2.5960    2.4082 C   0  0  0  0  0  0  0  0  0  0  0  0
    3.8869   -2.8517    2.1695 C   0  0  1  0  0  0  0  0  0  0  0  0
    2.9018   -1.7969    2.7981 C   0  0  2  0  0  0  0  0  0  0  0  0
    3.2122   -0.2821    2.3157 C   0  0  2  0  0  0  0  0  0  0  0  0
    1.9737    0.5833    1.8824 C   0  0  0  0  0  0  0  0  0  0  0  0
    4.0858   -0.2616    0.9828 C   0  0  0  0  0  0  0  0  0  0  0  0
    3.9076    0.5428    3.3163 N   0  0  0  0  0  0  0  0  0  0  0  0
    3.2921    0.8833    4.6228 C   0  0  1  0  0  0  0  0  0  0  0  0
    3.4832    2.3613    4.9125 C   0  0  0  0  0  0  0  0  0  0  0  0
    2.1042    0.1957    5.0621 C   0  0  1  0  0  0  0  0  0  0  0  0
    1.2793   -0.9559    4.5090 C   0  0  2  0  0  0  0  0  0  0  0  0
   -0.0055   -1.1241    5.3319 C   0  0  0  0  0  0  0  0  0  0  0  0
    0.1665   -0.9702    6.8262 C   0  0  0  0  0  0  0  0  0  0  0  0
    1.5420   -1.2650    7.3946 C   0  0  2  0  0  0  0  0  0  0  0  0
    2.8513   -0.4163    7.2426 C   0  0  1  0  0  0  0  0  0  0  0  0
    3.3967   -1.7044    7.9454 C   0  0  0  0  0  0  0  0  0  0  0  0
    2.4065   -2.4921    6.9930 C   0  0  1  0  0  0  0  0  0  0  0  0
    1.9321   -3.6706    7.6171 O   0  0  0  0  0  0  0  0  0  0  0  0
    2.9182   -2.8152    5.4646 C   0  0  2  0  0  0  0  0  0  0  0  0
    2.9266   -4.2366    5.3352 O   0  0  0  0  0  0  0  0  0  0  0  0
    4.3935   -2.4095    5.4153 C   0  0  0  0  0  0  0  0  0  0  0  0
    5.3108   -3.2331    5.3499 O   0  0  0  0  0  0  0  0  0  0  0  0
    4.6867   -0.9344    5.5814 C   0  0  0  0  0  0  0  0  0  0  0  0
    3.4230   -0.1101    5.8271 C   0  0  2  0  0  0  0  0  0  0  0  0
    2.1115   -2.2114    4.1685 C   0  0  2  0  0  0  0  0  0  0  0  0
    1.0767   -3.2967    3.7086 C   0  0  0  0  0  0  0  0  0  0  0  0
    5.2023   -4.4118    0.2202 H   0  0  0  0  0  0  0  0  0  0  0  0
    4.2487   -3.9136   -1.1703 H   0  0  0  0  0  0  0  0  0  0  0  0
    3.5150   -4.8639    0.1076 H   0  0  0  0  0  0  0  0  0  0  0  0
    2.7817   -2.5323    0.2732 H   0  0  0  0  0  0  0  0  0  0  0  0
    4.9304   -1.4277   -0.6483 H   0  0  0  0  0  0  0  0  0  0  0  0
    6.5824   -2.6185    0.5952 H   0  0  0  0  0  0  0  0  0  0  0  0
    6.5885   -1.0557    1.3999 H   0  0  0  0  0  0  0  0  0  0  0  0
    5.9312   -3.5292    2.6045 H   0  0  0  0  0  0  0  0  0  0  0  0
    5.6074   -1.9145    3.2194 H   0  0  0  0  0  0  0  0  0  0  0  0
    3.6245   -3.8553    2.5001 H   0  0  0  0  0  0  0  0  0  0  0  0
    2.0591   -1.9295    2.1242 H   0  0  0  0  0  0  0  0  0  0  0  0
    1.2599    0.0084    1.2866 H   0  0  0  0  0  0  0  0  0  0  0  0
    2.2748    1.4375    1.2706 H   0  0  0  0  0  0  0  0  0  0  0  0
    1.4231    1.0733    2.6868 H   0  0  0  0  0  0  0  0  0  0  0  0
    4.8522    0.5163    1.0296 H   0  0  0  0  0  0  0  0  0  0  0  0
    3.4570    0.0451    0.1496 H   0  0  0  0  0  0  0  0  0  0  0  0
    4.2040    1.4061    2.8671 H   0  0  0  0  0  0  0  0  0  0  0  0
    3.0938    2.6017    5.9034 H   0  0  0  0  0  0  0  0  0  0  0  0
    2.9580    2.9775    4.1827 H   0  0  0  0  0  0  0  0  0  0  0  0
    4.5423    2.6188    4.9063 H   0  0  0  0  0  0  0  0  0  0  0  0
    1.4344    0.9206    5.5199 H   0  0  0  0  0  0  0  0  0  0  0  0
    0.8113   -0.6519    3.5873 H   0  0  0  0  0  0  0  0  0  0  0  0
   -0.7004   -0.3385    5.0260 H   0  0  0  0  0  0  0  0  0  0  0  0
   -0.5557   -2.0360    5.1163 H   0  0  0  0  0  0  0  0  0  0  0  0
   -0.1271    0.0364    7.1239 H   0  0  0  0  0  0  0  0  0  0  0  0
   -0.5621   -1.6294    7.3036 H   0  0  0  0  0  0  0  0  0  0  0  0
    1.2706   -1.3152    8.4594 H   0  0  0  0  0  0  0  0  0  0  0  0
    2.8437    0.4482    7.9074 H   0  0  0  0  0  0  0  0  0  0  0  0
    4.4642   -1.9090    7.9132 H   0  0  0  0  0  0  0  0  0  0  0  0
    3.1692   -1.7620    9.0126 H   0  0  0  0  0  0  0  0  0  0  0  0
    2.6875   -4.2304    7.7122 H   0  0  0  0  0  0  0  0  0  0  0  0
    3.3296   -4.4405    4.5096 H   0  0  0  0  0  0  0  0  0  0  0  0
    5.3532   -0.7932    6.4267 H   0  0  0  0  0  0  0  0  0  0  0  0
    5.2829   -0.5739    4.7503 H   0  0  0  0  0  0  0  0  0  0  0  0
    0.5575   -3.7653    4.5463 H   0  0  0  0  0  0  0  0  0  0  0  0
    1.5404   -4.1065    3.1465 H   0  0  0  0  0  0  0  0  0  0  0  0
    0.3130   -2.8674    3.0602 H   0  0  0  0  0  0  0  0  0  0  0  0
  1  2  1  0
  1 31  1  0
  1 32  1  0
  1 33  1  0
  2  6  1  0
  2  3  1  0
  2 34  1  1
  3 10  1  0
  3  4  1  0
  3 35  1  6
  4  5  1  0
  4 36  1  0
  4 37  1  0
  5  6  1  0
  5 38  1  0
  5 39  1  0
  6  7  1  0
  6 40  1  1
  7 29  1  0
  7  8  1  0
  7 41  1  6
  8  9  1  6
  8 10  1  0
  8 11  1  0
  9 42  1  0
  9 43  1  0
  9 44  1  0
 10 45  1  0
 10 46  1  0
 11 12  1  0
 11 47  1  0
 12 28  1  0
 12 13  1  1
 12 14  1  0
 13 48  1  0
 13 49  1  0
 13 50  1  0
 14 28  1  0
 14 15  1  0
 14 51  1  1
 15 29  1  0
 15 16  1  0
 15 52  1  6
 16 17  1  0
 16 53  1  0
 16 54  1  0
 17 18  1  0
 17 55  1  0
 17 56  1  0
 18 21  1  0
 18 19  1  0
 18 57  1  1
 19 28  1  0
 19 20  1  0
 19 58  1  1
 20 21  1  0
 20 59  1  0
 20 60  1  0
 21 22  1  1
 21 23  1  0
 22 61  1  0
 23 24  1  6
 23 25  1  0
 23 29  1  0
 24 62  1  0
 25 26  2  0
 25 27  1  0
 28 27  1  6
 27 63  1  0
 27 64  1  0
 29 30  1  6
 30 65  1  0
 30 66  1  0
 30 67  1  0
M  END
>  <i_m_ct_stereo_status>  (193) 
1

>  <s_m_source_file>  (193) 
/var/tmp/pbs.5076255.sched01/tmp2obefojl/44ql_32cm2.sdf

>  <i_m_source_file_index>  (193) 
38

>  <i_lp_mmshare_version>  (193) 
48012

>  <i_f3d_flags>  (193) 
0

>  <s_epik_input>  (193) 
W0NIM11bQ0BdMShbTkhdMilbQ0gyXVtDQEBIXShbQ0gyXVtDSDJdMylbQ0BASF0oW0NIM10pW0NAQEhdM1tDQEhdMVtDQF0oW0NIM10pKFtDQEBIXTRbQ0BASF01W0NAXTIoW0NAXTU2NylbQ0gzXSlbQ0BAXShbT0hdKShDKD1PKVtDSDJdNylbQ0BdOChbT0hdKVtDQEhdKFtDSDJdW0NIMl00KVtDQEhdNltDSDJdOA==

>  <s_epik_cmdline>  (193) 
J2VwaWtfcHl0aG9uJywgJy1waHQnLCAnMi4wJywgJy1waCcsICc3LjAnLCAnLXRuJywgJzgnLCAnLW1hJywgJzIwMCcsICctaW1hZScsICc8aW5maWxlLm1hZT4nLCAnLW9tYWUnLCAnPG91dGZpbGUubWFlPic=

>  <r_lp_tautomer_probability>  (193) 
0.99995

>  <r_epik_Ionization_Penalty>  (193) 
2.10264

>  <r_epik_Ionization_Penalty_Charging>  (193) 
0

>  <r_epik_Ionization_Penalty_Neutral>  (193) 
2.10264

>  <r_epik_State_Penalty>  (193) 
2.23893

>  <r_epik_Charging_Adjusted_Penalty>  (193) 
2.23893

>  <i_epik_Tot_Q>  (193) 
0

>  <i_epik_Tot_abs_Q>  (193) 
0

>  <s_lp_Force_Field>  (193) 
OPLS3e

>  <r_lp_Energy>  (193) 
200.917

>  <b_lp_Chiralities_Consistent>  (193) 
1

>  <s_lp_Variant>  (193) 
47:0-2

>  <s_i_glide_gridfile>  (193) 
pfpi4k_grid

>  <i_i_glide_lignum>  (193) 
38

>  <i_i_glide_rotatable_bonds>  (193) 
2

>  <r_i_docking_score>  (193) 
-2.74637

>  <r_i_glide_ligand_efficiency>  (193) 
-0.0915457

>  <r_i_glide_ligand_efficiency_sa>  (193) 
-0.284454

>  <r_i_glide_ligand_efficiency_ln>  (193) 
-0.624006

>  <r_i_glide_gscore>  (193) 
-2.74637

>  <r_i_glide_lipo>  (193) 
-0.345065

>  <r_i_glide_hbond>  (193) 
-0.32

>  <r_i_glide_metal>  (193) 
-0

>  <r_i_glide_rewards>  (193) 
-0.614146

>  <r_i_glide_evdw>  (193) 
-21.4472

>  <r_i_glide_ecoul>  (193) 
-2.63199

>  <r_i_glide_erotb>  (193) 
0

>  <r_i_glide_esite>  (193) 
0

>  <r_i_glide_emodel>  (193) 
-28.6991

>  <r_i_glide_energy>  (193) 
-24.0792

>  <r_i_glide_einternal>  (193) 
1.75787

>  <r_i_glide_intrahb_reward>  (193) 
-0

>  <i_i_glide_confnum>  (193) 
1

>  <i_i_glide_posenum>  (193) 
7

>  <r_i_glide_eff_state_penalty>  (193) 
0

>  <ligand_id>  (193) 
47

>  <original_smiles>  (193) 
CC1C2CCC1C1C(C)(C2)NC2(C)C3C4CCC5C6CC5(O)C(O)(C(=O)CC632)C41C

>  <smiles>  (193) 
[H]OC12C(=O)C([H])([H])C34C5([H])C([H])([H])C1(O[H])C5([H])C([H])([H])C([H])([H])C1([H])C3([H])C4(C([H])([H])[H])N([H])C3(C([H])([H])[H])C([H])([H])C4([H])C([H])([H])C([H])([H])C([H])(C4([H])C([H])([H])[H])C3([H])C21C([H])([H])[H]

$$$$
47:1:2
     RDKit          3D

 67 74  0  0  1  0  0  0  0  0999 V2000
   -0.2585   -7.1957    2.0865 C   0  0  0  0  0  0  0  0  0  0  0  0
    1.2465   -7.0538    1.7860 C   0  0  2  0  0  0  0  0  0  0  0  0
    2.1581   -7.8174    2.7437 C   0  0  2  0  0  0  0  0  0  0  0  0
    2.0445   -7.0483    4.0463 C   0  0  0  0  0  0  0  0  0  0  0  0
    1.9981   -5.6119    3.5664 C   0  0  0  0  0  0  0  0  0  0  0  0
    1.7978   -5.6342    2.0295 C   0  0  1  0  0  0  0  0  0  0  0  0
    3.0693   -5.4154    1.1514 C   0  0  2  0  0  0  0  0  0  0  0  0
    4.1987   -6.4970    1.5387 C   0  0  2  0  0  0  0  0  0  0  0  0
    4.8890   -7.1570    0.3312 C   0  0  0  0  0  0  0  0  0  0  0  0
    3.6180   -7.8003    2.2450 C   0  0  0  0  0  0  0  0  0  0  0  0
    5.3477   -5.9965    2.3154 N   0  0  0  0  0  0  0  0  0  0  0  0
    6.2276   -4.9236    1.8081 C   0  0  1  0  0  0  0  0  0  0  0  0
    7.6773   -5.3145    2.0686 C   0  0  0  0  0  0  0  0  0  0  0  0
    5.8755   -4.1646    0.6229 C   0  0  1  0  0  0  0  0  0  0  0  0
    4.6754   -4.1251   -0.2927 C   0  0  2  0  0  0  0  0  0  0  0  0
    4.9704   -3.2267   -1.5081 C   0  0  0  0  0  0  0  0  0  0  0  0
    5.6999   -1.9492   -1.2056 C   0  0  0  0  0  0  0  0  0  0  0  0
    5.5381   -1.4122    0.2134 C   0  0  2  0  0  0  0  0  0  0  0  0
    6.1390   -1.9801    1.5316 C   0  0  1  0  0  0  0  0  0  0  0  0
    5.2443   -0.8580    2.0971 C   0  0  0  0  0  0  0  0  0  0  0  0
    4.2130   -1.3394    1.0122 C   0  0  1  0  0  0  0  0  0  0  0  0
    3.4260   -0.2603    0.6219 O   0  0  0  0  0  0  0  0  0  0  0  0
    3.2434   -2.6021    1.3545 C   0  0  2  0  0  0  0  0  0  0  0  0
    1.8877   -2.1335    1.3294 O   0  0  0  0  0  0  0  0  0  0  0  0
    3.4891   -2.8958    2.8313 C   0  0  0  0  0  0  0  0  0  0  0  0
    2.6587   -2.6737    3.7085 O   0  0  0  0  0  0  0  0  0  0  0  0
    4.8753   -3.3771    3.1899 C   0  0  0  0  0  0  0  0  0  0  0  0
    5.7984   -3.4295    1.9793 C   0  0  2  0  0  0  0  0  0  0  0  0
    3.3478   -3.9563    0.4607 C   0  0  2  0  0  0  0  0  0  0  0  0
    2.3198   -3.8498   -0.6919 C   0  0  0  0  0  0  0  0  0  0  0  0
   -0.5377   -6.8335    3.0785 H   0  0  0  0  0  0  0  0  0  0  0  0
   -0.5733   -8.2383    2.0251 H   0  0  0  0  0  0  0  0  0  0  0  0
   -0.8516   -6.6470    1.3593 H   0  0  0  0  0  0  0  0  0  0  0  0
    1.3832   -7.4125    0.7620 H   0  0  0  0  0  0  0  0  0  0  0  0
    1.8224   -8.8497    2.8754 H   0  0  0  0  0  0  0  0  0  0  0  0
    1.1268   -7.3154    4.5681 H   0  0  0  0  0  0  0  0  0  0  0  0
    2.8814   -7.2383    4.7196 H   0  0  0  0  0  0  0  0  0  0  0  0
    1.1904   -5.0701    4.0519 H   0  0  0  0  0  0  0  0  0  0  0  0
    2.9292   -5.1669    3.8700 H   0  0  0  0  0  0  0  0  0  0  0  0
    1.0489   -4.9157    1.7772 H   0  0  0  0  0  0  0  0  0  0  0  0
    2.7452   -5.9151    0.2439 H   0  0  0  0  0  0  0  0  0  0  0  0
    4.2178   -7.4091   -0.4950 H   0  0  0  0  0  0  0  0  0  0  0  0
    5.3920   -8.0969    0.5766 H   0  0  0  0  0  0  0  0  0  0  0  0
    5.6774   -6.5662   -0.0822 H   0  0  0  0  0  0  0  0  0  0  0  0
    4.2895   -8.1142    3.0509 H   0  0  0  0  0  0  0  0  0  0  0  0
    3.6226   -8.6487    1.5538 H   0  0  0  0  0  0  0  0  0  0  0  0
    5.9072   -6.7970    2.6312 H   0  0  0  0  0  0  0  0  0  0  0  0
    8.3220   -4.4902    1.7881 H   0  0  0  0  0  0  0  0  0  0  0  0
    7.9699   -6.1969    1.4870 H   0  0  0  0  0  0  0  0  0  0  0  0
    7.8234   -5.5113    3.1350 H   0  0  0  0  0  0  0  0  0  0  0  0
    6.7700   -3.9956    0.0502 H   0  0  0  0  0  0  0  0  0  0  0  0
    4.6022   -5.0501   -0.8355 H   0  0  0  0  0  0  0  0  0  0  0  0
    5.6086   -3.8000   -2.1866 H   0  0  0  0  0  0  0  0  0  0  0  0
    4.1038   -3.0124   -2.1288 H   0  0  0  0  0  0  0  0  0  0  0  0
    6.7566   -2.0989   -1.4192 H   0  0  0  0  0  0  0  0  0  0  0  0
    5.3694   -1.1931   -1.9217 H   0  0  0  0  0  0  0  0  0  0  0  0
    5.9411   -0.3958    0.0427 H   0  0  0  0  0  0  0  0  0  0  0  0
    7.1710   -1.6941    1.5924 H   0  0  0  0  0  0  0  0  0  0  0  0
    4.9380   -0.8584    3.1310 H   0  0  0  0  0  0  0  0  0  0  0  0
    5.6387    0.1532    1.9373 H   0  0  0  0  0  0  0  0  0  0  0  0
    2.7579   -0.5802    0.0139 H   0  0  0  0  0  0  0  0  0  0  0  0
    1.6515   -1.8062    0.4537 H   0  0  0  0  0  0  0  0  0  0  0  0
    5.2904   -2.7021    3.9376 H   0  0  0  0  0  0  0  0  0  0  0  0
    4.8092   -4.3119    3.7260 H   0  0  0  0  0  0  0  0  0  0  0  0
    2.2138   -2.8593   -1.1324 H   0  0  0  0  0  0  0  0  0  0  0  0
    1.3886   -4.1957   -0.3353 H   0  0  0  0  0  0  0  0  0  0  0  0
    2.4590   -4.5341   -1.5082 H   0  0  0  0  0  0  0  0  0  0  0  0
  1  2  1  0
  1 31  1  0
  1 32  1  0
  1 33  1  0
  2  6  1  0
  2  3  1  0
  2 34  1  6
  3 10  1  0
  3  4  1  0
  3 35  1  1
  4  5  1  0
  4 36  1  0
  4 37  1  0
  5  6  1  0
  5 38  1  0
  5 39  1  0
  6  7  1  0
  6 40  1  1
  7 29  1  0
  7  8  1  0
  7 41  1  6
  8  9  1  6
  8 10  1  0
  8 11  1  0
  9 42  1  0
  9 43  1  0
  9 44  1  0
 10 45  1  0
 10 46  1  0
 11 12  1  0
 11 47  1  0
 12 28  1  0
 12 13  1  6
 12 14  1  0
 13 48  1  0
 13 49  1  0
 13 50  1  0
 14 28  1  0
 14 15  1  0
 14 51  1  6
 15 29  1  0
 15 16  1  0
 15 52  1  6
 16 17  1  0
 16 53  1  0
 16 54  1  0
 17 18  1  0
 17 55  1  0
 17 56  1  0
 18 21  1  0
 18 19  1  0
 18 57  1  6
 19 28  1  0
 19 20  1  0
 19 58  1  6
 20 21  1  0
 20 59  1  0
 20 60  1  0
 21 22  1  6
 21 23  1  0
 22 61  1  0
 23 24  1  1
 23 25  1  0
 23 29  1  0
 24 62  1  0
 25 26  2  0
 25 27  1  0
 28 27  1  1
 27 63  1  0
 27 64  1  0
 29 30  1  6
 30 65  1  0
 30 66  1  0
 30 67  1  0
M  END
>  <i_m_ct_stereo_status>  (194) 
1

>  <s_m_source_file>  (194) 
/var/tmp/pbs.5076255.sched01/tmp2obefojl/44ql_32cm2.sdf

>  <i_m_source_file_index>  (194) 
38

>  <i_lp_mmshare_version>  (194) 
48012

>  <i_f3d_flags>  (194) 
0

>  <s_epik_input>  (194) 
W0NIM11bQ0BdMShbTkhdMilbQ0gyXVtDQEBIXShbQ0gyXVtDSDJdMylbQ0BASF0oW0NIM10pW0NAQEhdM1tDQEhdMVtDQF0oW0NIM10pKFtDQEBIXTRbQ0BASF01W0NAXTIoW0NAXTU2NylbQ0gzXSlbQ0BAXShbT0hdKShDKD1PKVtDSDJdNylbQ0BdOChbT0hdKVtDQEhdKFtDSDJdW0NIMl00KVtDQEhdNltDSDJdOA==

>  <s_epik_cmdline>  (194) 
J2VwaWtfcHl0aG9uJywgJy1waHQnLCAnMi4wJywgJy1waCcsICc3LjAnLCAnLXRuJywgJzgnLCAnLW1hJywgJzIwMCcsICctaW1hZScsICc8aW5maWxlLm1hZT4nLCAnLW9tYWUnLCAnPG91dGZpbGUubWFlPic=

>  <r_lp_tautomer_probability>  (194) 
0.99995

>  <r_epik_Ionization_Penalty>  (194) 
2.10264

>  <r_epik_Ionization_Penalty_Charging>  (194) 
0

>  <r_epik_Ionization_Penalty_Neutral>  (194) 
2.10264

>  <r_epik_State_Penalty>  (194) 
2.23893

>  <r_epik_Charging_Adjusted_Penalty>  (194) 
2.23893

>  <i_epik_Tot_Q>  (194) 
0

>  <i_epik_Tot_abs_Q>  (194) 
0

>  <s_lp_Force_Field>  (194) 
OPLS3e

>  <r_lp_Energy>  (194) 
200.917

>  <b_lp_Chiralities_Consistent>  (194) 
1

>  <s_lp_Variant>  (194) 
47:0-2

>  <s_i_glide_gridfile>  (194) 
pfpi4k_grid

>  <i_i_glide_lignum>  (194) 
38

>  <i_i_glide_rotatable_bonds>  (194) 
2

>  <r_i_docking_score>  (194) 
-2.73727

>  <r_i_glide_ligand_efficiency>  (194) 
-0.0912424

>  <r_i_glide_ligand_efficiency_sa>  (194) 
-0.283511

>  <r_i_glide_ligand_efficiency_ln>  (194) 
-0.621938

>  <r_i_glide_gscore>  (194) 
-2.73727

>  <r_i_glide_lipo>  (194) 
-0.763167

>  <r_i_glide_hbond>  (194) 
0

>  <r_i_glide_metal>  (194) 
-0

>  <r_i_glide_rewards>  (194) 
-0.603309

>  <r_i_glide_evdw>  (194) 
-19.4996

>  <r_i_glide_ecoul>  (194) 
-2.63879

>  <r_i_glide_erotb>  (194) 
0

>  <r_i_glide_esite>  (194) 
0

>  <r_i_glide_emodel>  (194) 
-26.6058

>  <r_i_glide_energy>  (194) 
-22.1384

>  <r_i_glide_einternal>  (194) 
1.00714

>  <r_i_glide_intrahb_reward>  (194) 
-0

>  <i_i_glide_confnum>  (194) 
2

>  <i_i_glide_posenum>  (194) 
2

>  <r_i_glide_eff_state_penalty>  (194) 
0

>  <ligand_id>  (194) 
47

>  <original_smiles>  (194) 
CC1C2CCC1C1C(C)(C2)NC2(C)C3C4CCC5C6CC5(O)C(O)(C(=O)CC632)C41C

>  <smiles>  (194) 
[H]OC12C(=O)C([H])([H])C34C5([H])C([H])([H])C1(O[H])C5([H])C([H])([H])C([H])([H])C1([H])C3([H])C4(C([H])([H])[H])N([H])C3(C([H])([H])[H])C([H])([H])C4([H])C([H])([H])C([H])([H])C([H])(C4([H])C([H])([H])[H])C3([H])C21C([H])([H])[H]

$$$$
48:0:0
     RDKit          3D

 57 62  0  0  1  0  0  0  0  0999 V2000
    7.8276   -4.3623    0.5367 C   0  0  0  0  0  0  0  0  0  0  0  0
    6.9371   -3.5082    0.0192 C   0  0  0  0  0  0  0  0  0  0  0  0
    7.0730   -2.9805   -1.4003 C   0  0  0  0  0  0  0  0  0  0  0  0
    5.7790   -3.1993   -2.2014 C   0  0  0  0  0  0  0  0  0  0  0  0
    4.5524   -2.6232   -1.4535 C   0  0  1  0  0  0  0  0  0  0  0  0
    3.3664   -2.8108   -2.2198 O   0  0  0  0  0  0  0  0  0  0  0  0
    3.1981   -1.9198   -3.3128 C   0  0  0  0  0  0  0  0  0  0  0  0
    4.3593   -3.2593   -0.0345 C   0  0  1  0  0  0  0  0  0  0  0  0
    3.9228   -4.7328   -0.1549 C   0  0  0  0  0  0  0  0  0  0  0  0
    5.6676   -3.1014    0.7726 C   0  0  2  0  0  0  0  0  0  0  0  0
    5.6210   -1.6836    1.4160 C   0  0  1  0  0  0  0  0  0  0  0  0
    6.3690   -0.7373    0.6672 O   0  0  0  0  0  0  0  0  0  0  0  0
    4.1171   -1.3090    1.5242 C   0  0  1  0  0  0  0  0  0  0  0  0
    3.7905    0.1083    1.0500 C   0  0  0  0  0  0  0  0  0  0  0  0
    3.3759   -2.4335    0.8069 C   0  0  2  0  0  0  0  0  0  0  0  0
    3.0274   -3.0539    2.0773 O   0  0  0  0  0  0  0  0  0  0  0  0
    3.3321   -1.8047    2.7558 C   0  0  2  0  0  0  0  0  0  0  0  0
    2.1085   -1.0442    3.3494 C   0  0  0  0  0  0  0  0  0  0  0  0
    2.4115   -1.7903    4.6493 C   0  0  2  0  0  0  0  0  0  0  0  0
    1.9904   -3.2575    4.6594 C   0  0  0  0  0  0  0  0  0  0  0  0
    3.0758   -3.9389    5.0000 C   0  0  0  0  0  0  0  0  0  0  0  0
    4.1332   -2.8964    5.2604 C   0  0  2  0  0  0  0  0  0  0  0  0
    5.4418   -3.4133    5.2814 O   0  0  0  0  0  0  0  0  0  0  0  0
    3.7305   -2.2067    6.4419 O   0  0  0  0  0  0  0  0  0  0  0  0
    2.5574   -1.3817    6.1135 C   0  0  0  0  0  0  0  0  0  0  0  0
    3.8916   -1.7960    4.2223 C   0  0  1  0  0  0  0  0  0  0  0  0
    4.8334   -0.5906    4.5285 C   0  0  0  0  0  0  0  0  0  0  0  0
    7.7026   -4.7747    1.5303 H   0  0  0  0  0  0  0  0  0  0  0  0
    8.6893   -4.6831   -0.0338 H   0  0  0  0  0  0  0  0  0  0  0  0
    7.3098   -1.9188   -1.3525 H   0  0  0  0  0  0  0  0  0  0  0  0
    7.9195   -3.4548   -1.9034 H   0  0  0  0  0  0  0  0  0  0  0  0
    5.8969   -2.7221   -3.1724 H   0  0  0  0  0  0  0  0  0  0  0  0
    5.6297   -4.2597   -2.4046 H   0  0  0  0  0  0  0  0  0  0  0  0
    4.7106   -1.5531   -1.3260 H   0  0  0  0  0  0  0  0  0  0  0  0
    2.2241   -2.0966   -3.7699 H   0  0  0  0  0  0  0  0  0  0  0  0
    3.9500   -2.0689   -4.0877 H   0  0  0  0  0  0  0  0  0  0  0  0
    3.2265   -0.8769   -2.9947 H   0  0  0  0  0  0  0  0  0  0  0  0
    3.7726   -5.1970    0.8202 H   0  0  0  0  0  0  0  0  0  0  0  0
    4.6615   -5.3348   -0.6829 H   0  0  0  0  0  0  0  0  0  0  0  0
    2.9854   -4.8158   -0.7049 H   0  0  0  0  0  0  0  0  0  0  0  0
    5.5917   -3.7940    1.6136 H   0  0  0  0  0  0  0  0  0  0  0  0
    6.0867   -1.7664    2.3929 H   0  0  0  0  0  0  0  0  0  0  0  0
    6.7878   -0.1288    1.2629 H   0  0  0  0  0  0  0  0  0  0  0  0
    2.7161    0.2800    1.0221 H   0  0  0  0  0  0  0  0  0  0  0  0
    4.1640    0.2783    0.0456 H   0  0  0  0  0  0  0  0  0  0  0  0
    4.2146    0.8629    1.7051 H   0  0  0  0  0  0  0  0  0  0  0  0
    2.4817   -2.1026    0.2817 H   0  0  0  0  0  0  0  0  0  0  0  0
    2.2521    0.0323    3.4384 H   0  0  0  0  0  0  0  0  0  0  0  0
    1.1481   -1.2835    2.8989 H   0  0  0  0  0  0  0  0  0  0  0  0
    1.0141   -3.6522    4.4191 H   0  0  0  0  0  0  0  0  0  0  0  0
    3.1768   -5.0052    5.1221 H   0  0  0  0  0  0  0  0  0  0  0  0
    5.4615   -4.0965    5.9346 H   0  0  0  0  0  0  0  0  0  0  0  0
    2.7431   -0.3160    6.2582 H   0  0  0  0  0  0  0  0  0  0  0  0
    1.6965   -1.6741    6.7160 H   0  0  0  0  0  0  0  0  0  0  0  0
    4.8846   -0.3188    5.5805 H   0  0  0  0  0  0  0  0  0  0  0  0
    4.5188    0.3060    3.9946 H   0  0  0  0  0  0  0  0  0  0  0  0
    5.8558   -0.7938    4.2407 H   0  0  0  0  0  0  0  0  0  0  0  0
  1  2  2  0
  1 28  1  0
  1 29  1  0
  2 10  1  0
  2  3  1  0
  3  4  1  0
  3 30  1  0
  3 31  1  0
  4  5  1  0
  4 32  1  0
  4 33  1  0
  5  6  1  0
  5  8  1  0
  5 34  1  1
  6  7  1  0
  7 35  1  0
  7 36  1  0
  7 37  1  0
  8 15  1  0
  8  9  1  6
  8 10  1  0
  9 38  1  0
  9 39  1  0
  9 40  1  0
 10 11  1  0
 10 41  1  1
 11 12  1  0
 11 13  1  0
 11 42  1  1
 12 43  1  0
 13 17  1  0
 13 14  1  6
 13 15  1  0
 14 44  1  0
 14 45  1  0
 14 46  1  0
 15 16  1  0
 15 47  1  6
 17 16  1  6
 17 26  1  0
 17 18  1  0
 19 18  1  6
 18 48  1  0
 18 49  1  0
 19 25  1  0
 19 26  1  0
 19 20  1  0
 20 21  2  0
 20 50  1  0
 21 22  1  0
 21 51  1  0
 22 23  1  1
 22 24  1  0
 22 26  1  0
 23 52  1  0
 24 25  1  0
 25 53  1  0
 25 54  1  0
 26 27  1  6
 27 55  1  0
 27 56  1  0
 27 57  1  0
M  END
>  <i_m_ct_stereo_status>  (195) 
1

>  <s_m_source_file>  (195) 
/var/tmp/pbs.5076255.sched01/tmp2obefojl/44ql_32cm2.sdf

>  <i_m_source_file_index>  (195) 
39

>  <i_lp_mmshare_version>  (195) 
48012

>  <i_f3d_flags>  (195) 
0

>  <s_epik_input>  (195) 
W0NIM11PW0NAQEhdMVtDSDJdW0NIMl1DKD1bQ0gyXSlbQ0BASF0oW0NASF0yW09IXSlbQ0BAXTEoW0NIM10pW0NAQEhdKE8zKVtDQEBdMihbQ0gzXSlbQ0BdMzRbQ0BAXTUoW0NIM10pW0NAQF02KFtDSDJdNClbQ0hdPVtDSF1bQ0BdNShbT0hdKU9bQ0gyXTY=

>  <s_epik_cmdline>  (195) 
J2VwaWtfcHl0aG9uJywgJy1waHQnLCAnMi4wJywgJy1waCcsICc3LjAnLCAnLXRuJywgJzgnLCAnLW1hJywgJzIwMCcsICctaW1hZScsICc8aW5maWxlLm1hZT4nLCAnLW9tYWUnLCAnPG91dGZpbGUubWFlPic=

>  <r_lp_tautomer_probability>  (195) 
1

>  <r_epik_Ionization_Penalty>  (195) 
2.19015e-07

>  <r_epik_Ionization_Penalty_Charging>  (195) 
0

>  <r_epik_Ionization_Penalty_Neutral>  (195) 
2.19015e-07

>  <r_epik_State_Penalty>  (195) 
-0

>  <r_epik_Charging_Adjusted_Penalty>  (195) 
0

>  <i_epik_Tot_Q>  (195) 
0

>  <i_epik_Tot_abs_Q>  (195) 
0

>  <s_lp_Force_Field>  (195) 
OPLS3e

>  <r_lp_Energy>  (195) 
67.1555

>  <b_lp_Chiralities_Consistent>  (195) 
1

>  <s_lp_Variant>  (195) 
48:0-1

>  <s_i_glide_gridfile>  (195) 
pfpi4k_grid

>  <i_i_glide_lignum>  (195) 
39

>  <i_i_glide_rotatable_bonds>  (195) 
3

>  <r_i_docking_score>  (195) 
-3.3694

>  <r_i_glide_ligand_efficiency>  (195) 
-0.124793

>  <r_i_glide_ligand_efficiency_sa>  (195) 
-0.374378

>  <r_i_glide_ligand_efficiency_ln>  (195) 
-0.78434

>  <r_i_glide_gscore>  (195) 
-3.3694

>  <r_i_glide_lipo>  (195) 
-0.908212

>  <r_i_glide_hbond>  (195) 
-0.32

>  <r_i_glide_metal>  (195) 
-0

>  <r_i_glide_rewards>  (195) 
-0.856517

>  <r_i_glide_evdw>  (195) 
-21.6871

>  <r_i_glide_ecoul>  (195) 
-1.33541

>  <r_i_glide_erotb>  (195) 
0

>  <r_i_glide_esite>  (195) 
0

>  <r_i_glide_emodel>  (195) 
-26.8534

>  <r_i_glide_energy>  (195) 
-23.0226

>  <r_i_glide_einternal>  (195) 
1.0768

>  <r_i_glide_intrahb_reward>  (195) 
-0

>  <i_i_glide_confnum>  (195) 
1

>  <i_i_glide_posenum>  (195) 
37

>  <r_i_glide_eff_state_penalty>  (195) 
0

>  <ligand_id>  (195) 
48

>  <original_smiles>  (195) 
C=C1CCC(OC)C2(C)C1C(O)C1(C)C2OC12CC13C=CC(O)(OC1)C32C

>  <smiles>  (195) 
[H]OC12OC([H])([H])C3(C([H])=C1[H])C([H])([H])C1(OC4([H])C5(C([H])([H])[H])C([H])(OC([H])([H])[H])C([H])([H])C([H])([H])C(=C([H])[H])C5([H])C([H])(O[H])C41C([H])([H])[H])C23C([H])([H])[H]

$$$$
48:0:1
     RDKit          3D

 57 62  0  0  1  0  0  0  0  0999 V2000
    7.7592   -4.3959    0.4867 C   0  0  0  0  0  0  0  0  0  0  0  0
    6.8327   -3.5617   -0.0103 C   0  0  0  0  0  0  0  0  0  0  0  0
    6.9335   -3.0151   -1.4235 C   0  0  0  0  0  0  0  0  0  0  0  0
    5.6346   -3.2628   -2.2085 C   0  0  0  0  0  0  0  0  0  0  0  0
    4.4007   -2.7347   -1.4354 C   0  0  1  0  0  0  0  0  0  0  0  0
    3.2100   -2.9517   -2.1868 O   0  0  0  0  0  0  0  0  0  0  0  0
    3.0037   -2.0591   -3.2719 C   0  0  0  0  0  0  0  0  0  0  0  0
    4.2489   -3.3911   -0.0225 C   0  0  1  0  0  0  0  0  0  0  0  0
    3.8592   -4.8771   -0.1501 C   0  0  0  0  0  0  0  0  0  0  0  0
    5.5642   -3.2024    0.7654 C   0  0  2  0  0  0  0  0  0  0  0  0
    5.4867   -1.7940    1.4252 C   0  0  1  0  0  0  0  0  0  0  0  0
    6.2118   -0.8201    0.6948 O   0  0  0  0  0  0  0  0  0  0  0  0
    3.9724   -1.4647    1.5581 C   0  0  1  0  0  0  0  0  0  0  0  0
    3.5907   -0.0509    1.1069 C   0  0  0  0  0  0  0  0  0  0  0  0
    3.2525   -2.6030    0.8407 C   0  0  2  0  0  0  0  0  0  0  0  0
    2.9431   -3.2450    2.1100 O   0  0  0  0  0  0  0  0  0  0  0  0
    3.2224   -1.9954    2.7980 C   0  0  2  0  0  0  0  0  0  0  0  0
    1.9852   -1.2822    3.4223 C   0  0  0  0  0  0  0  0  0  0  0  0
    2.3297   -2.0348    4.7086 C   0  0  2  0  0  0  0  0  0  0  0  0
    1.9595   -3.5154    4.7083 C   0  0  0  0  0  0  0  0  0  0  0  0
    3.0703   -4.1641    5.0232 C   0  0  0  0  0  0  0  0  0  0  0  0
    4.0956   -3.0859    5.2796 C   0  0  2  0  0  0  0  0  0  0  0  0
    5.4230   -3.5562    5.2691 O   0  0  0  0  0  0  0  0  0  0  0  0
    3.6868   -2.4262    6.4747 O   0  0  0  0  0  0  0  0  0  0  0  0
    2.4818   -1.6384    6.1751 C   0  0  0  0  0  0  0  0  0  0  0  0
    3.8023   -1.9861    4.2577 C   0  0  1  0  0  0  0  0  0  0  0  0
    4.7184   -0.7600    4.5640 C   0  0  0  0  0  0  0  0  0  0  0  0
    7.6589   -4.8217    1.4755 H   0  0  0  0  0  0  0  0  0  0  0  0
    8.6204   -4.6824   -0.0995 H   0  0  0  0  0  0  0  0  0  0  0  0
    7.1346   -1.9475   -1.3718 H   0  0  0  0  0  0  0  0  0  0  0  0
    7.7865   -3.4541   -1.9424 H   0  0  0  0  0  0  0  0  0  0  0  0
    5.7244   -2.7761   -3.1777 H   0  0  0  0  0  0  0  0  0  0  0  0
    5.5073   -4.3250   -2.4225 H   0  0  0  0  0  0  0  0  0  0  0  0
    4.5299   -1.6623   -1.3003 H   0  0  0  0  0  0  0  0  0  0  0  0
    2.0270   -2.2572   -3.7147 H   0  0  0  0  0  0  0  0  0  0  0  0
    3.7459   -2.1875   -4.0607 H   0  0  0  0  0  0  0  0  0  0  0  0
    3.0123   -1.0172   -2.9499 H   0  0  0  0  0  0  0  0  0  0  0  0
    3.7377   -5.3563    0.8224 H   0  0  0  0  0  0  0  0  0  0  0  0
    4.6082   -5.4485   -0.6962 H   0  0  0  0  0  0  0  0  0  0  0  0
    2.9144   -4.9848   -0.6834 H   0  0  0  0  0  0  0  0  0  0  0  0
    5.5204   -3.9070    1.5998 H   0  0  0  0  0  0  0  0  0  0  0  0
    5.9646   -1.8771    2.3962 H   0  0  0  0  0  0  0  0  0  0  0  0
    6.5346   -0.1643    1.2977 H   0  0  0  0  0  0  0  0  0  0  0  0
    2.5101    0.0887    1.1129 H   0  0  0  0  0  0  0  0  0  0  0  0
    3.9099    0.1444    0.0864 H   0  0  0  0  0  0  0  0  0  0  0  0
    4.0239    0.7120    1.7447 H   0  0  0  0  0  0  0  0  0  0  0  0
    2.3384   -2.2895    0.3353 H   0  0  0  0  0  0  0  0  0  0  0  0
    2.0986   -0.2044    3.5251 H   0  0  0  0  0  0  0  0  0  0  0  0
    1.0255   -1.5472    2.9841 H   0  0  0  0  0  0  0  0  0  0  0  0
    0.9885   -3.9401    4.4799 H   0  0  0  0  0  0  0  0  0  0  0  0
    3.2137   -5.2245    5.1388 H   0  0  0  0  0  0  0  0  0  0  0  0
    5.9945   -2.8082    5.3536 H   0  0  0  0  0  0  0  0  0  0  0  0
    2.6395   -0.5707    6.3306 H   0  0  0  0  0  0  0  0  0  0  0  0
    1.6419   -1.9666    6.7894 H   0  0  0  0  0  0  0  0  0  0  0  0
    4.7730   -0.4963    5.6191 H   0  0  0  0  0  0  0  0  0  0  0  0
    4.3657    0.1317    4.0464 H   0  0  0  0  0  0  0  0  0  0  0  0
    5.7479   -0.9247    4.2589 H   0  0  0  0  0  0  0  0  0  0  0  0
  1  2  2  0
  1 28  1  0
  1 29  1  0
  2 10  1  0
  2  3  1  0
  3  4  1  0
  3 30  1  0
  3 31  1  0
  4  5  1  0
  4 32  1  0
  4 33  1  0
  5  6  1  0
  5  8  1  0
  5 34  1  1
  6  7  1  0
  7 35  1  0
  7 36  1  0
  7 37  1  0
  8 15  1  0
  8  9  1  6
  8 10  1  0
  9 38  1  0
  9 39  1  0
  9 40  1  0
 10 11  1  0
 10 41  1  1
 11 12  1  0
 11 13  1  0
 11 42  1  1
 12 43  1  0
 13 17  1  0
 13 14  1  6
 13 15  1  0
 14 44  1  0
 14 45  1  0
 14 46  1  0
 15 16  1  0
 15 47  1  6
 17 16  1  6
 17 26  1  0
 17 18  1  0
 19 18  1  6
 18 48  1  0
 18 49  1  0
 19 25  1  0
 19 26  1  0
 19 20  1  0
 20 21  2  0
 20 50  1  0
 21 22  1  0
 21 51  1  0
 22 23  1  1
 22 24  1  0
 22 26  1  0
 23 52  1  0
 24 25  1  0
 25 53  1  0
 25 54  1  0
 26 27  1  1
 27 55  1  0
 27 56  1  0
 27 57  1  0
M  END
>  <i_m_ct_stereo_status>  (196) 
1

>  <s_m_source_file>  (196) 
/var/tmp/pbs.5076255.sched01/tmp2obefojl/44ql_32cm2.sdf

>  <i_m_source_file_index>  (196) 
39

>  <i_lp_mmshare_version>  (196) 
48012

>  <i_f3d_flags>  (196) 
0

>  <s_epik_input>  (196) 
W0NIM11PW0NAQEhdMVtDSDJdW0NIMl1DKD1bQ0gyXSlbQ0BASF0oW0NASF0yW09IXSlbQ0BAXTEoW0NIM10pW0NAQEhdKE8zKVtDQEBdMihbQ0gzXSlbQ0BdMzRbQ0BAXTUoW0NIM10pW0NAQF02KFtDSDJdNClbQ0hdPVtDSF1bQ0BdNShbT0hdKU9bQ0gyXTY=

>  <s_epik_cmdline>  (196) 
J2VwaWtfcHl0aG9uJywgJy1waHQnLCAnMi4wJywgJy1waCcsICc3LjAnLCAnLXRuJywgJzgnLCAnLW1hJywgJzIwMCcsICctaW1hZScsICc8aW5maWxlLm1hZT4nLCAnLW9tYWUnLCAnPG91dGZpbGUubWFlPic=

>  <r_lp_tautomer_probability>  (196) 
1

>  <r_epik_Ionization_Penalty>  (196) 
2.19015e-07

>  <r_epik_Ionization_Penalty_Charging>  (196) 
0

>  <r_epik_Ionization_Penalty_Neutral>  (196) 
2.19015e-07

>  <r_epik_State_Penalty>  (196) 
-0

>  <r_epik_Charging_Adjusted_Penalty>  (196) 
0

>  <i_epik_Tot_Q>  (196) 
0

>  <i_epik_Tot_abs_Q>  (196) 
0

>  <s_lp_Force_Field>  (196) 
OPLS3e

>  <r_lp_Energy>  (196) 
67.1555

>  <b_lp_Chiralities_Consistent>  (196) 
1

>  <s_lp_Variant>  (196) 
48:0-1

>  <s_i_glide_gridfile>  (196) 
pfpi4k_grid

>  <i_i_glide_lignum>  (196) 
39

>  <i_i_glide_rotatable_bonds>  (196) 
3

>  <r_i_docking_score>  (196) 
-3.09107

>  <r_i_glide_ligand_efficiency>  (196) 
-0.114484

>  <r_i_glide_ligand_efficiency_sa>  (196) 
-0.343453

>  <r_i_glide_ligand_efficiency_ln>  (196) 
-0.719551

>  <r_i_glide_gscore>  (196) 
-3.09107

>  <r_i_glide_lipo>  (196) 
-0.837508

>  <r_i_glide_hbond>  (196) 
-0.288283

>  <r_i_glide_metal>  (196) 
-0

>  <r_i_glide_rewards>  (196) 
-0.855882

>  <r_i_glide_evdw>  (196) 
-22.4678

>  <r_i_glide_ecoul>  (196) 
0.0932555

>  <r_i_glide_erotb>  (196) 
0

>  <r_i_glide_esite>  (196) 
0

>  <r_i_glide_emodel>  (196) 
-25.896

>  <r_i_glide_energy>  (196) 
-22.3745

>  <r_i_glide_einternal>  (196) 
1.04953

>  <r_i_glide_intrahb_reward>  (196) 
-0

>  <i_i_glide_confnum>  (196) 
2

>  <i_i_glide_posenum>  (196) 
22

>  <r_i_glide_eff_state_penalty>  (196) 
0

>  <ligand_id>  (196) 
48

>  <original_smiles>  (196) 
C=C1CCC(OC)C2(C)C1C(O)C1(C)C2OC12CC13C=CC(O)(OC1)C32C

>  <smiles>  (196) 
[H]OC12OC([H])([H])C3(C([H])=C1[H])C([H])([H])C1(OC4([H])C5(C([H])([H])[H])C([H])(OC([H])([H])[H])C([H])([H])C([H])([H])C(=C([H])[H])C5([H])C([H])(O[H])C41C([H])([H])[H])C23C([H])([H])[H]

$$$$
48:0:2
     RDKit          3D

 57 62  0  0  1  0  0  0  0  0999 V2000
    7.6412   -4.2944    0.7224 C   0  0  0  0  0  0  0  0  0  0  0  0
    6.7684   -3.3014    0.4838 C   0  0  0  0  0  0  0  0  0  0  0  0
    7.0788   -2.2218   -0.5328 C   0  0  0  0  0  0  0  0  0  0  0  0
    5.9359   -2.1303   -1.5608 C   0  0  0  0  0  0  0  0  0  0  0  0
    4.5479   -1.9790   -0.9013 C   0  0  1  0  0  0  0  0  0  0  0  0
    3.5130   -1.7303   -1.8712 O   0  0  0  0  0  0  0  0  0  0  0  0
    3.5938   -2.3386   -3.1578 C   0  0  0  0  0  0  0  0  0  0  0  0
    4.1998   -3.1101    0.1284 C   0  0  1  0  0  0  0  0  0  0  0  0
    3.8809   -4.4215   -0.5922 C   0  0  0  0  0  0  0  0  0  0  0  0
    5.3761   -3.2592    1.1281 C   0  0  2  0  0  0  0  0  0  0  0  0
    5.1240   -2.2396    2.2638 C   0  0  1  0  0  0  0  0  0  0  0  0
    5.8820   -1.0511    2.1268 O   0  0  0  0  0  0  0  0  0  0  0  0
    3.6006   -1.9530    2.2722 C   0  0  1  0  0  0  0  0  0  0  0  0
    3.2264   -0.4657    2.3728 C   0  0  0  0  0  0  0  0  0  0  0  0
    3.0524   -2.6928    1.0561 C   0  0  2  0  0  0  0  0  0  0  0  0
    2.5770   -3.7957    1.9008 O   0  0  0  0  0  0  0  0  0  0  0  0
    2.6993   -2.9245    3.0698 C   0  0  2  0  0  0  0  0  0  0  0  0
    1.3571   -2.5044    3.7194 C   0  0  0  0  0  0  0  0  0  0  0  0
    1.5332   -3.7227    4.6251 C   0  0  2  0  0  0  0  0  0  0  0  0
    1.2261   -5.0658    3.9776 C   0  0  0  0  0  0  0  0  0  0  0  0
    2.3124   -5.8190    4.1731 C   0  0  0  0  0  0  0  0  0  0  0  0
    3.2406   -4.9636    4.9900 C   0  0  2  0  0  0  0  0  0  0  0  0
    4.5715   -5.4271    5.0034 O   0  0  0  0  0  0  0  0  0  0  0  0
    2.6276   -4.8345    6.2757 O   0  0  0  0  0  0  0  0  0  0  0  0
    1.4494   -3.9628    6.1384 C   0  0  0  0  0  0  0  0  0  0  0  0
    3.0605   -3.5337    4.4700 C   0  0  1  0  0  0  0  0  0  0  0  0
    3.8576   -2.5572    5.3843 C   0  0  0  0  0  0  0  0  0  0  0  0
    7.4048   -5.0902    1.4115 H   0  0  0  0  0  0  0  0  0  0  0  0
    8.5921   -4.3333    0.2131 H   0  0  0  0  0  0  0  0  0  0  0  0
    7.2282   -1.2752   -0.0220 H   0  0  0  0  0  0  0  0  0  0  0  0
    8.0082   -2.4563   -1.0596 H   0  0  0  0  0  0  0  0  0  0  0  0
    6.1108   -1.2764   -2.2122 H   0  0  0  0  0  0  0  0  0  0  0  0
    5.9944   -3.0230   -2.1759 H   0  0  0  0  0  0  0  0  0  0  0  0
    4.5883   -1.0528   -0.3385 H   0  0  0  0  0  0  0  0  0  0  0  0
    2.6649   -2.1464   -3.7072 H   0  0  0  0  0  0  0  0  0  0  0  0
    3.7280   -3.4193   -3.1164 H   0  0  0  0  0  0  0  0  0  0  0  0
    4.4034   -1.9238   -3.7541 H   0  0  0  0  0  0  0  0  0  0  0  0
    3.6936   -5.2537    0.0875 H   0  0  0  0  0  0  0  0  0  0  0  0
    4.6910   -4.7186   -1.2546 H   0  0  0  0  0  0  0  0  0  0  0  0
    2.9769   -4.2625   -1.1729 H   0  0  0  0  0  0  0  0  0  0  0  0
    5.2469   -4.2407    1.5833 H   0  0  0  0  0  0  0  0  0  0  0  0
    5.4538   -2.7080    3.1844 H   0  0  0  0  0  0  0  0  0  0  0  0
    5.6386   -0.6313    1.3145 H   0  0  0  0  0  0  0  0  0  0  0  0
    2.1560   -0.3289    2.2877 H   0  0  0  0  0  0  0  0  0  0  0  0
    3.6658    0.1269    1.5736 H   0  0  0  0  0  0  0  0  0  0  0  0
    3.5388   -0.0420    3.3259 H   0  0  0  0  0  0  0  0  0  0  0  0
    2.2192   -2.1922    0.5805 H   0  0  0  0  0  0  0  0  0  0  0  0
    1.4049   -1.5753    4.2677 H   0  0  0  0  0  0  0  0  0  0  0  0
    0.4808   -2.5558    3.0752 H   0  0  0  0  0  0  0  0  0  0  0  0
    0.3315   -5.3490    3.4600 H   0  0  0  0  0  0  0  0  0  0  0  0
    2.4648   -6.8351    3.8575 H   0  0  0  0  0  0  0  0  0  0  0  0
    4.5566   -6.3175    5.3222 H   0  0  0  0  0  0  0  0  0  0  0  0
    1.5301   -3.0601    6.7311 H   0  0  0  0  0  0  0  0  0  0  0  0
    0.5407   -4.4912    6.4254 H   0  0  0  0  0  0  0  0  0  0  0  0
    3.7413   -2.7466    6.4512 H   0  0  0  0  0  0  0  0  0  0  0  0
    3.5565   -1.5320    5.2238 H   0  0  0  0  0  0  0  0  0  0  0  0
    4.9276   -2.6166    5.2080 H   0  0  0  0  0  0  0  0  0  0  0  0
  1  2  2  0
  1 28  1  0
  1 29  1  0
  2 10  1  0
  2  3  1  0
  3  4  1  0
  3 30  1  0
  3 31  1  0
  4  5  1  0
  4 32  1  0
  4 33  1  0
  5  6  1  0
  5  8  1  0
  5 34  1  1
  6  7  1  0
  7 35  1  0
  7 36  1  0
  7 37  1  0
  8 15  1  0
  8  9  1  6
  8 10  1  0
  9 38  1  0
  9 39  1  0
  9 40  1  0
 10 11  1  0
 10 41  1  1
 11 12  1  0
 11 13  1  0
 11 42  1  1
 12 43  1  0
 13 17  1  0
 13 14  1  6
 13 15  1  0
 14 44  1  0
 14 45  1  0
 14 46  1  0
 15 16  1  0
 15 47  1  6
 17 16  1  6
 17 26  1  0
 17 18  1  0
 19 18  1  6
 18 48  1  0
 18 49  1  0
 19 25  1  0
 19 26  1  0
 19 20  1  0
 20 21  2  0
 20 50  1  0
 21 22  1  0
 21 51  1  0
 22 23  1  1
 22 24  1  0
 22 26  1  0
 23 52  1  0
 24 25  1  0
 25 53  1  0
 25 54  1  0
 26 27  1  1
 27 55  1  0
 27 56  1  0
 27 57  1  0
M  END
>  <i_m_ct_stereo_status>  (197) 
1

>  <s_m_source_file>  (197) 
/var/tmp/pbs.5076255.sched01/tmp2obefojl/44ql_32cm2.sdf

>  <i_m_source_file_index>  (197) 
39

>  <i_lp_mmshare_version>  (197) 
48012

>  <i_f3d_flags>  (197) 
0

>  <s_epik_input>  (197) 
W0NIM11PW0NAQEhdMVtDSDJdW0NIMl1DKD1bQ0gyXSlbQ0BASF0oW0NASF0yW09IXSlbQ0BAXTEoW0NIM10pW0NAQEhdKE8zKVtDQEBdMihbQ0gzXSlbQ0BdMzRbQ0BAXTUoW0NIM10pW0NAQF02KFtDSDJdNClbQ0hdPVtDSF1bQ0BdNShbT0hdKU9bQ0gyXTY=

>  <s_epik_cmdline>  (197) 
J2VwaWtfcHl0aG9uJywgJy1waHQnLCAnMi4wJywgJy1waCcsICc3LjAnLCAnLXRuJywgJzgnLCAnLW1hJywgJzIwMCcsICctaW1hZScsICc8aW5maWxlLm1hZT4nLCAnLW9tYWUnLCAnPG91dGZpbGUubWFlPic=

>  <r_lp_tautomer_probability>  (197) 
1

>  <r_epik_Ionization_Penalty>  (197) 
2.19015e-07

>  <r_epik_Ionization_Penalty_Charging>  (197) 
0

>  <r_epik_Ionization_Penalty_Neutral>  (197) 
2.19015e-07

>  <r_epik_State_Penalty>  (197) 
-0

>  <r_epik_Charging_Adjusted_Penalty>  (197) 
0

>  <i_epik_Tot_Q>  (197) 
0

>  <i_epik_Tot_abs_Q>  (197) 
0

>  <s_lp_Force_Field>  (197) 
OPLS3e

>  <r_lp_Energy>  (197) 
67.1555

>  <b_lp_Chiralities_Consistent>  (197) 
1

>  <s_lp_Variant>  (197) 
48:0-1

>  <s_i_glide_gridfile>  (197) 
pfpi4k_grid

>  <i_i_glide_lignum>  (197) 
39

>  <i_i_glide_rotatable_bonds>  (197) 
3

>  <r_i_docking_score>  (197) 
-2.35164

>  <r_i_glide_ligand_efficiency>  (197) 
-0.0870979

>  <r_i_glide_ligand_efficiency_sa>  (197) 
-0.261294

>  <r_i_glide_ligand_efficiency_ln>  (197) 
-0.547424

>  <r_i_glide_gscore>  (197) 
-2.35164

>  <r_i_glide_lipo>  (197) 
-0.550824

>  <r_i_glide_hbond>  (197) 
0

>  <r_i_glide_metal>  (197) 
-0

>  <r_i_glide_rewards>  (197) 
-0.855882

>  <r_i_glide_evdw>  (197) 
-20.4436

>  <r_i_glide_ecoul>  (197) 
0.514944

>  <r_i_glide_erotb>  (197) 
0

>  <r_i_glide_esite>  (197) 
0

>  <r_i_glide_emodel>  (197) 
-20.3681

>  <r_i_glide_energy>  (197) 
-19.9287

>  <r_i_glide_einternal>  (197) 
5.10679

>  <r_i_glide_intrahb_reward>  (197) 
-0

>  <i_i_glide_confnum>  (197) 
1

>  <i_i_glide_posenum>  (197) 
13

>  <r_i_glide_eff_state_penalty>  (197) 
0

>  <ligand_id>  (197) 
48

>  <original_smiles>  (197) 
C=C1CCC(OC)C2(C)C1C(O)C1(C)C2OC12CC13C=CC(O)(OC1)C32C

>  <smiles>  (197) 
[H]OC12OC([H])([H])C3(C([H])=C1[H])C([H])([H])C1(OC4([H])C5(C([H])([H])[H])C([H])(OC([H])([H])[H])C([H])([H])C([H])([H])C(=C([H])[H])C5([H])C([H])(O[H])C41C([H])([H])[H])C23C([H])([H])[H]

$$$$
50:0:0
     RDKit          3D

 48 52  0  0  1  0  0  0  0  0999 V2000
    7.0687   -2.9096   -1.5677 C   0  0  0  0  0  0  0  0  0  0  0  0
    5.7559   -3.1728   -1.1003 O   0  0  0  0  0  0  0  0  0  0  0  0
    5.0423   -2.1150   -0.4397 C   0  0  1  0  0  0  0  0  0  0  0  0
    5.1585   -0.8421   -1.3188 C   0  0  0  0  0  0  0  0  0  0  0  0
    4.6048   -1.2247   -2.6766 C   0  0  1  0  0  0  0  0  0  0  0  0
    3.0980   -1.2321   -2.5152 C   0  0  2  0  0  0  0  0  0  0  0  0
    2.8741   -2.5886   -1.8470 C   0  0  0  0  0  0  0  0  0  0  0  0
    3.5062   -2.4731   -0.4228 C   0  0  1  0  0  0  0  0  0  0  0  0
    3.1514   -3.5206    0.6553 C   0  0  1  0  0  0  0  0  0  0  0  0
    3.4297   -4.9637    0.2096 C   0  0  0  0  0  0  0  0  0  0  0  0
    3.7936   -3.0823    1.9903 C   0  0  0  0  0  0  0  0  0  0  0  0
    4.3826   -1.8815    2.0624 C   0  0  0  0  0  0  0  0  0  0  0  0
    4.7868   -1.3759    3.4604 C   0  0  0  0  0  0  0  0  0  0  0  0
    5.0309   -2.5482    4.4287 C   0  0  0  0  0  0  0  0  0  0  0  0
    5.1204   -2.3431    5.6455 O   0  0  0  0  0  0  0  0  0  0  0  0
    5.1711   -3.8005    3.8539 O   0  0  0  0  0  0  0  0  0  0  0  0
    4.9258   -3.9905    2.4419 C   0  0  2  0  0  0  0  0  0  0  0  0
    6.0297   -3.3363    1.6107 C   0  0  0  0  0  0  0  0  0  0  0  0
    7.1182   -3.8514    1.3589 O   0  0  0  0  0  0  0  0  0  0  0  0
    5.5410   -1.9915    1.0614 C   0  0  1  0  0  0  0  0  0  0  0  0
    6.5160   -0.9846    1.1746 O   0  0  0  0  0  0  0  0  0  0  0  0
    3.7581   -0.5978   -3.7126 C   0  0  0  0  0  0  0  0  0  0  0  0
    3.8343    0.8874   -3.9476 C   0  0  0  0  0  0  0  0  0  0  0  0
    3.4614   -1.2154   -5.0160 C   0  0  0  0  0  0  0  0  0  0  0  0
    7.6054   -3.8513   -1.7893 H   0  0  0  0  0  0  0  0  0  0  0  0
    7.6477   -2.3554   -0.8612 H   0  0  0  0  0  0  0  0  0  0  0  0
    7.0627   -2.3948   -2.5010 H   0  0  0  0  0  0  0  0  0  0  0  0
    4.6181   -0.0052   -0.8786 H   0  0  0  0  0  0  0  0  0  0  0  0
    6.1872   -0.5506   -1.4024 H   0  0  0  0  0  0  0  0  0  0  0  0
    5.0854   -2.1124   -3.1054 H   0  0  0  0  0  0  0  0  0  0  0  0
    2.5874   -0.4752   -1.9474 H   0  0  0  0  0  0  0  0  0  0  0  0
    1.8074   -2.7712   -1.7743 H   0  0  0  0  0  0  0  0  0  0  0  0
    3.3129   -3.4012   -2.4361 H   0  0  0  0  0  0  0  0  0  0  0  0
    3.0132   -1.5770   -0.0313 H   0  0  0  0  0  0  0  0  0  0  0  0
    2.0932   -3.4212    0.8395 H   0  0  0  0  0  0  0  0  0  0  0  0
    3.1044   -5.6864    0.9600 H   0  0  0  0  0  0  0  0  0  0  0  0
    4.4807   -5.1658   -0.0257 H   0  0  0  0  0  0  0  0  0  0  0  0
    2.8617   -5.1465   -0.6991 H   0  0  0  0  0  0  0  0  0  0  0  0
    5.6449   -0.7097    3.4616 H   0  0  0  0  0  0  0  0  0  0  0  0
    3.9494   -0.8302    3.8692 H   0  0  0  0  0  0  0  0  0  0  0  0
    4.8036   -5.0465    2.2062 H   0  0  0  0  0  0  0  0  0  0  0  0
    6.7338   -0.8005    2.0741 H   0  0  0  0  0  0  0  0  0  0  0  0
    2.8880    1.2278   -4.3482 H   0  0  0  0  0  0  0  0  0  0  0  0
    4.6201    1.1335   -4.6573 H   0  0  0  0  0  0  0  0  0  0  0  0
    4.0214    1.3475   -2.9994 H   0  0  0  0  0  0  0  0  0  0  0  0
    2.5864   -0.6579   -5.3680 H   0  0  0  0  0  0  0  0  0  0  0  0
    3.3406   -2.2855   -4.9001 H   0  0  0  0  0  0  0  0  0  0  0  0
    4.2266   -1.0452   -5.7357 H   0  0  0  0  0  0  0  0  0  0  0  0
  1  2  1  0
  1 25  1  0
  1 26  1  0
  1 27  1  0
  3  2  1  6
  3  8  1  0
  3 20  1  0
  3  4  1  0
  4  5  1  0
  4 28  1  0
  4 29  1  0
  5 22  1  0
  5  6  1  0
  5 30  1  6
  6  7  1  0
  6 22  1  0
  6 31  1  1
  7  8  1  0
  7 32  1  0
  7 33  1  0
  8  9  1  0
  8 34  1  1
  9 10  1  0
  9 11  1  0
  9 35  1  1
 10 36  1  0
 10 37  1  0
 10 38  1  0
 11 17  1  0
 11 12  2  0
 12 20  1  0
 12 13  1  0
 13 14  1  0
 13 39  1  0
 13 40  1  0
 14 15  2  0
 14 16  1  0
 16 17  1  0
 17 18  1  0
 17 41  1  1
 18 19  2  0
 18 20  1  0
 20 21  1  6
 21 42  1  0
 22 23  1  0
 22 24  1  0
 23 43  1  0
 23 44  1  0
 23 45  1  0
 24 46  1  0
 24 47  1  0
 24 48  1  0
M  END
>  <i_m_ct_stereo_status>  (198) 
1

>  <s_m_source_file>  (198) 
/var/tmp/pbs.5076255.sched01/tmp2obefojl/44ql_32cm2.sdf

>  <i_m_source_file_index>  (198) 
41

>  <i_lp_mmshare_version>  (198) 
48012

>  <i_f3d_flags>  (198) 
0

>  <s_epik_input>  (198) 
W0NIM11DMShbQ0gzXSlbQ0BASF0oW0NIMl0yKVtDQEBIXTFbQ0gyXVtDQEhdKFtDQEBdMjNPW0NIM10pW0NAQEhdKFtDSDNdKUM0PUM1W0NAQF0zKFtPSF0pQyg9TylbQ0BIXTRPQyg9TylbQ0gyXTU=

>  <s_epik_cmdline>  (198) 
J2VwaWtfcHl0aG9uJywgJy1waHQnLCAnMi4wJywgJy1waCcsICc3LjAnLCAnLXRuJywgJzgnLCAnLW1hJywgJzIwMCcsICctaW1hZScsICc8aW5maWxlLm1hZT4nLCAnLW9tYWUnLCAnPG91dGZpbGUubWFlPic=

>  <r_lp_tautomer_probability>  (198) 
1

>  <r_epik_Ionization_Penalty>  (198) 
3.48359e-05

>  <r_epik_Ionization_Penalty_Charging>  (198) 
0

>  <r_epik_Ionization_Penalty_Neutral>  (198) 
3.48359e-05

>  <r_epik_State_Penalty>  (198) 
-0

>  <r_epik_Charging_Adjusted_Penalty>  (198) 
0

>  <i_epik_Tot_Q>  (198) 
0

>  <i_epik_Tot_abs_Q>  (198) 
0

>  <s_epik_Chemistry_Notes>  (198) 
This compound has an ester and may undergo hydrolysis at high or low pH.

>  <s_lp_Force_Field>  (198) 
OPLS3e

>  <r_lp_Energy>  (198) 
147.653

>  <b_lp_Chiralities_Consistent>  (198) 
1

>  <s_lp_Variant>  (198) 
50:0-1

>  <s_i_glide_gridfile>  (198) 
pfpi4k_grid

>  <i_i_glide_lignum>  (198) 
41

>  <i_i_glide_rotatable_bonds>  (198) 
2

>  <r_i_docking_score>  (198) 
-2.39359

>  <r_i_glide_ligand_efficiency>  (198) 
-0.099733

>  <r_i_glide_ligand_efficiency_sa>  (198) 
-0.28768

>  <r_i_glide_ligand_efficiency_ln>  (198) 
-0.572896

>  <r_i_glide_gscore>  (198) 
-2.39359

>  <r_i_glide_lipo>  (198) 
-0.443746

>  <r_i_glide_hbond>  (198) 
0

>  <r_i_glide_metal>  (198) 
-0

>  <r_i_glide_rewards>  (198) 
-1.2936

>  <r_i_glide_evdw>  (198) 
-10.7594

>  <r_i_glide_ecoul>  (198) 
-0.788515

>  <r_i_glide_erotb>  (198) 
0

>  <r_i_glide_esite>  (198) 
0

>  <r_i_glide_emodel>  (198) 
-11.7748

>  <r_i_glide_energy>  (198) 
-11.5479

>  <r_i_glide_einternal>  (198) 
2.47749

>  <r_i_glide_intrahb_reward>  (198) 
-0

>  <i_i_glide_confnum>  (198) 
2

>  <i_i_glide_posenum>  (198) 
40

>  <r_i_glide_eff_state_penalty>  (198) 
0

>  <ligand_id>  (198) 
50

>  <original_smiles>  (198) 
COC12CC3C(CC1C(C)C1=C4CC(=O)OC1C(=O)C42O)C3(C)C

>  <smiles>  (198) 
[H]OC12C(=O)C3([H])OC(=O)C([H])([H])C1=C3C([H])(C([H])([H])[H])C1([H])C([H])([H])C3([H])C([H])(C([H])([H])C21OC([H])([H])[H])C3(C([H])([H])[H])C([H])([H])[H]

$$$$
50:0:1
     RDKit          3D

 48 52  0  0  1  0  0  0  0  0999 V2000
    6.7507   -3.1350   -2.1266 C   0  0  0  0  0  0  0  0  0  0  0  0
    5.5113   -3.3209   -1.4314 O   0  0  0  0  0  0  0  0  0  0  0  0
    4.9316   -2.2136   -0.7056 C   0  0  1  0  0  0  0  0  0  0  0  0
    5.1234   -0.9176   -1.5363 C   0  0  0  0  0  0  0  0  0  0  0  0
    4.4678   -1.1843   -2.8794 C   0  0  1  0  0  0  0  0  0  0  0  0
    2.9753   -1.0904   -2.6739 C   0  0  2  0  0  0  0  0  0  0  0  0
    2.6909   -2.4743   -2.0864 C   0  0  0  0  0  0  0  0  0  0  0  0
    3.3792   -2.4674   -0.6868 C   0  0  1  0  0  0  0  0  0  0  0  0
    2.9501   -3.5127    0.3645 C   0  0  1  0  0  0  0  0  0  0  0  0
    3.0634   -4.9468   -0.1437 C   0  0  0  0  0  0  0  0  0  0  0  0
    3.6430   -3.2090    1.6972 C   0  0  0  0  0  0  0  0  0  0  0  0
    4.3081   -2.0483    1.8179 C   0  0  0  0  0  0  0  0  0  0  0  0
    4.7436   -1.6607    3.2454 C   0  0  0  0  0  0  0  0  0  0  0  0
    4.9231   -2.8977    4.1693 C   0  0  0  0  0  0  0  0  0  0  0  0
    5.0044   -2.7552    5.3731 O   0  0  0  0  0  0  0  0  0  0  0  0
    4.9372   -4.1110    3.5206 O   0  0  0  0  0  0  0  0  0  0  0  0
    4.7104   -4.2097    2.1054 C   0  0  2  0  0  0  0  0  0  0  0  0
    5.8846   -3.5686    1.3280 C   0  0  0  0  0  0  0  0  0  0  0  0
    7.0004   -4.0592    1.2262 O   0  0  0  0  0  0  0  0  0  0  0  0
    5.4540   -2.1778    0.8003 C   0  0  1  0  0  0  0  0  0  0  0  0
    6.4793   -1.2098    1.0034 O   0  0  0  0  0  0  0  0  0  0  0  0
    3.6685   -0.4623   -3.8773 C   0  0  0  0  0  0  0  0  0  0  0  0
    3.8630    1.0109   -4.0664 C   0  0  0  0  0  0  0  0  0  0  0  0
    3.4070   -1.0509   -5.1859 C   0  0  0  0  0  0  0  0  0  0  0  0
    7.1362   -4.0593   -2.4977 H   0  0  0  0  0  0  0  0  0  0  0  0
    7.5066   -2.6391   -1.5226 H   0  0  0  0  0  0  0  0  0  0  0  0
    6.6476   -2.6459   -3.0909 H   0  0  0  0  0  0  0  0  0  0  0  0
    4.6466   -0.0706   -1.0423 H   0  0  0  0  0  0  0  0  0  0  0  0
    6.1647   -0.6816   -1.6801 H   0  0  0  0  0  0  0  0  0  0  0  0
    4.8466   -2.0898   -3.3792 H   0  0  0  0  0  0  0  0  0  0  0  0
    2.5122   -0.2868   -2.0871 H   0  0  0  0  0  0  0  0  0  0  0  0
    1.6232   -2.6658   -2.0302 H   0  0  0  0  0  0  0  0  0  0  0  0
    3.0867   -3.2633   -2.7415 H   0  0  0  0  0  0  0  0  0  0  0  0
    2.9763   -1.5470   -0.2459 H   0  0  0  0  0  0  0  0  0  0  0  0
    1.8944   -3.3359    0.5558 H   0  0  0  0  0  0  0  0  0  0  0  0
    2.6865   -5.6796    0.5635 H   0  0  0  0  0  0  0  0  0  0  0  0
    4.0745   -5.2261   -0.4447 H   0  0  0  0  0  0  0  0  0  0  0  0
    2.4138   -5.0002   -1.0061 H   0  0  0  0  0  0  0  0  0  0  0  0
    5.6625   -1.0705    3.2685 H   0  0  0  0  0  0  0  0  0  0  0  0
    3.9522   -1.0501    3.6794 H   0  0  0  0  0  0  0  0  0  0  0  0
    4.5120   -5.2396    1.8075 H   0  0  0  0  0  0  0  0  0  0  0  0
    6.1641   -0.3558    0.7653 H   0  0  0  0  0  0  0  0  0  0  0  0
    2.9643    1.4710   -4.4500 H   0  0  0  0  0  0  0  0  0  0  0  0
    4.5959    1.2621   -4.8190 H   0  0  0  0  0  0  0  0  0  0  0  0
    4.2127    1.3706   -3.1196 H   0  0  0  0  0  0  0  0  0  0  0  0
    2.5099   -0.5405   -5.5046 H   0  0  0  0  0  0  0  0  0  0  0  0
    3.2687   -2.1253   -5.0874 H   0  0  0  0  0  0  0  0  0  0  0  0
    4.2034   -0.8169   -5.8514 H   0  0  0  0  0  0  0  0  0  0  0  0
  1  2  1  0
  1 25  1  0
  1 26  1  0
  1 27  1  0
  3  2  1  6
  3  8  1  0
  3 20  1  0
  3  4  1  0
  4  5  1  0
  4 28  1  0
  4 29  1  0
  5 22  1  0
  5  6  1  0
  5 30  1  6
  6  7  1  0
  6 22  1  0
  6 31  1  1
  7  8  1  0
  7 32  1  0
  7 33  1  0
  8  9  1  0
  8 34  1  1
  9 10  1  0
  9 11  1  0
  9 35  1  1
 10 36  1  0
 10 37  1  0
 10 38  1  0
 11 17  1  0
 11 12  2  0
 12 20  1  0
 12 13  1  0
 13 14  1  0
 13 39  1  0
 13 40  1  0
 14 15  2  0
 14 16  1  0
 16 17  1  0
 17 18  1  0
 17 41  1  6
 18 19  2  0
 18 20  1  0
 20 21  1  6
 21 42  1  0
 22 23  1  0
 22 24  1  0
 23 43  1  0
 23 44  1  0
 23 45  1  0
 24 46  1  0
 24 47  1  0
 24 48  1  0
M  END
>  <i_m_ct_stereo_status>  (199) 
1

>  <s_m_source_file>  (199) 
/var/tmp/pbs.5076255.sched01/tmp2obefojl/44ql_32cm2.sdf

>  <i_m_source_file_index>  (199) 
41

>  <i_lp_mmshare_version>  (199) 
48012

>  <i_f3d_flags>  (199) 
0

>  <s_epik_input>  (199) 
W0NIM11DMShbQ0gzXSlbQ0BASF0oW0NIMl0yKVtDQEBIXTFbQ0gyXVtDQEhdKFtDQEBdMjNPW0NIM10pW0NAQEhdKFtDSDNdKUM0PUM1W0NAQF0zKFtPSF0pQyg9TylbQ0BIXTRPQyg9TylbQ0gyXTU=

>  <s_epik_cmdline>  (199) 
J2VwaWtfcHl0aG9uJywgJy1waHQnLCAnMi4wJywgJy1waCcsICc3LjAnLCAnLXRuJywgJzgnLCAnLW1hJywgJzIwMCcsICctaW1hZScsICc8aW5maWxlLm1hZT4nLCAnLW9tYWUnLCAnPG91dGZpbGUubWFlPic=

>  <r_lp_tautomer_probability>  (199) 
1

>  <r_epik_Ionization_Penalty>  (199) 
3.48359e-05

>  <r_epik_Ionization_Penalty_Charging>  (199) 
0

>  <r_epik_Ionization_Penalty_Neutral>  (199) 
3.48359e-05

>  <r_epik_State_Penalty>  (199) 
-0

>  <r_epik_Charging_Adjusted_Penalty>  (199) 
0

>  <i_epik_Tot_Q>  (199) 
0

>  <i_epik_Tot_abs_Q>  (199) 
0

>  <s_epik_Chemistry_Notes>  (199) 
This compound has an ester and may undergo hydrolysis at high or low pH.

>  <s_lp_Force_Field>  (199) 
OPLS3e

>  <r_lp_Energy>  (199) 
147.653

>  <b_lp_Chiralities_Consistent>  (199) 
1

>  <s_lp_Variant>  (199) 
50:0-1

>  <s_i_glide_gridfile>  (199) 
pfpi4k_grid

>  <i_i_glide_lignum>  (199) 
41

>  <i_i_glide_rotatable_bonds>  (199) 
2

>  <r_i_docking_score>  (199) 
-2.20552

>  <r_i_glide_ligand_efficiency>  (199) 
-0.0918967

>  <r_i_glide_ligand_efficiency_sa>  (199) 
-0.265076

>  <r_i_glide_ligand_efficiency_ln>  (199) 
-0.527882

>  <r_i_glide_gscore>  (199) 
-2.20552

>  <r_i_glide_lipo>  (199) 
-0.411871

>  <r_i_glide_hbond>  (199) 
0

>  <r_i_glide_metal>  (199) 
-0

>  <r_i_glide_rewards>  (199) 
-1.29905

>  <r_i_glide_evdw>  (199) 
-6.85159

>  <r_i_glide_ecoul>  (199) 
-1.01349

>  <r_i_glide_erotb>  (199) 
0

>  <r_i_glide_esite>  (199) 
0

>  <r_i_glide_emodel>  (199) 
-5.86184

>  <r_i_glide_energy>  (199) 
-7.86508

>  <r_i_glide_einternal>  (199) 
3.68578

>  <r_i_glide_intrahb_reward>  (199) 
-0

>  <i_i_glide_confnum>  (199) 
1

>  <i_i_glide_posenum>  (199) 
36

>  <r_i_glide_eff_state_penalty>  (199) 
0

>  <ligand_id>  (199) 
50

>  <original_smiles>  (199) 
COC12CC3C(CC1C(C)C1=C4CC(=O)OC1C(=O)C42O)C3(C)C

>  <smiles>  (199) 
[H]OC12C(=O)C3([H])OC(=O)C([H])([H])C1=C3C([H])(C([H])([H])[H])C1([H])C([H])([H])C3([H])C([H])(C([H])([H])C21OC([H])([H])[H])C3(C([H])([H])[H])C([H])([H])[H]

$$$$
51:0:0
     RDKit          3D

 37 41  0  0  1  0  0  0  0  0999 V2000
    2.6709   -0.7637   -3.0274 C   0  0  0  0  0  0  0  0  0  0  0  0
    4.0543   -1.1353   -2.5371 C   0  0  2  0  0  0  0  0  0  0  0  0
    4.5979   -1.9889   -3.5661 O   0  0  0  0  0  0  0  0  0  0  0  0
    4.9091   -3.2551   -3.0139 C   0  0  1  0  0  0  0  0  0  0  0  0
    4.8353   -4.2563   -3.9839 O   0  0  0  0  0  0  0  0  0  0  0  0
    6.3589   -3.1324   -2.1815 C   0  0  1  0  0  0  0  0  0  0  0  0
    6.9449   -3.5876   -0.5835 C   0  0  0  0  0  0  0  0  0  0  0  0
    5.8968   -3.5643    0.8113 C   0  0  1  0  0  0  0  0  0  0  0  0
    5.0819   -2.2146    1.2208 C   0  0  0  0  0  0  0  0  0  0  0  0
    3.9234   -1.6560    0.1949 C   0  0  1  0  0  0  0  0  0  0  0  0
    3.9683   -0.2638    0.3653 O   0  0  0  0  0  0  0  0  0  0  0  0
    4.0943   -2.0896   -1.3420 C   0  0  2  0  0  0  0  0  0  0  0  0
    5.4153   -2.7126   -1.3226 C   0  0  1  0  0  0  0  0  0  0  0  0
    4.6659   -4.1637   -0.9915 C   0  0  2  0  0  0  0  0  0  0  0  0
    3.8314   -3.4330   -1.9134 C   0  0  2  0  0  0  0  0  0  0  0  0
    4.7810   -4.4462    0.4475 N   0  0  2  0  0  0  0  0  0  0  0  0
    3.6008   -4.6885    1.3146 C   0  0  0  0  0  0  0  0  0  0  0  0
    2.1701   -0.1247   -2.3191 H   0  0  0  0  0  0  0  0  0  0  0  0
    2.1066   -1.6860   -3.1640 H   0  0  0  0  0  0  0  0  0  0  0  0
    2.7137   -0.2273   -3.9766 H   0  0  0  0  0  0  0  0  0  0  0  0
    4.7121   -0.2779   -2.4096 H   0  0  0  0  0  0  0  0  0  0  0  0
    4.3474   -4.9878   -3.6033 H   0  0  0  0  0  0  0  0  0  0  0  0
    6.9473   -2.3190   -2.5943 H   0  0  0  0  0  0  0  0  0  0  0  0
    7.3456   -4.5975   -0.6039 H   0  0  0  0  0  0  0  0  0  0  0  0
    7.8156   -2.9549   -0.3531 H   0  0  0  0  0  0  0  0  0  0  0  0
    6.4240   -3.9454    1.6908 H   0  0  0  0  0  0  0  0  0  0  0  0
    4.6225   -2.3381    2.2020 H   0  0  0  0  0  0  0  0  0  0  0  0
    5.8419   -1.4400    1.3567 H   0  0  0  0  0  0  0  0  0  0  0  0
    2.9282   -1.9443    0.5448 H   0  0  0  0  0  0  0  0  0  0  0  0
    4.6227    0.1099   -0.2118 H   0  0  0  0  0  0  0  0  0  0  0  0
    5.8634   -1.8039   -0.8719 H   0  0  0  0  0  0  0  0  0  0  0  0
    5.0343   -5.0790   -1.4832 H   0  0  0  0  0  0  0  0  0  0  0  0
    2.8188   -3.7717   -2.1163 H   0  0  0  0  0  0  0  0  0  0  0  0
    2.9122   -3.8501    1.4274 H   0  0  0  0  0  0  0  0  0  0  0  0
    3.9559   -4.9741    2.3136 H   0  0  0  0  0  0  0  0  0  0  0  0
    3.0381   -5.5407    0.9193 H   0  0  0  0  0  0  0  0  0  0  0  0
    5.2203   -5.3455    0.4369 H   0  0  0  0  0  0  0  0  0  0  0  0
  1  2  1  0
  1 18  1  0
  1 19  1  0
  1 20  1  0
 12  2  1  6
  2  3  1  0
  2 21  1  1
  3  4  1  0
  4 15  1  0
  4  5  1  6
  4  6  1  0
  5 22  1  0
  6 13  1  0
  6  7  1  0
  6 23  1  6
  7  8  1  0
  7 24  1  0
  7 25  1  0
  8 16  1  0
  8  9  1  0
  8 26  1  1
  9 10  1  0
  9 27  1  0
  9 28  1  0
 10 11  1  0
 10 12  1  0
 10 29  1  1
 11 30  1  0
 12 15  1  0
 12 13  1  0
 13 14  1  0
 13 31  1  1
 14 15  1  0
 14 16  1  0
 14 32  1  6
 15 33  1  6
 16 17  1  0
 16 37  1  6
 17 34  1  0
 17 35  1  0
 17 36  1  0
M  CHG  1  16   1
M  END
>  <i_m_ct_stereo_status>  (200) 
1

>  <s_m_source_file>  (200) 
/var/tmp/pbs.5076255.sched01/tmp2obefojl/44ql_32cm2.sdf

>  <i_m_source_file_index>  (200) 
42

>  <i_lp_mmshare_version>  (200) 
48012

>  <i_f3d_flags>  (200) 
0

>  <s_epik_input>  (200) 
W0NIM11bQ0BASF0xT1tDQEBdKFtPSF0pKFtDQEhdMltDQEhdM1tDQF0xNDUpW0NASF01W0NAQEhdM04oW0NIM10pW0NAQEhdKFtDSDJdMilbQ0gyXVtDQEhdNFtPSF0=

>  <s_epik_cmdline>  (200) 
J2VwaWtfcHl0aG9uJywgJy1waHQnLCAnMi4wJywgJy1waCcsICc3LjAnLCAnLXRuJywgJzgnLCAnLW1hJywgJzIwMCcsICctaW1hZScsICc8aW5maWxlLm1hZT4nLCAnLW9tYWUnLCAnPG91dGZpbGUubWFlPic=

>  <r_epik_Ionization_Penalty>  (200) 
0.0112662

>  <r_epik_Ionization_Penalty_Charging>  (200) 
0.011249

>  <r_epik_Ionization_Penalty_Neutral>  (200) 
1.71757e-05

>  <r_epik_State_Penalty>  (200) 
0.00864699

>  <r_epik_Charging_Adjusted_Penalty>  (200) 
0.019896

>  <i_epik_Tot_Q>  (200) 
1

>  <i_epik_Tot_abs_Q>  (200) 
1

>  <s_lp_Force_Field>  (200) 
OPLS3e

>  <r_lp_Energy>  (200) 
302.022

>  <b_lp_Chiralities_Consistent>  (200) 
1

>  <s_lp_Variant>  (200) 
51:0-1

>  <s_i_glide_gridfile>  (200) 
pfpi4k_grid

>  <i_i_glide_lignum>  (200) 
42

>  <i_i_glide_rotatable_bonds>  (200) 
2

>  <r_i_docking_score>  (200) 
-4.35433

>  <r_i_glide_ligand_efficiency>  (200) 
-0.256137

>  <r_i_glide_ligand_efficiency_sa>  (200) 
-0.658601

>  <r_i_glide_ligand_efficiency_ln>  (200) 
-1.13595

>  <r_i_glide_gscore>  (200) 
-4.35433

>  <r_i_glide_lipo>  (200) 
-0.360768

>  <r_i_glide_hbond>  (200) 
-0.122807

>  <r_i_glide_metal>  (200) 
-0

>  <r_i_glide_rewards>  (200) 
-2.04116

>  <r_i_glide_evdw>  (200) 
-12.1823

>  <r_i_glide_ecoul>  (200) 
-8.13654

>  <r_i_glide_erotb>  (200) 
0

>  <r_i_glide_esite>  (200) 
0

>  <r_i_glide_emodel>  (200) 
-23.7303

>  <r_i_glide_energy>  (200) 
-20.3189

>  <r_i_glide_einternal>  (200) 
1.78137

>  <r_i_glide_intrahb_reward>  (200) 
-0

>  <i_i_glide_confnum>  (200) 
1

>  <i_i_glide_posenum>  (200) 
17

>  <r_i_glide_eff_state_penalty>  (200) 
0

>  <ligand_id>  (200) 
51

>  <original_smiles>  (200) 
CC1OC2(O)C3CC4CC(O)C15C3C(C25)N4C

>  <smiles>  (200) 
[H]OC1([H])C([H])([H])C2([H])C([H])([H])C3([H])C4(O[H])OC([H])(C([H])([H])[H])C15C4([H])C([H])(C35[H])[N+]2([H])C([H])([H])[H]

$$$$
51:0:1
     RDKit          3D

 37 41  0  0  1  0  0  0  0  0999 V2000
    4.2998   -4.9588    3.5619 C   0  0  0  0  0  0  0  0  0  0  0  0
    4.8600   -3.8259    2.6845 C   0  0  2  0  0  0  0  0  0  0  0  0
    4.4921   -2.5359    3.2672 O   0  0  0  0  0  0  0  0  0  0  0  0
    3.8252   -1.7340    2.2869 C   0  0  1  0  0  0  0  0  0  0  0  0
    3.0095   -0.7265    2.8345 O   0  0  0  0  0  0  0  0  0  0  0  0
    4.9414   -1.1442    1.2140 C   0  0  1  0  0  0  0  0  0  0  0  0
    5.0262   -0.9590   -0.5152 C   0  0  0  0  0  0  0  0  0  0  0  0
    4.4349   -2.2359   -1.5699 C   0  0  1  0  0  0  0  0  0  0  0  0
    4.9506   -3.7807   -1.3788 C   0  0  0  0  0  0  0  0  0  0  0  0
    4.5506   -4.5853    0.0164 C   0  0  1  0  0  0  0  0  0  0  0  0
    5.6222   -5.4575    0.3193 O   0  0  0  0  0  0  0  0  0  0  0  0
    4.2411   -3.6663    1.2917 C   0  0  2  0  0  0  0  0  0  0  0  0
    4.6812   -2.3761    0.7758 C   0  0  1  0  0  0  0  0  0  0  0  0
    3.1074   -2.1488    0.2376 C   0  0  2  0  0  0  0  0  0  0  0  0
    3.0386   -2.8176    1.5092 C   0  0  2  0  0  0  0  0  0  0  0  0
    3.0197   -2.3898   -1.1968 N   0  0  2  0  0  0  0  0  0  0  0  0
    2.1104   -3.3968   -1.7967 C   0  0  0  0  0  0  0  0  0  0  0  0
    4.5924   -5.9433    3.1971 H   0  0  0  0  0  0  0  0  0  0  0  0
    3.2122   -4.9285    3.6361 H   0  0  0  0  0  0  0  0  0  0  0  0
    4.6894   -4.8705    4.5774 H   0  0  0  0  0  0  0  0  0  0  0  0
    5.9462   -3.8854    2.6342 H   0  0  0  0  0  0  0  0  0  0  0  0
    3.5718   -0.0232    3.1257 H   0  0  0  0  0  0  0  0  0  0  0  0
    5.9109   -1.0321    1.7060 H   0  0  0  0  0  0  0  0  0  0  0  0
    4.5119   -0.0322   -0.7774 H   0  0  0  0  0  0  0  0  0  0  0  0
    6.0729   -0.7806   -0.7687 H   0  0  0  0  0  0  0  0  0  0  0  0
    4.5285   -1.9386   -2.6138 H   0  0  0  0  0  0  0  0  0  0  0  0
    4.6183   -4.3827   -2.2235 H   0  0  0  0  0  0  0  0  0  0  0  0
    6.0353   -3.7687   -1.4869 H   0  0  0  0  0  0  0  0  0  0  0  0
    3.7014   -5.2451   -0.1667 H   0  0  0  0  0  0  0  0  0  0  0  0
    5.3621   -6.0246    1.0295 H   0  0  0  0  0  0  0  0  0  0  0  0
    5.6867   -2.7255    0.4571 H   0  0  0  0  0  0  0  0  0  0  0  0
    2.6449   -1.1585    0.3548 H   0  0  0  0  0  0  0  0  0  0  0  0
    2.1133   -3.2475    1.8808 H   0  0  0  0  0  0  0  0  0  0  0  0
    2.2854   -4.4063   -1.4641 H   0  0  0  0  0  0  0  0  0  0  0  0
    2.1811   -3.3532   -2.8851 H   0  0  0  0  0  0  0  0  0  0  0  0
    1.0850   -3.1508   -1.5318 H   0  0  0  0  0  0  0  0  0  0  0  0
    2.5585   -1.5339   -1.4902 H   0  0  0  0  0  0  0  0  0  0  0  0
  1  2  1  0
  1 18  1  0
  1 19  1  0
  1 20  1  0
 12  2  1  1
  2  3  1  0
  2 21  1  6
  3  4  1  0
  4 15  1  0
  4  5  1  1
  4  6  1  0
  5 22  1  0
  6 13  1  0
  6  7  1  0
  6 23  1  1
  7  8  1  0
  7 24  1  0
  7 25  1  0
  8 16  1  0
  8  9  1  0
  8 26  1  6
  9 10  1  0
  9 27  1  0
  9 28  1  0
 10 11  1  0
 10 12  1  0
 10 29  1  6
 11 30  1  0
 12 15  1  0
 12 13  1  0
 13 14  1  0
 13 31  1  6
 14 15  1  0
 14 16  1  0
 14 32  1  1
 15 33  1  1
 16 17  1  0
 16 37  1  6
 17 34  1  0
 17 35  1  0
 17 36  1  0
M  CHG  1  16   1
M  END
>  <i_m_ct_stereo_status>  (201) 
1

>  <s_m_source_file>  (201) 
/var/tmp/pbs.5076255.sched01/tmp2obefojl/44ql_32cm2.sdf

>  <i_m_source_file_index>  (201) 
42

>  <i_lp_mmshare_version>  (201) 
48012

>  <i_f3d_flags>  (201) 
0

>  <s_epik_input>  (201) 
W0NIM11bQ0BASF0xT1tDQEBdKFtPSF0pKFtDQEhdMltDQEhdM1tDQF0xNDUpW0NASF01W0NAQEhdM04oW0NIM10pW0NAQEhdKFtDSDJdMilbQ0gyXVtDQEhdNFtPSF0=

>  <s_epik_cmdline>  (201) 
J2VwaWtfcHl0aG9uJywgJy1waHQnLCAnMi4wJywgJy1waCcsICc3LjAnLCAnLXRuJywgJzgnLCAnLW1hJywgJzIwMCcsICctaW1hZScsICc8aW5maWxlLm1hZT4nLCAnLW9tYWUnLCAnPG91dGZpbGUubWFlPic=

>  <r_epik_Ionization_Penalty>  (201) 
0.0112662

>  <r_epik_Ionization_Penalty_Charging>  (201) 
0.011249

>  <r_epik_Ionization_Penalty_Neutral>  (201) 
1.71757e-05

>  <r_epik_State_Penalty>  (201) 
0.00864699

>  <r_epik_Charging_Adjusted_Penalty>  (201) 
0.019896

>  <i_epik_Tot_Q>  (201) 
1

>  <i_epik_Tot_abs_Q>  (201) 
1

>  <s_lp_Force_Field>  (201) 
OPLS3e

>  <r_lp_Energy>  (201) 
302.022

>  <b_lp_Chiralities_Consistent>  (201) 
1

>  <s_lp_Variant>  (201) 
51:0-1

>  <s_i_glide_gridfile>  (201) 
pfpi4k_grid

>  <i_i_glide_lignum>  (201) 
42

>  <i_i_glide_rotatable_bonds>  (201) 
2

>  <r_i_docking_score>  (201) 
-3.68904

>  <r_i_glide_ligand_efficiency>  (201) 
-0.217002

>  <r_i_glide_ligand_efficiency_sa>  (201) 
-0.557974

>  <r_i_glide_ligand_efficiency_ln>  (201) 
-0.962388

>  <r_i_glide_gscore>  (201) 
-3.68904

>  <r_i_glide_lipo>  (201) 
-0.332142

>  <r_i_glide_hbond>  (201) 
-0.0921986

>  <r_i_glide_metal>  (201) 
-0

>  <r_i_glide_rewards>  (201) 
-1.7843

>  <r_i_glide_evdw>  (201) 
-11.6731

>  <r_i_glide_ecoul>  (201) 
-5.48286

>  <r_i_glide_erotb>  (201) 
0

>  <r_i_glide_esite>  (201) 
-0.0743156

>  <r_i_glide_emodel>  (201) 
-21.889

>  <r_i_glide_energy>  (201) 
-17.1559

>  <r_i_glide_einternal>  (201) 
0.38531

>  <r_i_glide_intrahb_reward>  (201) 
-0

>  <i_i_glide_confnum>  (201) 
1

>  <i_i_glide_posenum>  (201) 
7

>  <r_i_glide_eff_state_penalty>  (201) 
0

>  <ligand_id>  (201) 
51

>  <original_smiles>  (201) 
CC1OC2(O)C3CC4CC(O)C15C3C(C25)N4C

>  <smiles>  (201) 
[H]OC1([H])C([H])([H])C2([H])C([H])([H])C3([H])C4(O[H])OC([H])(C([H])([H])[H])C15C4([H])C([H])(C35[H])[N+]2([H])C([H])([H])[H]

$$$$
51:0:2
     RDKit          3D

 37 41  0  0  1  0  0  0  0  0999 V2000
    3.2159   -4.4861    3.3986 C   0  0  0  0  0  0  0  0  0  0  0  0
    4.1564   -3.6059    2.5512 C   0  0  2  0  0  0  0  0  0  0  0  0
    3.9843   -2.2070    2.9454 O   0  0  0  0  0  0  0  0  0  0  0  0
    3.6917   -1.4024    1.7981 C   0  0  1  0  0  0  0  0  0  0  0  0
    2.9968   -0.1983    2.1032 O   0  0  0  0  0  0  0  0  0  0  0  0
    5.0805   -1.1870    0.9173 C   0  0  1  0  0  0  0  0  0  0  0  0
    5.4820   -1.2385   -0.7774 C   0  0  0  0  0  0  0  0  0  0  0  0
    4.8066   -2.4868   -1.8109 C   0  0  1  0  0  0  0  0  0  0  0  0
    4.9281   -4.0592   -1.4019 C   0  0  0  0  0  0  0  0  0  0  0  0
    4.1363   -4.5962   -0.0465 C   0  0  1  0  0  0  0  0  0  0  0  0
    4.9180   -5.6423    0.5002 O   0  0  0  0  0  0  0  0  0  0  0  0
    3.8474   -3.4804    1.0538 C   0  0  2  0  0  0  0  0  0  0  0  0
    4.6280   -2.3754    0.5316 C   0  0  1  0  0  0  0  0  0  0  0  0
    3.2629   -1.9143   -0.3180 C   0  0  2  0  0  0  0  0  0  0  0  0
    2.8440   -2.3835    0.9713 C   0  0  2  0  0  0  0  0  0  0  0  0
    3.3648   -2.3090   -1.6968 N   0  0  2  0  0  0  0  0  0  0  0  0
    2.3645   -3.1692   -2.3676 C   0  0  0  0  0  0  0  0  0  0  0  0
    3.3397   -5.5464    3.1762 H   0  0  0  0  0  0  0  0  0  0  0  0
    2.1668   -4.2218    3.2655 H   0  0  0  0  0  0  0  0  0  0  0  0
    3.4425   -4.3568    4.4598 H   0  0  0  0  0  0  0  0  0  0  0  0
    5.1943   -3.8916    2.7201 H   0  0  0  0  0  0  0  0  0  0  0  0
    2.3855   -0.0242    1.4051 H   0  0  0  0  0  0  0  0  0  0  0  0
    5.9533   -1.2209    1.5709 H   0  0  0  0  0  0  0  0  0  0  0  0
    5.2531   -0.2621   -1.2100 H   0  0  0  0  0  0  0  0  0  0  0  0
    6.5661   -1.3370   -0.8343 H   0  0  0  0  0  0  0  0  0  0  0  0
    5.1407   -2.3499   -2.8310 H   0  0  0  0  0  0  0  0  0  0  0  0
    4.6274   -4.6547   -2.2521 H   0  0  0  0  0  0  0  0  0  0  0  0
    5.9947   -4.2494   -1.2989 H   0  0  0  0  0  0  0  0  0  0  0  0
    3.2031   -5.0879   -0.3233 H   0  0  0  0  0  0  0  0  0  0  0  0
    4.9942   -6.3310   -0.1368 H   0  0  0  0  0  0  0  0  0  0  0  0
    5.5633   -2.9684    0.4461 H   0  0  0  0  0  0  0  0  0  0  0  0
    3.0162   -0.8508   -0.3610 H   0  0  0  0  0  0  0  0  0  0  0  0
    1.8108   -2.5832    1.2029 H   0  0  0  0  0  0  0  0  0  0  0  0
    2.2368   -4.1515   -1.9487 H   0  0  0  0  0  0  0  0  0  0  0  0
    2.6056   -3.2699   -3.4186 H   0  0  0  0  0  0  0  0  0  0  0  0
    1.4025   -2.6859   -2.3192 H   0  0  0  0  0  0  0  0  0  0  0  0
    3.2017   -1.4300   -2.1578 H   0  0  0  0  0  0  0  0  0  0  0  0
  1  2  1  0
  1 18  1  0
  1 19  1  0
  1 20  1  0
 12  2  1  1
  2  3  1  0
  2 21  1  6
  3  4  1  0
  4 15  1  0
  4  5  1  1
  4  6  1  0
  5 22  1  0
  6 13  1  0
  6  7  1  0
  6 23  1  1
  7  8  1  0
  7 24  1  0
  7 25  1  0
  8 16  1  0
  8  9  1  0
  8 26  1  6
  9 10  1  0
  9 27  1  0
  9 28  1  0
 10 11  1  0
 10 12  1  0
 10 29  1  6
 11 30  1  0
 12 15  1  0
 12 13  1  0
 13 14  1  0
 13 31  1  6
 14 15  1  0
 14 16  1  0
 14 32  1  6
 15 33  1  6
 16 17  1  0
 16 37  1  6
 17 34  1  0
 17 35  1  0
 17 36  1  0
M  CHG  1  16   1
M  END
>  <i_m_ct_stereo_status>  (202) 
1

>  <s_m_source_file>  (202) 
/var/tmp/pbs.5076255.sched01/tmp2obefojl/44ql_32cm2.sdf

>  <i_m_source_file_index>  (202) 
42

>  <i_lp_mmshare_version>  (202) 
48012

>  <i_f3d_flags>  (202) 
0

>  <s_epik_input>  (202) 
W0NIM11bQ0BASF0xT1tDQEBdKFtPSF0pKFtDQEhdMltDQEhdM1tDQF0xNDUpW0NASF01W0NAQEhdM04oW0NIM10pW0NAQEhdKFtDSDJdMilbQ0gyXVtDQEhdNFtPSF0=

>  <s_epik_cmdline>  (202) 
J2VwaWtfcHl0aG9uJywgJy1waHQnLCAnMi4wJywgJy1waCcsICc3LjAnLCAnLXRuJywgJzgnLCAnLW1hJywgJzIwMCcsICctaW1hZScsICc8aW5maWxlLm1hZT4nLCAnLW9tYWUnLCAnPG91dGZpbGUubWFlPic=

>  <r_epik_Ionization_Penalty>  (202) 
0.0112662

>  <r_epik_Ionization_Penalty_Charging>  (202) 
0.011249

>  <r_epik_Ionization_Penalty_Neutral>  (202) 
1.71757e-05

>  <r_epik_State_Penalty>  (202) 
0.00864699

>  <r_epik_Charging_Adjusted_Penalty>  (202) 
0.019896

>  <i_epik_Tot_Q>  (202) 
1

>  <i_epik_Tot_abs_Q>  (202) 
1

>  <s_lp_Force_Field>  (202) 
OPLS3e

>  <r_lp_Energy>  (202) 
302.022

>  <b_lp_Chiralities_Consistent>  (202) 
1

>  <s_lp_Variant>  (202) 
51:0-1

>  <s_i_glide_gridfile>  (202) 
pfpi4k_grid

>  <i_i_glide_lignum>  (202) 
42

>  <i_i_glide_rotatable_bonds>  (202) 
2

>  <r_i_docking_score>  (202) 
-3.53583

>  <r_i_glide_ligand_efficiency>  (202) 
-0.20799

>  <r_i_glide_ligand_efficiency_sa>  (202) 
-0.5348

>  <r_i_glide_ligand_efficiency_ln>  (202) 
-0.922418

>  <r_i_glide_gscore>  (202) 
-3.53583

>  <r_i_glide_lipo>  (202) 
-0.212385

>  <r_i_glide_hbond>  (202) 
0

>  <r_i_glide_metal>  (202) 
-0

>  <r_i_glide_rewards>  (202) 
-1.7843

>  <r_i_glide_evdw>  (202) 
-13.8625

>  <r_i_glide_ecoul>  (202) 
-5.18843

>  <r_i_glide_erotb>  (202) 
0

>  <r_i_glide_esite>  (202) 
-0.0677546

>  <r_i_glide_emodel>  (202) 
-22.7537

>  <r_i_glide_energy>  (202) 
-19.0509

>  <r_i_glide_einternal>  (202) 
2.09255

>  <r_i_glide_intrahb_reward>  (202) 
-0

>  <i_i_glide_confnum>  (202) 
1

>  <i_i_glide_posenum>  (202) 
1

>  <r_i_glide_eff_state_penalty>  (202) 
0

>  <ligand_id>  (202) 
51

>  <original_smiles>  (202) 
CC1OC2(O)C3CC4CC(O)C15C3C(C25)N4C

>  <smiles>  (202) 
[H]OC1([H])C([H])([H])C2([H])C([H])([H])C3([H])C4(O[H])OC([H])(C([H])([H])[H])C15C4([H])C([H])(C35[H])[N+]2([H])C([H])([H])[H]

$$$$
51:1:0
     RDKit          3D

 36 40  0  0  1  0  0  0  0  0999 V2000
    3.9484    0.1284   -3.3657 C   0  0  0  0  0  0  0  0  0  0  0  0
    4.7671   -0.9194   -2.6097 C   0  0  2  0  0  0  0  0  0  0  0  0
    5.0119   -2.0353   -3.5141 O   0  0  0  0  0  0  0  0  0  0  0  0
    4.5846   -3.2629   -2.9501 C   0  0  1  0  0  0  0  0  0  0  0  0
    4.2923   -4.2351   -3.9309 O   0  0  0  0  0  0  0  0  0  0  0  0
    5.6540   -3.7044   -1.7834 C   0  0  1  0  0  0  0  0  0  0  0  0
    5.5218   -4.4119   -0.2176 C   0  0  0  0  0  0  0  0  0  0  0  0
    4.3385   -3.7533    0.9215 C   0  0  1  0  0  0  0  0  0  0  0  0
    4.2294   -2.1520    1.2372 C   0  0  0  0  0  0  0  0  0  0  0  0
    3.7676   -1.1226    0.0187 C   0  0  1  0  0  0  0  0  0  0  0  0
    4.4546    0.0701    0.3475 O   0  0  0  0  0  0  0  0  0  0  0  0
    4.0815   -1.6532   -1.4837 C   0  0  2  0  0  0  0  0  0  0  0  0
    4.9511   -2.7530   -1.1381 C   0  0  1  0  0  0  0  0  0  0  0  0
    3.4884   -3.5314   -0.9502 C   0  0  2  0  0  0  0  0  0  0  0  0
    3.3799   -2.7729   -2.1728 C   0  0  2  0  0  0  0  0  0  0  0  0
    2.9700   -3.7267    0.3878 N   0  0  0  0  0  0  0  0  0  0  0  0
    2.3208   -5.0240    0.5730 C   0  0  0  0  0  0  0  0  0  0  0  0
    3.8194    0.9678   -2.7274 H   0  0  0  0  0  0  0  0  0  0  0  0
    2.9716   -0.2261   -3.6923 H   0  0  0  0  0  0  0  0  0  0  0  0
    4.4760    0.5008   -4.2431 H   0  0  0  0  0  0  0  0  0  0  0  0
    5.7099   -0.5045   -2.2627 H   0  0  0  0  0  0  0  0  0  0  0  0
    3.8411   -4.9607   -3.4925 H   0  0  0  0  0  0  0  0  0  0  0  0
    6.6703   -3.3820   -2.0353 H   0  0  0  0  0  0  0  0  0  0  0  0
    5.3691   -5.4914   -0.3156 H   0  0  0  0  0  0  0  0  0  0  0  0
    6.4918   -4.2948    0.2670 H   0  0  0  0  0  0  0  0  0  0  0  0
    4.3858   -4.2868    1.8697 H   0  0  0  0  0  0  0  0  0  0  0  0
    3.5495   -1.9755    2.0797 H   0  0  0  0  0  0  0  0  0  0  0  0
    5.2107   -1.8292    1.5984 H   0  0  0  0  0  0  0  0  0  0  0  0
    2.6884   -0.9215    0.1216 H   0  0  0  0  0  0  0  0  0  0  0  0
    4.4605    0.6201   -0.4285 H   0  0  0  0  0  0  0  0  0  0  0  0
    5.6828   -2.2294   -0.5048 H   0  0  0  0  0  0  0  0  0  0  0  0
    3.4697   -4.5609   -1.3138 H   0  0  0  0  0  0  0  0  0  0  0  0
    2.4120   -2.5876   -2.6299 H   0  0  0  0  0  0  0  0  0  0  0  0
    1.4275   -5.0800   -0.0475 H   0  0  0  0  0  0  0  0  0  0  0  0
    2.0361   -5.1215    1.6186 H   0  0  0  0  0  0  0  0  0  0  0  0
    2.9628   -5.8663    0.3124 H   0  0  0  0  0  0  0  0  0  0  0  0
  1  2  1  0
  1 18  1  0
  1 19  1  0
  1 20  1  0
 12  2  1  6
  2  3  1  0
  2 21  1  1
  3  4  1  0
  4 15  1  0
  4  5  1  6
  4  6  1  0
  5 22  1  0
  6 13  1  0
  6  7  1  0
  6 23  1  6
  7  8  1  0
  7 24  1  0
  7 25  1  0
  8 16  1  0
  8  9  1  0
  8 26  1  1
  9 10  1  0
  9 27  1  0
  9 28  1  0
 10 11  1  0
 10 12  1  0
 10 29  1  6
 11 30  1  0
 12 15  1  0
 12 13  1  0
 13 14  1  0
 13 31  1  1
 14 15  1  0
 14 16  1  0
 14 32  1  6
 15 33  1  6
 16 17  1  0
 17 34  1  0
 17 35  1  0
 17 36  1  0
M  END
>  <i_m_ct_stereo_status>  (203) 
1

>  <s_m_source_file>  (203) 
/var/tmp/pbs.5076255.sched01/tmp2obefojl/44ql_32cm2.sdf

>  <i_m_source_file_index>  (203) 
43

>  <i_lp_mmshare_version>  (203) 
48012

>  <i_f3d_flags>  (203) 
0

>  <s_epik_input>  (203) 
W0NIM11bQ0BASF0xT1tDQEBdKFtPSF0pKFtDQEhdMltDQEhdM1tDQF0xNDUpW0NASF01W0NAQEhdM04oW0NIM10pW0NAQEhdKFtDSDJdMilbQ0gyXVtDQEhdNFtPSF0=

>  <s_epik_cmdline>  (203) 
J2VwaWtfcHl0aG9uJywgJy1waHQnLCAnMi4wJywgJy1waCcsICc3LjAnLCAnLXRuJywgJzgnLCAnLW1hJywgJzIwMCcsICctaW1hZScsICc8aW5maWxlLm1hZT4nLCAnLW9tYWUnLCAnPG91dGZpbGUubWFlPic=

>  <r_epik_Ionization_Penalty>  (203) 
2.35426

>  <r_epik_Ionization_Penalty_Charging>  (203) 
0

>  <r_epik_Ionization_Penalty_Neutral>  (203) 
2.35426

>  <r_epik_State_Penalty>  (203) 
2.50882

>  <r_epik_Charging_Adjusted_Penalty>  (203) 
2.50882

>  <i_epik_Tot_Q>  (203) 
0

>  <i_epik_Tot_abs_Q>  (203) 
0

>  <s_lp_Force_Field>  (203) 
OPLS3e

>  <r_lp_Energy>  (203) 
285.299

>  <b_lp_Chiralities_Consistent>  (203) 
1

>  <s_lp_Variant>  (203) 
51:0-2

>  <s_i_glide_gridfile>  (203) 
pfpi4k_grid

>  <i_i_glide_lignum>  (203) 
43

>  <i_i_glide_rotatable_bonds>  (203) 
2

>  <r_i_docking_score>  (203) 
-4.24768

>  <r_i_glide_ligand_efficiency>  (203) 
-0.249863

>  <r_i_glide_ligand_efficiency_sa>  (203) 
-0.642469

>  <r_i_glide_ligand_efficiency_ln>  (203) 
-1.10812

>  <r_i_glide_gscore>  (203) 
-4.24768

>  <r_i_glide_lipo>  (203) 
-0.218699

>  <r_i_glide_hbond>  (203) 
-0.226846

>  <r_i_glide_metal>  (203) 
-0

>  <r_i_glide_rewards>  (203) 
-1.93624

>  <r_i_glide_evdw>  (203) 
-10.9771

>  <r_i_glide_ecoul>  (203) 
-8.78027

>  <r_i_glide_erotb>  (203) 
0

>  <r_i_glide_esite>  (203) 
0

>  <r_i_glide_emodel>  (203) 
-21.939

>  <r_i_glide_energy>  (203) 
-19.7573

>  <r_i_glide_einternal>  (203) 
2.39111

>  <r_i_glide_intrahb_reward>  (203) 
-0

>  <i_i_glide_confnum>  (203) 
1

>  <i_i_glide_posenum>  (203) 
40

>  <r_i_glide_eff_state_penalty>  (203) 
0

>  <ligand_id>  (203) 
51

>  <original_smiles>  (203) 
CC1OC2(O)C3CC4CC(O)C15C3C(C25)N4C

>  <smiles>  (203) 
[H]OC1([H])C([H])([H])C2([H])N(C([H])([H])[H])C3([H])C4([H])C5(O[H])OC([H])(C([H])([H])[H])C14C3([H])C5([H])C2([H])[H]

$$$$
51:1:1
     RDKit          3D

 36 40  0  0  1  0  0  0  0  0999 V2000
    2.7852   -0.6857   -2.9458 C   0  0  0  0  0  0  0  0  0  0  0  0
    4.0017   -1.1236   -2.1371 C   0  0  2  0  0  0  0  0  0  0  0  0
    4.8146   -1.9459   -3.0251 O   0  0  0  0  0  0  0  0  0  0  0  0
    5.0166   -3.2390   -2.4522 C   0  0  1  0  0  0  0  0  0  0  0  0
    5.2090   -4.2192   -3.4250 O   0  0  0  0  0  0  0  0  0  0  0  0
    6.1622   -3.1108   -1.2607 C   0  0  1  0  0  0  0  0  0  0  0  0
    6.3640   -3.7600    0.3317 C   0  0  0  0  0  0  0  0  0  0  0  0
    4.9799   -3.8126    1.4233 C   0  0  1  0  0  0  0  0  0  0  0  0
    4.0528   -2.4843    1.7056 C   0  0  0  0  0  0  0  0  0  0  0  0
    3.1637   -1.8573    0.4532 C   0  0  1  0  0  0  0  0  0  0  0  0
    3.0078   -0.4805    0.6832 O   0  0  0  0  0  0  0  0  0  0  0  0
    3.7406   -2.1303   -1.0234 C   0  0  2  0  0  0  0  0  0  0  0  0
    5.0406   -2.6623   -0.6461 C   0  0  1  0  0  0  0  0  0  0  0  0
    4.1961   -4.0917   -0.5122 C   0  0  2  0  0  0  0  0  0  0  0  0
    3.7123   -3.4512   -1.7062 C   0  0  2  0  0  0  0  0  0  0  0  0
    3.8343   -4.5050    0.8248 N   0  0  0  0  0  0  0  0  0  0  0  0
    3.9140   -5.9464    1.0463 C   0  0  0  0  0  0  0  0  0  0  0  0
    2.1175   -0.0904   -2.3348 H   0  0  0  0  0  0  0  0  0  0  0  0
    2.2305   -1.5492   -3.3127 H   0  0  0  0  0  0  0  0  0  0  0  0
    3.0734   -0.0751   -3.8044 H   0  0  0  0  0  0  0  0  0  0  0  0
    4.5868   -0.2750   -1.7883 H   0  0  0  0  0  0  0  0  0  0  0  0
    4.7925   -5.0202   -3.1167 H   0  0  0  0  0  0  0  0  0  0  0  0
    6.8653   -2.3109   -1.4901 H   0  0  0  0  0  0  0  0  0  0  0  0
    6.8044   -4.7540    0.2625 H   0  0  0  0  0  0  0  0  0  0  0  0
    7.1188   -3.1554    0.8335 H   0  0  0  0  0  0  0  0  0  0  0  0
    5.2637   -4.2487    2.3790 H   0  0  0  0  0  0  0  0  0  0  0  0
    3.3607   -2.6954    2.5261 H   0  0  0  0  0  0  0  0  0  0  0  0
    4.7093   -1.7051    2.0961 H   0  0  0  0  0  0  0  0  0  0  0  0
    2.1595   -2.2801    0.5239 H   0  0  0  0  0  0  0  0  0  0  0  0
    2.2590   -0.2289    0.1559 H   0  0  0  0  0  0  0  0  0  0  0  0
    5.3826   -1.8324   -0.0021 H   0  0  0  0  0  0  0  0  0  0  0  0
    4.7131   -4.9791   -0.8954 H   0  0  0  0  0  0  0  0  0  0  0  0
    2.8247   -3.8083   -2.2210 H   0  0  0  0  0  0  0  0  0  0  0  0
    3.1715   -6.4690    0.4433 H   0  0  0  0  0  0  0  0  0  0  0  0
    3.7004   -6.1630    2.0944 H   0  0  0  0  0  0  0  0  0  0  0  0
    4.8971   -6.3637    0.8170 H   0  0  0  0  0  0  0  0  0  0  0  0
  1  2  1  0
  1 18  1  0
  1 19  1  0
  1 20  1  0
 12  2  1  6
  2  3  1  0
  2 21  1  1
  3  4  1  0
  4 15  1  0
  4  5  1  6
  4  6  1  0
  5 22  1  0
  6 13  1  0
  6  7  1  0
  6 23  1  6
  7  8  1  0
  7 24  1  0
  7 25  1  0
  8 16  1  0
  8  9  1  0
  8 26  1  1
  9 10  1  0
  9 27  1  0
  9 28  1  0
 10 11  1  0
 10 12  1  0
 10 29  1  6
 11 30  1  0
 12 15  1  0
 12 13  1  0
 13 14  1  0
 13 31  1  1
 14 15  1  0
 14 16  1  0
 14 32  1  6
 15 33  1  6
 16 17  1  0
 17 34  1  0
 17 35  1  0
 17 36  1  0
M  END
>  <i_m_ct_stereo_status>  (204) 
1

>  <s_m_source_file>  (204) 
/var/tmp/pbs.5076255.sched01/tmp2obefojl/44ql_32cm2.sdf

>  <i_m_source_file_index>  (204) 
43

>  <i_lp_mmshare_version>  (204) 
48012

>  <i_f3d_flags>  (204) 
0

>  <s_epik_input>  (204) 
W0NIM11bQ0BASF0xT1tDQEBdKFtPSF0pKFtDQEhdMltDQEhdM1tDQF0xNDUpW0NASF01W0NAQEhdM04oW0NIM10pW0NAQEhdKFtDSDJdMilbQ0gyXVtDQEhdNFtPSF0=

>  <s_epik_cmdline>  (204) 
J2VwaWtfcHl0aG9uJywgJy1waHQnLCAnMi4wJywgJy1waCcsICc3LjAnLCAnLXRuJywgJzgnLCAnLW1hJywgJzIwMCcsICctaW1hZScsICc8aW5maWxlLm1hZT4nLCAnLW9tYWUnLCAnPG91dGZpbGUubWFlPic=

>  <r_epik_Ionization_Penalty>  (204) 
2.35426

>  <r_epik_Ionization_Penalty_Charging>  (204) 
0

>  <r_epik_Ionization_Penalty_Neutral>  (204) 
2.35426

>  <r_epik_State_Penalty>  (204) 
2.50882

>  <r_epik_Charging_Adjusted_Penalty>  (204) 
2.50882

>  <i_epik_Tot_Q>  (204) 
0

>  <i_epik_Tot_abs_Q>  (204) 
0

>  <s_lp_Force_Field>  (204) 
OPLS3e

>  <r_lp_Energy>  (204) 
285.299

>  <b_lp_Chiralities_Consistent>  (204) 
1

>  <s_lp_Variant>  (204) 
51:0-2

>  <s_i_glide_gridfile>  (204) 
pfpi4k_grid

>  <i_i_glide_lignum>  (204) 
43

>  <i_i_glide_rotatable_bonds>  (204) 
2

>  <r_i_docking_score>  (204) 
-3.83141

>  <r_i_glide_ligand_efficiency>  (204) 
-0.225377

>  <r_i_glide_ligand_efficiency_sa>  (204) 
-0.579508

>  <r_i_glide_ligand_efficiency_ln>  (204) 
-0.99953

>  <r_i_glide_gscore>  (204) 
-3.83141

>  <r_i_glide_lipo>  (204) 
-0.258622

>  <r_i_glide_hbond>  (204) 
-0.132883

>  <r_i_glide_metal>  (204) 
-0

>  <r_i_glide_rewards>  (204) 
-2.00538

>  <r_i_glide_evdw>  (204) 
-9.41349

>  <r_i_glide_ecoul>  (204) 
-6.4257

>  <r_i_glide_erotb>  (204) 
0

>  <r_i_glide_esite>  (204) 
0

>  <r_i_glide_emodel>  (204) 
-17.6952

>  <r_i_glide_energy>  (204) 
-15.8392

>  <r_i_glide_einternal>  (204) 
2.29789

>  <r_i_glide_intrahb_reward>  (204) 
-0

>  <i_i_glide_confnum>  (204) 
1

>  <i_i_glide_posenum>  (204) 
10

>  <r_i_glide_eff_state_penalty>  (204) 
0

>  <ligand_id>  (204) 
51

>  <original_smiles>  (204) 
CC1OC2(O)C3CC4CC(O)C15C3C(C25)N4C

>  <smiles>  (204) 
[H]OC1([H])C([H])([H])C2([H])N(C([H])([H])[H])C3([H])C4([H])C5(O[H])OC([H])(C([H])([H])[H])C14C3([H])C5([H])C2([H])[H]

$$$$
51:1:2
     RDKit          3D

 36 40  0  0  1  0  0  0  0  0999 V2000
    3.9501    0.1185   -3.3718 C   0  0  0  0  0  0  0  0  0  0  0  0
    4.7615   -0.9194   -2.6031 C   0  0  2  0  0  0  0  0  0  0  0  0
    4.9844   -2.0367   -3.5135 O   0  0  0  0  0  0  0  0  0  0  0  0
    4.5896   -3.2677   -2.9400 C   0  0  1  0  0  0  0  0  0  0  0  0
    4.2867   -4.2620   -3.9178 O   0  0  0  0  0  0  0  0  0  0  0  0
    5.6653   -3.7132   -1.7877 C   0  0  1  0  0  0  0  0  0  0  0  0
    5.5274   -4.4117   -0.2117 C   0  0  0  0  0  0  0  0  0  0  0  0
    4.3410   -3.7562    0.9321 C   0  0  1  0  0  0  0  0  0  0  0  0
    4.2402   -2.1496    1.2478 C   0  0  0  0  0  0  0  0  0  0  0  0
    3.7739   -1.1251    0.0414 C   0  0  1  0  0  0  0  0  0  0  0  0
    4.4705    0.0558    0.3799 O   0  0  0  0  0  0  0  0  0  0  0  0
    4.0803   -1.6538   -1.4667 C   0  0  2  0  0  0  0  0  0  0  0  0
    4.9511   -2.7528   -1.1268 C   0  0  1  0  0  0  0  0  0  0  0  0
    3.4919   -3.5283   -0.9323 C   0  0  2  0  0  0  0  0  0  0  0  0
    3.3799   -2.7849   -2.1521 C   0  0  2  0  0  0  0  0  0  0  0  0
    2.9718   -3.7244    0.4017 N   0  0  0  0  0  0  0  0  0  0  0  0
    2.3321   -5.0210    0.5859 C   0  0  0  0  0  0  0  0  0  0  0  0
    3.8094    0.9743   -2.7315 H   0  0  0  0  0  0  0  0  0  0  0  0
    2.9714   -0.2267   -3.6885 H   0  0  0  0  0  0  0  0  0  0  0  0
    4.4723    0.4944   -4.2425 H   0  0  0  0  0  0  0  0  0  0  0  0
    5.7065   -0.5050   -2.2579 H   0  0  0  0  0  0  0  0  0  0  0  0
    3.8495   -4.9659   -3.4805 H   0  0  0  0  0  0  0  0  0  0  0  0
    6.6766   -3.3785   -2.0357 H   0  0  0  0  0  0  0  0  0  0  0  0
    5.3788   -5.4904   -0.3072 H   0  0  0  0  0  0  0  0  0  0  0  0
    6.4931   -4.2911    0.2678 H   0  0  0  0  0  0  0  0  0  0  0  0
    4.4010   -4.2876    1.8726 H   0  0  0  0  0  0  0  0  0  0  0  0
    3.5687   -1.9864    2.0912 H   0  0  0  0  0  0  0  0  0  0  0  0
    5.2213   -1.8406    1.6028 H   0  0  0  0  0  0  0  0  0  0  0  0
    2.7083   -0.9197    0.1406 H   0  0  0  0  0  0  0  0  0  0  0  0
    3.9573    0.5167    1.0261 H   0  0  0  0  0  0  0  0  0  0  0  0
    5.6805   -2.2213   -0.5008 H   0  0  0  0  0  0  0  0  0  0  0  0
    3.4782   -4.5457   -1.2963 H   0  0  0  0  0  0  0  0  0  0  0  0
    2.4319   -2.5908   -2.6129 H   0  0  0  0  0  0  0  0  0  0  0  0
    1.4336   -5.0805   -0.0312 H   0  0  0  0  0  0  0  0  0  0  0  0
    2.0514   -5.1199    1.6328 H   0  0  0  0  0  0  0  0  0  0  0  0
    2.9673   -5.8721    0.3258 H   0  0  0  0  0  0  0  0  0  0  0  0
  1  2  1  0
  1 18  1  0
  1 19  1  0
  1 20  1  0
 12  2  1  6
  2  3  1  0
  2 21  1  1
  3  4  1  0
  4 15  1  0
  4  5  1  6
  4  6  1  0
  5 22  1  0
  6 13  1  0
  6  7  1  0
  6 23  1  6
  7  8  1  0
  7 24  1  0
  7 25  1  0
  8 16  1  0
  8  9  1  0
  8 26  1  1
  9 10  1  0
  9 27  1  0
  9 28  1  0
 10 11  1  0
 10 12  1  0
 10 29  1  6
 11 30  1  0
 12 15  1  0
 12 13  1  0
 13 14  1  0
 13 31  1  1
 14 15  1  0
 14 16  1  0
 14 32  1  6
 15 33  1  6
 16 17  1  0
 17 34  1  0
 17 35  1  0
 17 36  1  0
M  END
>  <i_m_ct_stereo_status>  (205) 
1

>  <s_m_source_file>  (205) 
/var/tmp/pbs.5076255.sched01/tmp2obefojl/44ql_32cm2.sdf

>  <i_m_source_file_index>  (205) 
43

>  <i_lp_mmshare_version>  (205) 
48012

>  <i_f3d_flags>  (205) 
0

>  <s_epik_input>  (205) 
W0NIM11bQ0BASF0xT1tDQEBdKFtPSF0pKFtDQEhdMltDQEhdM1tDQF0xNDUpW0NASF01W0NAQEhdM04oW0NIM10pW0NAQEhdKFtDSDJdMilbQ0gyXVtDQEhdNFtPSF0=

>  <s_epik_cmdline>  (205) 
J2VwaWtfcHl0aG9uJywgJy1waHQnLCAnMi4wJywgJy1waCcsICc3LjAnLCAnLXRuJywgJzgnLCAnLW1hJywgJzIwMCcsICctaW1hZScsICc8aW5maWxlLm1hZT4nLCAnLW9tYWUnLCAnPG91dGZpbGUubWFlPic=

>  <r_epik_Ionization_Penalty>  (205) 
2.35426

>  <r_epik_Ionization_Penalty_Charging>  (205) 
0

>  <r_epik_Ionization_Penalty_Neutral>  (205) 
2.35426

>  <r_epik_State_Penalty>  (205) 
2.50882

>  <r_epik_Charging_Adjusted_Penalty>  (205) 
2.50882

>  <i_epik_Tot_Q>  (205) 
0

>  <i_epik_Tot_abs_Q>  (205) 
0

>  <s_lp_Force_Field>  (205) 
OPLS3e

>  <r_lp_Energy>  (205) 
285.299

>  <b_lp_Chiralities_Consistent>  (205) 
1

>  <s_lp_Variant>  (205) 
51:0-2

>  <s_i_glide_gridfile>  (205) 
pfpi4k_grid

>  <i_i_glide_lignum>  (205) 
43

>  <i_i_glide_rotatable_bonds>  (205) 
2

>  <r_i_docking_score>  (205) 
-3.72229

>  <r_i_glide_ligand_efficiency>  (205) 
-0.218958

>  <r_i_glide_ligand_efficiency_sa>  (205) 
-0.563004

>  <r_i_glide_ligand_efficiency_ln>  (205) 
-0.971063

>  <r_i_glide_gscore>  (205) 
-3.72229

>  <r_i_glide_lipo>  (205) 
-0.222858

>  <r_i_glide_hbond>  (205) 
0

>  <r_i_glide_metal>  (205) 
-0

>  <r_i_glide_rewards>  (205) 
-1.9349

>  <r_i_glide_evdw>  (205) 
-11.194

>  <r_i_glide_ecoul>  (205) 
-6.69891

>  <r_i_glide_erotb>  (205) 
0

>  <r_i_glide_esite>  (205) 
0

>  <r_i_glide_emodel>  (205) 
-18.8957

>  <r_i_glide_energy>  (205) 
-17.8929

>  <r_i_glide_einternal>  (205) 
2.07598

>  <r_i_glide_intrahb_reward>  (205) 
-0

>  <i_i_glide_confnum>  (205) 
2

>  <i_i_glide_posenum>  (205) 
7

>  <r_i_glide_eff_state_penalty>  (205) 
0

>  <ligand_id>  (205) 
51

>  <original_smiles>  (205) 
CC1OC2(O)C3CC4CC(O)C15C3C(C25)N4C

>  <smiles>  (205) 
[H]OC1([H])C([H])([H])C2([H])N(C([H])([H])[H])C3([H])C4([H])C5(O[H])OC([H])(C([H])([H])[H])C14C3([H])C5([H])C2([H])[H]

$$$$
52:0:0
     RDKit          3D

 57 61  0  0  1  0  0  0  0  0999 V2000
    0.4351    7.8661    5.2678 C   0  0  0  0  0  0  0  0  0  0  0  0
    0.7700    6.5186    4.6243 C   0  0  0  0  0  0  0  0  0  0  0  0
   -0.1815    5.5523    5.0493 O   0  0  0  0  0  0  0  0  0  0  0  0
   -0.0151    4.2867    4.5490 C   0  0  0  0  0  0  0  0  0  0  0  0
    0.9743    3.4440    4.9670 C   0  0  0  0  0  0  0  0  0  0  0  0
    1.7771    3.8379    6.1978 C   0  0  2  0  0  0  0  0  0  0  0  0
    3.2785    3.9646    6.1179 C   0  0  0  0  0  0  0  0  0  0  0  0
    4.0308    4.5458    4.9283 C   0  0  0  0  0  0  0  0  0  0  0  0
    3.8146    3.5882    7.2809 C   0  0  0  0  0  0  0  0  0  0  0  0
    2.7831    3.0902    8.2707 C   0  0  0  0  0  0  0  0  0  0  0  0
    1.4653    2.9944    7.4526 C   0  0  2  0  0  0  0  0  0  0  0  0
    1.0034    1.5263    7.1850 C   0  0  1  0  0  0  0  0  0  0  0  0
    0.0595    1.0308    8.2924 C   0  0  0  0  0  0  0  0  0  0  0  0
    0.3504    1.2415    5.8008 C   0  0  0  0  0  0  0  0  0  0  0  0
    0.9878    1.9439    4.5805 C   0  0  1  0  0  0  0  0  0  0  0  0
    0.0609    1.7502    3.3591 C   0  0  0  0  0  0  0  0  0  0  0  0
   -0.9475    2.5517    3.0020 C   0  0  0  0  0  0  0  0  0  0  0  0
   -1.1131    3.8360    3.6758 C   0  0  0  0  0  0  0  0  0  0  0  0
   -2.1259    4.5225    3.5049 O   0  0  0  0  0  0  0  0  0  0  0  0
    0.5617    0.7839    2.4282 C   0  0  0  0  0  0  0  0  0  0  0  0
    1.8293    0.5738    2.7487 C   0  0  0  0  0  0  0  0  0  0  0  0
    2.9823   -0.5479    2.0698 S   0  0  0  0  0  0  0  0  0  0  0  0
    4.1343   -0.2688    3.4268 C   0  0  0  0  0  0  0  0  0  0  0  0
    3.3098    0.2497    4.6368 C   0  0  0  0  0  0  0  0  0  0  0  0
    2.6381   -1.0034    5.2612 C   0  0  0  0  0  0  0  0  0  0  0  0
    4.3182    0.8416    5.6307 C   0  0  0  0  0  0  0  0  0  0  0  0
    2.3219    1.3031    3.9798 C   0  0  2  0  0  0  0  0  0  0  0  0
    1.1825    8.6088    4.9935 H   0  0  0  0  0  0  0  0  0  0  0  0
    0.4357    7.7814    6.3561 H   0  0  0  0  0  0  0  0  0  0  0  0
   -0.5373    8.2316    4.9467 H   0  0  0  0  0  0  0  0  0  0  0  0
    0.7978    6.5795    3.5357 H   0  0  0  0  0  0  0  0  0  0  0  0
    1.7612    6.2570    4.9615 H   0  0  0  0  0  0  0  0  0  0  0  0
    1.4942    4.8381    6.5074 H   0  0  0  0  0  0  0  0  0  0  0  0
    3.9546    3.8959    4.0585 H   0  0  0  0  0  0  0  0  0  0  0  0
    5.0918    4.6696    5.1648 H   0  0  0  0  0  0  0  0  0  0  0  0
    3.6676    5.5284    4.6334 H   0  0  0  0  0  0  0  0  0  0  0  0
    4.8660    3.6369    7.5209 H   0  0  0  0  0  0  0  0  0  0  0  0
    3.0869    2.1405    8.7111 H   0  0  0  0  0  0  0  0  0  0  0  0
    2.6904    3.8256    9.0706 H   0  0  0  0  0  0  0  0  0  0  0  0
    0.6562    3.5015    7.9844 H   0  0  0  0  0  0  0  0  0  0  0  0
    1.8851    0.9146    7.2640 H   0  0  0  0  0  0  0  0  0  0  0  0
   -0.8835    1.5808    8.2799 H   0  0  0  0  0  0  0  0  0  0  0  0
    0.5027    1.1526    9.2821 H   0  0  0  0  0  0  0  0  0  0  0  0
   -0.1702   -0.0267    8.1555 H   0  0  0  0  0  0  0  0  0  0  0  0
    0.2872    0.1714    5.6180 H   0  0  0  0  0  0  0  0  0  0  0  0
   -0.6932    1.5647    5.8588 H   0  0  0  0  0  0  0  0  0  0  0  0
   -1.4970    2.3915    2.0830 H   0  0  0  0  0  0  0  0  0  0  0  0
    0.0227    0.3192    1.6125 H   0  0  0  0  0  0  0  0  0  0  0  0
    4.7226   -1.1605    3.6415 H   0  0  0  0  0  0  0  0  0  0  0  0
    4.8389    0.4934    3.1015 H   0  0  0  0  0  0  0  0  0  0  0  0
    2.2352   -0.8341    6.2533 H   0  0  0  0  0  0  0  0  0  0  0  0
    3.3568   -1.8172    5.3846 H   0  0  0  0  0  0  0  0  0  0  0  0
    1.8265   -1.3886    4.6445 H   0  0  0  0  0  0  0  0  0  0  0  0
    3.8634    1.0732    6.5850 H   0  0  0  0  0  0  0  0  0  0  0  0
    4.7821    1.7464    5.2429 H   0  0  0  0  0  0  0  0  0  0  0  0
    5.1211    0.1343    5.8470 H   0  0  0  0  0  0  0  0  0  0  0  0
    2.9193    2.1124    3.5699 H   0  0  0  0  0  0  0  0  0  0  0  0
  1  2  1  0
  1 28  1  0
  1 29  1  0
  1 30  1  0
  2  3  1  0
  2 31  1  0
  2 32  1  0
  3  4  1  0
  4 18  1  0
  4  5  2  0
  5 15  1  0
  5  6  1  0
  6 11  1  0
  6  7  1  0
  6 33  1  1
  7  8  1  0
  7  9  2  0
  8 34  1  0
  8 35  1  0
  8 36  1  0
  9 10  1  0
  9 37  1  0
 10 11  1  0
 10 38  1  0
 10 39  1  0
 11 12  1  0
 11 40  1  1
 12 13  1  0
 12 14  1  0
 12 41  1  6
 13 42  1  0
 13 43  1  0
 13 44  1  0
 15 14  1  1
 14 45  1  0
 14 46  1  0
 15 27  1  0
 15 16  1  0
 16 17  2  0
 16 20  1  0
 17 18  1  0
 17 47  1  0
 18 19  2  0
 20 21  2  0
 20 48  1  0
 21 27  1  0
 21 22  1  0
 22 23  1  0
 23 24  1  0
 23 49  1  0
 23 50  1  0
 24 25  1  0
 24 26  1  0
 24 27  1  0
 25 51  1  0
 25 52  1  0
 25 53  1  0
 26 54  1  0
 26 55  1  0
 26 56  1  0
 27 57  1  6
M  END
>  <i_m_ct_stereo_status>  (206) 
1

>  <s_m_source_file>  (206) 
/var/tmp/pbs.5076255.sched01/tmp2obefojl/44ql_32cm2.sdf

>  <i_m_source_file_index>  (206) 
44

>  <i_lp_mmshare_version>  (206) 
48012

>  <i_f3d_flags>  (206) 
0

>  <s_epik_input>  (206) 
W0NIM11DMT1bQ0hdW0NIMl1bQ0BIXShbQ0BASF0oW0NIM10pW0NIMl0yKVtDQEBIXTFDKFtDQEBdMjM0KT1DKE9bQ0gyXVtDSDNdKUMoPU8pW0NIXT1DM1tDSF09QzVbQ0BASF00QyhbQ0gyXVM1KShbQ0gzXSlbQ0gzXQ==

>  <s_epik_cmdline>  (206) 
J2VwaWtfcHl0aG9uJywgJy1waHQnLCAnMi4wJywgJy1waCcsICc3LjAnLCAnLXRuJywgJzgnLCAnLW1hJywgJzIwMCcsICctaW1hZScsICc8aW5maWxlLm1hZT4nLCAnLW9tYWUnLCAnPG91dGZpbGUubWFlPic=

>  <r_lp_tautomer_probability>  (206) 
1

>  <r_epik_Ionization_Penalty>  (206) 
0

>  <r_epik_Ionization_Penalty_Charging>  (206) 
0

>  <r_epik_Ionization_Penalty_Neutral>  (206) 
0

>  <r_epik_State_Penalty>  (206) 
-0

>  <r_epik_Charging_Adjusted_Penalty>  (206) 
0

>  <i_epik_Tot_Q>  (206) 
0

>  <i_epik_Tot_abs_Q>  (206) 
0

>  <s_lp_Force_Field>  (206) 
OPLS3e

>  <r_lp_Energy>  (206) 
55.1379

>  <b_lp_Chiralities_Consistent>  (206) 
1

>  <s_lp_Variant>  (206) 
52:0-1

>  <s_i_glide_gridfile>  (206) 
pfpi4k_grid

>  <i_i_glide_lignum>  (206) 
44

>  <i_i_glide_rotatable_bonds>  (206) 
2

>  <r_i_docking_score>  (206) 
-2.47599

>  <r_i_glide_ligand_efficiency>  (206) 
-0.0917035

>  <r_i_glide_ligand_efficiency_sa>  (206) 
-0.27511

>  <r_i_glide_ligand_efficiency_ln>  (206) 
-0.576371

>  <r_i_glide_gscore>  (206) 
-2.47599

>  <r_i_glide_lipo>  (206) 
-0.0313931

>  <r_i_glide_hbond>  (206) 
-0.16

>  <r_i_glide_metal>  (206) 
-0

>  <r_i_glide_rewards>  (206) 
-0.800729

>  <r_i_glide_evdw>  (206) 
-19.9525

>  <r_i_glide_ecoul>  (206) 
-3.52206

>  <r_i_glide_erotb>  (206) 
0.132714

>  <r_i_glide_esite>  (206) 
-0.0906526

>  <r_i_glide_emodel>  (206) 
-27.0489

>  <r_i_glide_energy>  (206) 
-23.4746

>  <r_i_glide_einternal>  (206) 
0.0174029

>  <r_i_glide_intrahb_reward>  (206) 
-0

>  <i_i_glide_confnum>  (206) 
2

>  <i_i_glide_posenum>  (206) 
25

>  <r_i_glide_eff_state_penalty>  (206) 
0

>  <ligand_id>  (206) 
52

>  <original_smiles>  (206) 
CCOC1=C2C3C(C)=CCC3C(C)CC23C(=CC1=O)C=C1SCC(C)(C)C13

>  <smiles>  (206) 
[H]C1=C2SC([H])([H])C(C([H])([H])[H])(C([H])([H])[H])C2([H])C23C1=C([H])C(=O)C(OC([H])([H])C([H])([H])[H])=C2C1([H])C(C([H])([H])[H])=C([H])C([H])([H])C1([H])C([H])(C([H])([H])[H])C3([H])[H]

$$$$
52:0:1
     RDKit          3D

 57 61  0  0  1  0  0  0  0  0999 V2000
    1.8579    6.8853    4.1671 C   0  0  0  0  0  0  0  0  0  0  0  0
    1.0265    5.7871    3.4669 C   0  0  0  0  0  0  0  0  0  0  0  0
   -0.1454    5.4881    4.2143 O   0  0  0  0  0  0  0  0  0  0  0  0
   -0.4311    4.1535    4.3662 C   0  0  0  0  0  0  0  0  0  0  0  0
    0.2477    3.3435    5.2277 C   0  0  0  0  0  0  0  0  0  0  0  0
    1.2112    3.9956    6.2049 C   0  0  2  0  0  0  0  0  0  0  0  0
    2.6729    3.6092    6.2224 C   0  0  0  0  0  0  0  0  0  0  0  0
    3.4882    3.3101    4.9720 C   0  0  0  0  0  0  0  0  0  0  0  0
    3.1407    3.6993    7.4682 C   0  0  0  0  0  0  0  0  0  0  0  0
    2.0700    4.0793    8.4688 C   0  0  0  0  0  0  0  0  0  0  0  0
    0.7363    4.0111    7.6714 C   0  0  2  0  0  0  0  0  0  0  0  0
   -0.1855    2.8276    8.0842 C   0  0  1  0  0  0  0  0  0  0  0  0
   -1.1630    3.2516    9.1922 C   0  0  0  0  0  0  0  0  0  0  0  0
   -0.9885    2.1400    6.9393 C   0  0  0  0  0  0  0  0  0  0  0  0
   -0.2457    1.9328    5.6005 C   0  0  1  0  0  0  0  0  0  0  0  0
   -1.2503    1.4877    4.5172 C   0  0  0  0  0  0  0  0  0  0  0  0
   -1.9424    2.2850    3.6970 C   0  0  0  0  0  0  0  0  0  0  0  0
   -1.6618    3.7112    3.6831 C   0  0  0  0  0  0  0  0  0  0  0  0
   -2.4252    4.5168    3.1458 O   0  0  0  0  0  0  0  0  0  0  0  0
   -1.1536    0.0908    4.2257 C   0  0  0  0  0  0  0  0  0  0  0  0
   -0.0024   -0.3242    4.7319 C   0  0  0  0  0  0  0  0  0  0  0  0
    0.6741   -1.9322    4.7885 S   0  0  0  0  0  0  0  0  0  0  0  0
    1.9538   -1.4091    5.9464 C   0  0  0  0  0  0  0  0  0  0  0  0
    1.4219   -0.1458    6.6805 C   0  0  0  0  0  0  0  0  0  0  0  0
    0.4269   -0.6675    7.7523 C   0  0  0  0  0  0  0  0  0  0  0  0
    2.6290    0.5022    7.3720 C   0  0  0  0  0  0  0  0  0  0  0  0
    0.7775    0.7106    5.5108 C   0  0  2  0  0  0  0  0  0  0  0  0
    2.7269    7.1542    3.5665 H   0  0  0  0  0  0  0  0  0  0  0  0
    2.2365    6.6052    5.1508 H   0  0  0  0  0  0  0  0  0  0  0  0
    1.2525    7.7835    4.2991 H   0  0  0  0  0  0  0  0  0  0  0  0
    0.7145    6.1465    2.4871 H   0  0  0  0  0  0  0  0  0  0  0  0
    1.6123    4.8940    3.2734 H   0  0  0  0  0  0  0  0  0  0  0  0
    1.2526    5.0429    5.9651 H   0  0  0  0  0  0  0  0  0  0  0  0
    3.1710    2.3871    4.4884 H   0  0  0  0  0  0  0  0  0  0  0  0
    4.5487    3.2088    5.2083 H   0  0  0  0  0  0  0  0  0  0  0  0
    3.4051    4.1154    4.2444 H   0  0  0  0  0  0  0  0  0  0  0  0
    4.1682    3.5506    7.7536 H   0  0  0  0  0  0  0  0  0  0  0  0
    2.0888    3.4215    9.3367 H   0  0  0  0  0  0  0  0  0  0  0  0
    2.2658    5.0979    8.8083 H   0  0  0  0  0  0  0  0  0  0  0  0
    0.1748    4.9361    7.8067 H   0  0  0  0  0  0  0  0  0  0  0  0
    0.4565    2.0915    8.5349 H   0  0  0  0  0  0  0  0  0  0  0  0
   -1.8804    3.9923    8.8279 H   0  0  0  0  0  0  0  0  0  0  0  0
   -0.6405    3.6886   10.0473 H   0  0  0  0  0  0  0  0  0  0  0  0
   -1.7343    2.3921    9.5549 H   0  0  0  0  0  0  0  0  0  0  0  0
   -1.4049    1.1937    7.2820 H   0  0  0  0  0  0  0  0  0  0  0  0
   -1.8647    2.7626    6.7338 H   0  0  0  0  0  0  0  0  0  0  0  0
   -2.5683    1.8892    2.9032 H   0  0  0  0  0  0  0  0  0  0  0  0
   -1.8769   -0.5073    3.6920 H   0  0  0  0  0  0  0  0  0  0  0  0
    2.2417   -2.2200    6.6153 H   0  0  0  0  0  0  0  0  0  0  0  0
    2.8404   -1.1589    5.3672 H   0  0  0  0  0  0  0  0  0  0  0  0
    0.1665    0.0712    8.5015 H   0  0  0  0  0  0  0  0  0  0  0  0
    0.8547   -1.4998    8.3157 H   0  0  0  0  0  0  0  0  0  0  0  0
   -0.5005   -1.0241    7.3071 H   0  0  0  0  0  0  0  0  0  0  0  0
    2.3355    1.2899    8.0531 H   0  0  0  0  0  0  0  0  0  0  0  0
    3.3313    0.9163    6.6510 H   0  0  0  0  0  0  0  0  0  0  0  0
    3.1760   -0.2244    7.9750 H   0  0  0  0  0  0  0  0  0  0  0  0
    1.5767    0.9962    4.8300 H   0  0  0  0  0  0  0  0  0  0  0  0
  1  2  1  0
  1 28  1  0
  1 29  1  0
  1 30  1  0
  2  3  1  0
  2 31  1  0
  2 32  1  0
  3  4  1  0
  4 18  1  0
  4  5  2  0
  5 15  1  0
  5  6  1  0
  6 11  1  0
  6  7  1  0
  6 33  1  6
  7  8  1  0
  7  9  2  0
  8 34  1  0
  8 35  1  0
  8 36  1  0
  9 10  1  0
  9 37  1  0
 10 11  1  0
 10 38  1  0
 10 39  1  0
 11 12  1  0
 11 40  1  6
 12 13  1  0
 12 14  1  0
 12 41  1  1
 13 42  1  0
 13 43  1  0
 13 44  1  0
 15 14  1  1
 14 45  1  0
 14 46  1  0
 15 27  1  0
 15 16  1  0
 16 17  2  0
 16 20  1  0
 17 18  1  0
 17 47  1  0
 18 19  2  0
 20 21  2  0
 20 48  1  0
 21 27  1  0
 21 22  1  0
 22 23  1  0
 23 24  1  0
 23 49  1  0
 23 50  1  0
 24 25  1  0
 24 26  1  0
 24 27  1  0
 25 51  1  0
 25 52  1  0
 25 53  1  0
 26 54  1  0
 26 55  1  0
 26 56  1  0
 27 57  1  6
M  END
>  <i_m_ct_stereo_status>  (207) 
1

>  <s_m_source_file>  (207) 
/var/tmp/pbs.5076255.sched01/tmp2obefojl/44ql_32cm2.sdf

>  <i_m_source_file_index>  (207) 
44

>  <i_lp_mmshare_version>  (207) 
48012

>  <i_f3d_flags>  (207) 
0

>  <s_epik_input>  (207) 
W0NIM11DMT1bQ0hdW0NIMl1bQ0BIXShbQ0BASF0oW0NIM10pW0NIMl0yKVtDQEBIXTFDKFtDQEBdMjM0KT1DKE9bQ0gyXVtDSDNdKUMoPU8pW0NIXT1DM1tDSF09QzVbQ0BASF00QyhbQ0gyXVM1KShbQ0gzXSlbQ0gzXQ==

>  <s_epik_cmdline>  (207) 
J2VwaWtfcHl0aG9uJywgJy1waHQnLCAnMi4wJywgJy1waCcsICc3LjAnLCAnLXRuJywgJzgnLCAnLW1hJywgJzIwMCcsICctaW1hZScsICc8aW5maWxlLm1hZT4nLCAnLW9tYWUnLCAnPG91dGZpbGUubWFlPic=

>  <r_lp_tautomer_probability>  (207) 
1

>  <r_epik_Ionization_Penalty>  (207) 
0

>  <r_epik_Ionization_Penalty_Charging>  (207) 
0

>  <r_epik_Ionization_Penalty_Neutral>  (207) 
0

>  <r_epik_State_Penalty>  (207) 
-0

>  <r_epik_Charging_Adjusted_Penalty>  (207) 
0

>  <i_epik_Tot_Q>  (207) 
0

>  <i_epik_Tot_abs_Q>  (207) 
0

>  <s_lp_Force_Field>  (207) 
OPLS3e

>  <r_lp_Energy>  (207) 
55.1379

>  <b_lp_Chiralities_Consistent>  (207) 
1

>  <s_lp_Variant>  (207) 
52:0-1

>  <s_i_glide_gridfile>  (207) 
pfpi4k_grid

>  <i_i_glide_lignum>  (207) 
44

>  <i_i_glide_rotatable_bonds>  (207) 
2

>  <r_i_docking_score>  (207) 
-2.40488

>  <r_i_glide_ligand_efficiency>  (207) 
-0.0890697

>  <r_i_glide_ligand_efficiency_sa>  (207) 
-0.267209

>  <r_i_glide_ligand_efficiency_ln>  (207) 
-0.559817

>  <r_i_glide_gscore>  (207) 
-2.40488

>  <r_i_glide_lipo>  (207) 
-0.00240212

>  <r_i_glide_hbond>  (207) 
-0.16

>  <r_i_glide_metal>  (207) 
-0

>  <r_i_glide_rewards>  (207) 
-0.800729

>  <r_i_glide_evdw>  (207) 
-19.149

>  <r_i_glide_ecoul>  (207) 
-3.62591

>  <r_i_glide_erotb>  (207) 
0.132714

>  <r_i_glide_esite>  (207) 
-0.0731271

>  <r_i_glide_emodel>  (207) 
-25.7144

>  <r_i_glide_energy>  (207) 
-22.7749

>  <r_i_glide_einternal>  (207) 
0.297526

>  <r_i_glide_intrahb_reward>  (207) 
-0

>  <i_i_glide_confnum>  (207) 
2

>  <i_i_glide_posenum>  (207) 
13

>  <r_i_glide_eff_state_penalty>  (207) 
0

>  <ligand_id>  (207) 
52

>  <original_smiles>  (207) 
CCOC1=C2C3C(C)=CCC3C(C)CC23C(=CC1=O)C=C1SCC(C)(C)C13

>  <smiles>  (207) 
[H]C1=C2SC([H])([H])C(C([H])([H])[H])(C([H])([H])[H])C2([H])C23C1=C([H])C(=O)C(OC([H])([H])C([H])([H])[H])=C2C1([H])C(C([H])([H])[H])=C([H])C([H])([H])C1([H])C([H])(C([H])([H])[H])C3([H])[H]

$$$$
52:0:2
     RDKit          3D

 57 61  0  0  1  0  0  0  0  0999 V2000
    0.7396    5.9771    3.2199 C   0  0  0  0  0  0  0  0  0  0  0  0
    0.3111    5.9334    4.6915 C   0  0  0  0  0  0  0  0  0  0  0  0
   -0.6381    4.8929    4.9444 O   0  0  0  0  0  0  0  0  0  0  0  0
   -0.3624    3.6516    4.4286 C   0  0  0  0  0  0  0  0  0  0  0  0
    0.7116    2.9111    4.8203 C   0  0  0  0  0  0  0  0  0  0  0  0
    1.4600    3.3416    6.0748 C   0  0  2  0  0  0  0  0  0  0  0  0
    2.9379    3.6388    6.0202 C   0  0  0  0  0  0  0  0  0  0  0  0
    3.6320    4.3643    4.8710 C   0  0  0  0  0  0  0  0  0  0  0  0
    3.5017    3.2742    7.1739 C   0  0  0  0  0  0  0  0  0  0  0  0
    2.5274    2.6082    8.1223 C   0  0  0  0  0  0  0  0  0  0  0  0
    1.2403    2.4003    7.2745 C   0  0  2  0  0  0  0  0  0  0  0  0
    0.9534    0.9020    6.9255 C   0  0  1  0  0  0  0  0  0  0  0  0
    0.0462    0.2623    7.9857 C   0  0  0  0  0  0  0  0  0  0  0  0
    0.3528    0.6110    5.5173 C   0  0  0  0  0  0  0  0  0  0  0  0
    0.9206    1.4482    4.3462 C   0  0  1  0  0  0  0  0  0  0  0  0
    0.0549    1.2232    3.0929 C   0  0  0  0  0  0  0  0  0  0  0  0
   -1.0353    1.9283    2.7405 C   0  0  0  0  0  0  0  0  0  0  0  0
   -1.3714    3.1365    3.4832 C   0  0  0  0  0  0  0  0  0  0  0  0
   -2.4534    3.7118    3.3053 O   0  0  0  0  0  0  0  0  0  0  0  0
    0.6800    0.3646    2.1341 C   0  0  0  0  0  0  0  0  0  0  0  0
    1.9562    0.2884    2.4750 C   0  0  0  0  0  0  0  0  0  0  0  0
    3.2407   -0.6731    1.7647 S   0  0  0  0  0  0  0  0  0  0  0  0
    4.3291   -0.3303    3.1615 C   0  0  0  0  0  0  0  0  0  0  0  0
    3.4258    0.0385    4.3718 C   0  0  0  0  0  0  0  0  0  0  0  0
    2.8946   -1.3158    4.9231 C   0  0  0  0  0  0  0  0  0  0  0  0
    4.3473    0.6900    5.4125 C   0  0  0  0  0  0  0  0  0  0  0  0
    2.3374    1.0060    3.7474 C   0  0  2  0  0  0  0  0  0  0  0  0
    1.4654    6.7620    3.0504 H   0  0  0  0  0  0  0  0  0  0  0  0
   -0.1165    6.1448    2.5653 H   0  0  0  0  0  0  0  0  0  0  0  0
    1.1984    5.0526    2.8901 H   0  0  0  0  0  0  0  0  0  0  0  0
    1.1748    5.8536    5.3416 H   0  0  0  0  0  0  0  0  0  0  0  0
   -0.1533    6.8867    4.9654 H   0  0  0  0  0  0  0  0  0  0  0  0
    1.0399    4.2670    6.4213 H   0  0  0  0  0  0  0  0  0  0  0  0
    3.6608    3.7678    3.9614 H   0  0  0  0  0  0  0  0  0  0  0  0
    4.6627    4.6133    5.1298 H   0  0  0  0  0  0  0  0  0  0  0  0
    3.1464    5.3061    4.6248 H   0  0  0  0  0  0  0  0  0  0  0  0
    4.5354    3.4493    7.4369 H   0  0  0  0  0  0  0  0  0  0  0  0
    2.9365    1.6854    8.5313 H   0  0  0  0  0  0  0  0  0  0  0  0
    2.3307    3.2983    8.9440 H   0  0  0  0  0  0  0  0  0  0  0  0
    0.3667    2.7689    7.8130 H   0  0  0  0  0  0  0  0  0  0  0  0
    1.8950    0.3900    6.9942 H   0  0  0  0  0  0  0  0  0  0  0  0
   -0.9484    0.7135    7.9712 H   0  0  0  0  0  0  0  0  0  0  0  0
    0.4559    0.3928    8.9891 H   0  0  0  0  0  0  0  0  0  0  0  0
   -0.0632   -0.8080    7.7970 H   0  0  0  0  0  0  0  0  0  0  0  0
    0.4137   -0.4467    5.2721 H   0  0  0  0  0  0  0  0  0  0  0  0
   -0.7246    0.8191    5.5627 H   0  0  0  0  0  0  0  0  0  0  0  0
   -1.5237    1.7442    1.7920 H   0  0  0  0  0  0  0  0  0  0  0  0
    0.2080   -0.1316    1.3049 H   0  0  0  0  0  0  0  0  0  0  0  0
    5.0103   -1.1596    3.3451 H   0  0  0  0  0  0  0  0  0  0  0  0
    4.9472    0.5182    2.8846 H   0  0  0  0  0  0  0  0  0  0  0  0
    2.4583   -1.2404    5.9113 H   0  0  0  0  0  0  0  0  0  0  0  0
    3.6989   -2.0449    5.0263 H   0  0  0  0  0  0  0  0  0  0  0  0
    2.1426   -1.7558    4.2708 H   0  0  0  0  0  0  0  0  0  0  0  0
    3.8506    0.8258    6.3642 H   0  0  0  0  0  0  0  0  0  0  0  0
    4.7094    1.6599    5.0731 H   0  0  0  0  0  0  0  0  0  0  0  0
    5.2215    0.0703    5.6166 H   0  0  0  0  0  0  0  0  0  0  0  0
    2.8450    1.8968    3.3877 H   0  0  0  0  0  0  0  0  0  0  0  0
  1  2  1  0
  1 28  1  0
  1 29  1  0
  1 30  1  0
  2  3  1  0
  2 31  1  0
  2 32  1  0
  3  4  1  0
  4 18  1  0
  4  5  2  0
  5 15  1  0
  5  6  1  0
  6 11  1  0
  6  7  1  0
  6 33  1  1
  7  8  1  0
  7  9  2  0
  8 34  1  0
  8 35  1  0
  8 36  1  0
  9 10  1  0
  9 37  1  0
 10 11  1  0
 10 38  1  0
 10 39  1  0
 11 12  1  0
 11 40  1  1
 12 13  1  0
 12 14  1  0
 12 41  1  6
 13 42  1  0
 13 43  1  0
 13 44  1  0
 15 14  1  1
 14 45  1  0
 14 46  1  0
 15 27  1  0
 15 16  1  0
 16 17  2  0
 16 20  1  0
 17 18  1  0
 17 47  1  0
 18 19  2  0
 20 21  2  0
 20 48  1  0
 21 27  1  0
 21 22  1  0
 22 23  1  0
 23 24  1  0
 23 49  1  0
 23 50  1  0
 24 25  1  0
 24 26  1  0
 24 27  1  0
 25 51  1  0
 25 52  1  0
 25 53  1  0
 26 54  1  0
 26 55  1  0
 26 56  1  0
 27 57  1  6
M  END
>  <i_m_ct_stereo_status>  (208) 
1

>  <s_m_source_file>  (208) 
/var/tmp/pbs.5076255.sched01/tmp2obefojl/44ql_32cm2.sdf

>  <i_m_source_file_index>  (208) 
44

>  <i_lp_mmshare_version>  (208) 
48012

>  <i_f3d_flags>  (208) 
0

>  <s_epik_input>  (208) 
W0NIM11DMT1bQ0hdW0NIMl1bQ0BIXShbQ0BASF0oW0NIM10pW0NIMl0yKVtDQEBIXTFDKFtDQEBdMjM0KT1DKE9bQ0gyXVtDSDNdKUMoPU8pW0NIXT1DM1tDSF09QzVbQ0BASF00QyhbQ0gyXVM1KShbQ0gzXSlbQ0gzXQ==

>  <s_epik_cmdline>  (208) 
J2VwaWtfcHl0aG9uJywgJy1waHQnLCAnMi4wJywgJy1waCcsICc3LjAnLCAnLXRuJywgJzgnLCAnLW1hJywgJzIwMCcsICctaW1hZScsICc8aW5maWxlLm1hZT4nLCAnLW9tYWUnLCAnPG91dGZpbGUubWFlPic=

>  <r_lp_tautomer_probability>  (208) 
1

>  <r_epik_Ionization_Penalty>  (208) 
0

>  <r_epik_Ionization_Penalty_Charging>  (208) 
0

>  <r_epik_Ionization_Penalty_Neutral>  (208) 
0

>  <r_epik_State_Penalty>  (208) 
-0

>  <r_epik_Charging_Adjusted_Penalty>  (208) 
0

>  <i_epik_Tot_Q>  (208) 
0

>  <i_epik_Tot_abs_Q>  (208) 
0

>  <s_lp_Force_Field>  (208) 
OPLS3e

>  <r_lp_Energy>  (208) 
55.1379

>  <b_lp_Chiralities_Consistent>  (208) 
1

>  <s_lp_Variant>  (208) 
52:0-1

>  <s_i_glide_gridfile>  (208) 
pfpi4k_grid

>  <i_i_glide_lignum>  (208) 
44

>  <i_i_glide_rotatable_bonds>  (208) 
2

>  <r_i_docking_score>  (208) 
-2.22445

>  <r_i_glide_ligand_efficiency>  (208) 
-0.0823872

>  <r_i_glide_ligand_efficiency_sa>  (208) 
-0.247161

>  <r_i_glide_ligand_efficiency_ln>  (208) 
-0.517816

>  <r_i_glide_gscore>  (208) 
-2.22445

>  <r_i_glide_lipo>  (208) 
-0.0697285

>  <r_i_glide_hbond>  (208) 
0

>  <r_i_glide_metal>  (208) 
-0

>  <r_i_glide_rewards>  (208) 
-0.800729

>  <r_i_glide_evdw>  (208) 
-22.6454

>  <r_i_glide_ecoul>  (208) 
-1.93782

>  <r_i_glide_erotb>  (208) 
0.132714

>  <r_i_glide_esite>  (208) 
-0.0637666

>  <r_i_glide_emodel>  (208) 
-26.9796

>  <r_i_glide_energy>  (208) 
-24.5832

>  <r_i_glide_einternal>  (208) 
1.32578

>  <r_i_glide_intrahb_reward>  (208) 
-0

>  <i_i_glide_confnum>  (208) 
1

>  <i_i_glide_posenum>  (208) 
7

>  <r_i_glide_eff_state_penalty>  (208) 
0

>  <ligand_id>  (208) 
52

>  <original_smiles>  (208) 
CCOC1=C2C3C(C)=CCC3C(C)CC23C(=CC1=O)C=C1SCC(C)(C)C13

>  <smiles>  (208) 
[H]C1=C2SC([H])([H])C(C([H])([H])[H])(C([H])([H])[H])C2([H])C23C1=C([H])C(=O)C(OC([H])([H])C([H])([H])[H])=C2C1([H])C(C([H])([H])[H])=C([H])C([H])([H])C1([H])C([H])(C([H])([H])[H])C3([H])[H]

$$$$
53:0:0
     RDKit          3D

 57 63  0  0  1  0  0  0  0  0999 V2000
    3.0562   -8.3076    6.3724 C   0  0  0  0  0  0  0  0  0  0  0  0
    2.4068   -7.9161    5.1406 O   0  0  0  0  0  0  0  0  0  0  0  0
    2.3330   -8.7442    3.9872 C   0  0  1  0  0  0  0  0  0  0  0  0
    2.4699  -10.2494    4.3611 C   0  0  2  0  0  0  0  0  0  0  0  0
    1.9211  -11.2466    3.3489 C   0  0  0  0  0  0  0  0  0  0  0  0
    0.5887  -10.8986    4.0080 C   0  0  2  0  0  0  0  0  0  0  0  0
   -0.0538   -9.5594    3.6386 C   0  0  0  0  0  0  0  0  0  0  0  0
    0.9859   -8.5374    3.3908 N   0  0  0  0  0  0  0  0  0  0  0  0
    0.6633   -7.4125    2.6890 C   0  0  0  0  0  0  0  0  0  0  0  0
   -0.4976   -7.1718    2.3182 O   0  0  0  0  0  0  0  0  0  0  0  0
    1.7616   -6.4079    2.2980 C   0  0  1  0  0  0  0  0  0  0  0  0
    1.4488   -5.8591    1.0192 O   0  0  0  0  0  0  0  0  0  0  0  0
    1.9108   -5.2020    3.2757 C   0  0  1  0  0  0  0  0  0  0  0  0
    0.9558   -5.1545    4.4016 C   0  0  0  0  0  0  0  0  0  0  0  0
    0.2053   -5.1190    5.2830 N   0  0  0  0  0  0  0  0  0  0  0  0
    3.3688   -5.2053    3.7524 C   0  0  0  0  0  0  0  0  0  0  0  0
    4.1477   -6.0118    2.7039 C   0  0  1  0  0  0  0  0  0  0  0  0
    4.8271   -5.1841    1.6504 C   0  0  0  0  0  0  0  0  0  0  0  0
    4.3064   -4.0787    0.9470 C   0  0  0  0  0  0  0  0  0  0  0  0
    5.1490   -3.4269    0.0289 C   0  0  0  0  0  0  0  0  0  0  0  0
    6.4797   -3.8699   -0.1629 C   0  0  0  0  0  0  0  0  0  0  0  0
    6.9865   -4.9806    0.5579 C   0  0  0  0  0  0  0  0  0  0  0  0
    6.1310   -5.6296    1.4615 C   0  0  0  0  0  0  0  0  0  0  0  0
    6.4149   -6.7465    2.2720 N   0  0  0  0  0  0  0  0  0  0  0  0
    7.7518   -7.1198    2.6906 C   0  0  0  0  0  0  0  0  0  0  0  0
    5.3317   -6.8247    3.2491 C   0  0  2  0  0  0  0  0  0  0  0  0
    4.8604   -8.2611    3.5019 C   0  0  0  0  0  0  0  0  0  0  0  0
    3.4320   -8.3444    2.9339 C   0  0  2  0  0  0  0  0  0  0  0  0
    3.1585   -7.0366    2.1522 C   0  0  1  0  0  0  0  0  0  0  0  0
    1.3762  -10.7210    5.2083 N   0  0  0  0  0  0  0  0  0  0  0  0
    2.7729   -7.5849    7.1454 H   0  0  0  0  0  0  0  0  0  0  0  0
    4.1401   -8.3056    6.3500 H   0  0  0  0  0  0  0  0  0  0  0  0
    2.7503   -9.2813    6.7611 H   0  0  0  0  0  0  0  0  0  0  0  0
    3.4510  -10.5537    4.7207 H   0  0  0  0  0  0  0  0  0  0  0  0
    2.0033  -10.9038    2.3147 H   0  0  0  0  0  0  0  0  0  0  0  0
    2.2691  -12.2705    3.4940 H   0  0  0  0  0  0  0  0  0  0  0  0
   -0.0883  -11.7481    4.0842 H   0  0  0  0  0  0  0  0  0  0  0  0
   -0.6938   -9.7013    2.7615 H   0  0  0  0  0  0  0  0  0  0  0  0
   -0.7092   -9.2148    4.4447 H   0  0  0  0  0  0  0  0  0  0  0  0
    2.2122   -5.3941    0.7034 H   0  0  0  0  0  0  0  0  0  0  0  0
    1.7357   -4.2790    2.7207 H   0  0  0  0  0  0  0  0  0  0  0  0
    3.7563   -4.1995    3.9208 H   0  0  0  0  0  0  0  0  0  0  0  0
    3.4211   -5.7169    4.7130 H   0  0  0  0  0  0  0  0  0  0  0  0
    3.3013   -3.7237    1.1129 H   0  0  0  0  0  0  0  0  0  0  0  0
    4.7793   -2.5885   -0.5388 H   0  0  0  0  0  0  0  0  0  0  0  0
    7.1153   -3.3704   -0.8753 H   0  0  0  0  0  0  0  0  0  0  0  0
    8.0012   -5.3259    0.4077 H   0  0  0  0  0  0  0  0  0  0  0  0
    8.4819   -7.1129    1.8834 H   0  0  0  0  0  0  0  0  0  0  0  0
    7.7177   -8.1372    3.0799 H   0  0  0  0  0  0  0  0  0  0  0  0
    8.0943   -6.4888    3.5093 H   0  0  0  0  0  0  0  0  0  0  0  0
    5.6945   -6.3756    4.1721 H   0  0  0  0  0  0  0  0  0  0  0  0
    5.5085   -8.9863    3.0000 H   0  0  0  0  0  0  0  0  0  0  0  0
    4.9485   -8.4755    4.5487 H   0  0  0  0  0  0  0  0  0  0  0  0
    3.4336   -9.1313    2.1758 H   0  0  0  0  0  0  0  0  0  0  0  0
    3.3991   -7.2381    1.1033 H   0  0  0  0  0  0  0  0  0  0  0  0
    1.5878  -11.5917    5.6773 H   0  0  0  0  0  0  0  0  0  0  0  0
    1.0033  -10.0053    5.8136 H   0  0  0  0  0  0  0  0  0  0  0  0
  1  2  1  0
  1 31  1  0
  1 32  1  0
  1 33  1  0
  3  2  1  1
  3  8  1  0
  3 28  1  0
  3  4  1  0
  4 30  1  0
  4  5  1  0
  4 34  1  1
  5  6  1  0
  5 35  1  0
  5 36  1  0
  6  7  1  0
  6 30  1  0
  6 37  1  1
  7  8  1  0
  7 38  1  0
  7 39  1  0
  8  9  1  0
  9 10  2  0
  9 11  1  0
 11 29  1  0
 11 12  1  6
 11 13  1  0
 12 40  1  0
 13 14  1  0
 13 16  1  0
 13 41  1  6
 14 15  3  0
 17 16  1  1
 16 42  1  0
 16 43  1  0
 17 26  1  0
 17 29  1  0
 17 18  1  0
 18 23  2  0
 18 19  1  0
 19 20  2  0
 19 44  1  0
 20 21  1  0
 20 45  1  0
 21 22  2  0
 21 46  1  0
 22 23  1  0
 22 47  1  0
 23 24  1  0
 24 25  1  0
 24 26  1  0
 25 48  1  0
 25 49  1  0
 25 50  1  0
 26 27  1  0
 26 51  1  1
 27 28  1  0
 27 52  1  0
 27 53  1  0
 28 29  1  0
 28 54  1  6
 29 55  1  6
 30 56  1  0
 30 57  1  0
M  CHG  1  30   1
M  END
>  <i_m_ct_stereo_status>  (209) 
1

>  <s_m_source_file>  (209) 
/var/tmp/pbs.5076255.sched01/tmpyc7t0a4i/88yk12rjyo.sdf

>  <i_m_source_file_index>  (209) 
1

>  <i_lp_mmshare_version>  (209) 
48012

>  <i_f3d_flags>  (209) 
0

>  <s_epik_input>  (209) 
W2NIXTFbY0hdW2NIXVtjSF1jKGMxW0NAXTIzNClOKFtDSDNdKVtDQEBIXTNbQ0gyXVtDQEhdNVtDQF02KE9bQ0gzXSlbQ0BASF03W0NIMl1bQ0BASF0oW05IXTcpW0NIMl1ONkMoPU8pW0NAXShbT0hdKShbQ0BASF00NSlbQ0BASF0oQyNOKVtDSDJdMg==

>  <s_epik_cmdline>  (209) 
J2VwaWtfcHl0aG9uJywgJy1waHQnLCAnMi4wJywgJy1waCcsICc3LjAnLCAnLXRuJywgJzgnLCAnLW1hJywgJzIwMCcsICctaW1hZScsICc8aW5maWxlLm1hZT4nLCAnLW9tYWUnLCAnPG91dGZpbGUubWFlPic=

>  <r_epik_Ionization_Penalty>  (209) 
0.279937

>  <r_epik_Ionization_Penalty_Charging>  (209) 
0.272737

>  <r_epik_Ionization_Penalty_Neutral>  (209) 
0.00720054

>  <r_epik_State_Penalty>  (209) 
0.264954

>  <r_epik_Charging_Adjusted_Penalty>  (209) 
0.537691

>  <i_epik_Tot_Q>  (209) 
1

>  <i_epik_Tot_abs_Q>  (209) 
1

>  <s_lp_Force_Field>  (209) 
OPLS3e

>  <r_lp_Energy>  (209) 
81.858

>  <b_lp_Chiralities_Consistent>  (209) 
1

>  <s_lp_Variant>  (209) 
53:0-1

>  <s_i_glide_gridfile>  (209) 
pfpi4k_grid

>  <i_i_glide_lignum>  (209) 
1

>  <i_i_glide_rotatable_bonds>  (209) 
3

>  <r_i_docking_score>  (209) 
-4.30318

>  <r_i_glide_ligand_efficiency>  (209) 
-0.143439

>  <r_i_glide_ligand_efficiency_sa>  (209) 
-0.445699

>  <r_i_glide_ligand_efficiency_ln>  (209) 
-0.97773

>  <r_i_glide_gscore>  (209) 
-4.30318

>  <r_i_glide_lipo>  (209) 
-0.525516

>  <r_i_glide_hbond>  (209) 
-0.20351

>  <r_i_glide_metal>  (209) 
-0

>  <r_i_glide_rewards>  (209) 
-0.67059

>  <r_i_glide_evdw>  (209) 
-22.5275

>  <r_i_glide_ecoul>  (209) 
-10.9004

>  <r_i_glide_erotb>  (209) 
0

>  <r_i_glide_esite>  (209) 
-0.142128

>  <r_i_glide_emodel>  (209) 
-41.474

>  <r_i_glide_energy>  (209) 
-33.4279

>  <r_i_glide_einternal>  (209) 
9.07013

>  <r_i_glide_intrahb_reward>  (209) 
-0

>  <i_i_glide_confnum>  (209) 
2

>  <i_i_glide_posenum>  (209) 
1

>  <r_i_glide_eff_state_penalty>  (209) 
0

>  <ligand_id>  (209) 
53

>  <original_smiles>  (209) 
COC12C3CC(CN1C(=O)C1(O)C(C#N)CC45c6ccccc6N(C)C4CC2C15)N3

>  <smiles>  (209) 
[H]OC12C(=O)N3C([H])([H])C4([H])C([H])([H])C([H])(C3(OC([H])([H])[H])C3([H])C([H])([H])C5([H])N(C([H])([H])[H])c6c([H])c([H])c([H])c([H])c6C5(C([H])([H])C1([H])C#N)C23[H])[N+]4([H])[H]

$$$$
53:0:1
     RDKit          3D

 57 63  0  0  1  0  0  0  0  0999 V2000
    4.0532   -9.6631    6.0588 C   0  0  0  0  0  0  0  0  0  0  0  0
    3.6773   -9.0015    4.8513 O   0  0  0  0  0  0  0  0  0  0  0  0
    2.3973   -9.1747    4.2932 C   0  0  1  0  0  0  0  0  0  0  0  0
    2.2169  -10.6227    3.7569 C   0  0  2  0  0  0  0  0  0  0  0  0
    0.7736  -11.0555    3.4554 C   0  0  0  0  0  0  0  0  0  0  0  0
    0.7244  -11.2658    4.9696 C   0  0  2  0  0  0  0  0  0  0  0  0
    0.6207  -10.0365    5.8788 C   0  0  0  0  0  0  0  0  0  0  0  0
    1.3512   -8.8910    5.2953 N   0  0  0  0  0  0  0  0  0  0  0  0
    1.0837   -7.6239    5.7149 C   0  0  0  0  0  0  0  0  0  0  0  0
    0.2925   -7.3967    6.6313 O   0  0  0  0  0  0  0  0  0  0  0  0
    1.7389   -6.4301    4.9916 C   0  0  1  0  0  0  0  0  0  0  0  0
    0.8034   -5.3608    4.9672 O   0  0  0  0  0  0  0  0  0  0  0  0
    3.0366   -5.8859    5.6622 C   0  0  1  0  0  0  0  0  0  0  0  0
    3.4338   -6.5281    6.9354 C   0  0  0  0  0  0  0  0  0  0  0  0
    3.7389   -7.0281    7.9347 N   0  0  0  0  0  0  0  0  0  0  0  0
    4.1384   -5.9320    4.5932 C   0  0  0  0  0  0  0  0  0  0  0  0
    3.4038   -5.9801    3.2496 C   0  0  1  0  0  0  0  0  0  0  0  0
    3.2393   -4.6540    2.5764 C   0  0  0  0  0  0  0  0  0  0  0  0
    2.8736   -3.4216    3.1546 C   0  0  0  0  0  0  0  0  0  0  0  0
    2.8361   -2.2891    2.3263 C   0  0  0  0  0  0  0  0  0  0  0  0
    3.1645   -2.3931    0.9535 C   0  0  0  0  0  0  0  0  0  0  0  0
    3.5420   -3.6393    0.3910 C   0  0  0  0  0  0  0  0  0  0  0  0
    3.5596   -4.7624    1.2266 C   0  0  0  0  0  0  0  0  0  0  0  0
    3.8868   -6.0932    0.8958 N   0  0  0  0  0  0  0  0  0  0  0  0
    4.7623   -6.4033   -0.2117 C   0  0  0  0  0  0  0  0  0  0  0  0
    4.1080   -6.7917    2.1585 C   0  0  2  0  0  0  0  0  0  0  0  0
    3.5302   -8.2128    2.1830 C   0  0  0  0  0  0  0  0  0  0  0  0
    2.2933   -8.1668    3.0969 C   0  0  2  0  0  0  0  0  0  0  0  0
    2.0796   -6.6976    3.5164 C   0  0  1  0  0  0  0  0  0  0  0  0
    2.1092  -11.6202    4.8130 N   0  0  0  0  0  0  0  0  0  0  0  0
    4.9601   -9.1843    6.4328 H   0  0  0  0  0  0  0  0  0  0  0  0
    4.2967  -10.7122    5.8942 H   0  0  0  0  0  0  0  0  0  0  0  0
    3.3111   -9.5958    6.8561 H   0  0  0  0  0  0  0  0  0  0  0  0
    2.8934  -10.9204    2.9570 H   0  0  0  0  0  0  0  0  0  0  0  0
    0.1012  -10.2471    3.1313 H   0  0  0  0  0  0  0  0  0  0  0  0
    0.6897  -11.9816    2.8680 H   0  0  0  0  0  0  0  0  0  0  0  0
    0.1218  -12.1274    5.2602 H   0  0  0  0  0  0  0  0  0  0  0  0
   -0.4323   -9.7936    6.0439 H   0  0  0  0  0  0  0  0  0  0  0  0
    1.0298  -10.2502    6.8670 H   0  0  0  0  0  0  0  0  0  0  0  0
    1.2028   -4.6238    4.5328 H   0  0  0  0  0  0  0  0  0  0  0  0
    2.8705   -4.8427    5.9350 H   0  0  0  0  0  0  0  0  0  0  0  0
    4.8502   -5.1113    4.6862 H   0  0  0  0  0  0  0  0  0  0  0  0
    4.7194   -6.8455    4.7130 H   0  0  0  0  0  0  0  0  0  0  0  0
    2.6529   -3.3328    4.2035 H   0  0  0  0  0  0  0  0  0  0  0  0
    2.5525   -1.3269    2.7232 H   0  0  0  0  0  0  0  0  0  0  0  0
    3.1382   -1.5150    0.3298 H   0  0  0  0  0  0  0  0  0  0  0  0
    3.8110   -3.7119   -0.6568 H   0  0  0  0  0  0  0  0  0  0  0  0
    4.5441   -5.8150   -1.0907 H   0  0  0  0  0  0  0  0  0  0  0  0
    4.6179   -7.4570   -0.4691 H   0  0  0  0  0  0  0  0  0  0  0  0
    5.8148   -6.2422    0.0307 H   0  0  0  0  0  0  0  0  0  0  0  0
    5.1855   -6.8304    2.3376 H   0  0  0  0  0  0  0  0  0  0  0  0
    3.2448   -8.5432    1.1858 H   0  0  0  0  0  0  0  0  0  0  0  0
    4.2862   -8.9265    2.5212 H   0  0  0  0  0  0  0  0  0  0  0  0
    1.4183   -8.4514    2.5062 H   0  0  0  0  0  0  0  0  0  0  0  0
    1.3172   -6.2885    2.8453 H   0  0  0  0  0  0  0  0  0  0  0  0
    2.1764  -12.5524    4.4347 H   0  0  0  0  0  0  0  0  0  0  0  0
    2.6431  -11.4263    5.6436 H   0  0  0  0  0  0  0  0  0  0  0  0
  1  2  1  0
  1 31  1  0
  1 32  1  0
  1 33  1  0
  3  2  1  1
  3  8  1  0
  3 28  1  0
  3  4  1  0
  4 30  1  0
  4  5  1  0
  4 34  1  6
  5  6  1  0
  5 35  1  0
  5 36  1  0
  6  7  1  0
  6 30  1  0
  6 37  1  6
  7  8  1  0
  7 38  1  0
  7 39  1  0
  8  9  1  0
  9 10  2  0
  9 11  1  0
 11 29  1  0
 11 12  1  6
 11 13  1  0
 12 40  1  0
 13 14  1  0
 13 16  1  0
 13 41  1  1
 14 15  3  0
 17 16  1  1
 16 42  1  0
 16 43  1  0
 17 26  1  0
 17 29  1  0
 17 18  1  0
 18 23  2  0
 18 19  1  0
 19 20  2  0
 19 44  1  0
 20 21  1  0
 20 45  1  0
 21 22  2  0
 21 46  1  0
 22 23  1  0
 22 47  1  0
 23 24  1  0
 24 25  1  0
 24 26  1  0
 25 48  1  0
 25 49  1  0
 25 50  1  0
 26 27  1  0
 26 51  1  1
 27 28  1  0
 27 52  1  0
 27 53  1  0
 28 29  1  0
 28 54  1  6
 29 55  1  6
 30 56  1  0
 30 57  1  0
M  CHG  1  30   1
M  END
>  <i_m_ct_stereo_status>  (210) 
1

>  <s_m_source_file>  (210) 
/var/tmp/pbs.5076255.sched01/tmpyc7t0a4i/88yk12rjyo.sdf

>  <i_m_source_file_index>  (210) 
1

>  <i_lp_mmshare_version>  (210) 
48012

>  <i_f3d_flags>  (210) 
0

>  <s_epik_input>  (210) 
W2NIXTFbY0hdW2NIXVtjSF1jKGMxW0NAXTIzNClOKFtDSDNdKVtDQEBIXTNbQ0gyXVtDQEhdNVtDQF02KE9bQ0gzXSlbQ0BASF03W0NIMl1bQ0BASF0oW05IXTcpW0NIMl1ONkMoPU8pW0NAXShbT0hdKShbQ0BASF00NSlbQ0BASF0oQyNOKVtDSDJdMg==

>  <s_epik_cmdline>  (210) 
J2VwaWtfcHl0aG9uJywgJy1waHQnLCAnMi4wJywgJy1waCcsICc3LjAnLCAnLXRuJywgJzgnLCAnLW1hJywgJzIwMCcsICctaW1hZScsICc8aW5maWxlLm1hZT4nLCAnLW9tYWUnLCAnPG91dGZpbGUubWFlPic=

>  <r_epik_Ionization_Penalty>  (210) 
0.279937

>  <r_epik_Ionization_Penalty_Charging>  (210) 
0.272737

>  <r_epik_Ionization_Penalty_Neutral>  (210) 
0.00720054

>  <r_epik_State_Penalty>  (210) 
0.264954

>  <r_epik_Charging_Adjusted_Penalty>  (210) 
0.537691

>  <i_epik_Tot_Q>  (210) 
1

>  <i_epik_Tot_abs_Q>  (210) 
1

>  <s_lp_Force_Field>  (210) 
OPLS3e

>  <r_lp_Energy>  (210) 
81.858

>  <b_lp_Chiralities_Consistent>  (210) 
1

>  <s_lp_Variant>  (210) 
53:0-1

>  <s_i_glide_gridfile>  (210) 
pfpi4k_grid

>  <i_i_glide_lignum>  (210) 
1

>  <i_i_glide_rotatable_bonds>  (210) 
3

>  <r_i_docking_score>  (210) 
-3.05167

>  <r_i_glide_ligand_efficiency>  (210) 
-0.101722

>  <r_i_glide_ligand_efficiency_sa>  (210) 
-0.316075

>  <r_i_glide_ligand_efficiency_ln>  (210) 
-0.693373

>  <r_i_glide_gscore>  (210) 
-3.05167

>  <r_i_glide_lipo>  (210) 
-0.175174

>  <r_i_glide_hbond>  (210) 
0

>  <r_i_glide_metal>  (210) 
-0

>  <r_i_glide_rewards>  (210) 
-0.719069

>  <r_i_glide_evdw>  (210) 
-19.9537

>  <r_i_glide_ecoul>  (210) 
-6.96906

>  <r_i_glide_erotb>  (210) 
0

>  <r_i_glide_esite>  (210) 
-0.114388

>  <r_i_glide_emodel>  (210) 
-35.9149

>  <r_i_glide_energy>  (210) 
-26.9227

>  <r_i_glide_einternal>  (210) 
0.413087

>  <r_i_glide_intrahb_reward>  (210) 
-0

>  <i_i_glide_confnum>  (210) 
2

>  <i_i_glide_posenum>  (210) 
34

>  <r_i_glide_eff_state_penalty>  (210) 
0

>  <ligand_id>  (210) 
53

>  <original_smiles>  (210) 
COC12C3CC(CN1C(=O)C1(O)C(C#N)CC45c6ccccc6N(C)C4CC2C15)N3

>  <smiles>  (210) 
[H]OC12C(=O)N3C([H])([H])C4([H])C([H])([H])C([H])(C3(OC([H])([H])[H])C3([H])C([H])([H])C5([H])N(C([H])([H])[H])c6c([H])c([H])c([H])c([H])c6C5(C([H])([H])C1([H])C#N)C23[H])[N+]4([H])[H]

$$$$
53:0:2
     RDKit          3D

 57 63  0  0  1  0  0  0  0  0999 V2000
    1.4726    3.6838   10.6614 C   0  0  0  0  0  0  0  0  0  0  0  0
    0.8597    2.9375    9.6110 O   0  0  0  0  0  0  0  0  0  0  0  0
   -0.4994    3.1291    9.2828 C   0  0  1  0  0  0  0  0  0  0  0  0
   -1.4257    2.5620   10.3892 C   0  0  2  0  0  0  0  0  0  0  0  0
   -2.8886    3.0250   10.3444 C   0  0  0  0  0  0  0  0  0  0  0  0
   -2.3154    4.2710   11.0088 C   0  0  2  0  0  0  0  0  0  0  0  0
   -1.5409    5.2659   10.1383 C   0  0  0  0  0  0  0  0  0  0  0  0
   -0.7882    4.5583    9.0761 N   0  0  0  0  0  0  0  0  0  0  0  0
   -0.3653    5.2228    7.9734 C   0  0  0  0  0  0  0  0  0  0  0  0
   -0.5424    6.4377    7.8526 O   0  0  0  0  0  0  0  0  0  0  0  0
    0.2873    4.4520    6.8114 C   0  0  1  0  0  0  0  0  0  0  0  0
   -0.0981    5.0846    5.6002 O   0  0  0  0  0  0  0  0  0  0  0  0
    1.8457    4.4089    6.8403 C   0  0  1  0  0  0  0  0  0  0  0  0
    2.5080    5.1729    7.9160 C   0  0  0  0  0  0  0  0  0  0  0  0
    3.0264    5.7753    8.7582 N   0  0  0  0  0  0  0  0  0  0  0  0
    2.2427    2.9233    6.8232 C   0  0  0  0  0  0  0  0  0  0  0  0
    1.0231    2.1717    6.2713 C   0  0  1  0  0  0  0  0  0  0  0  0
    1.0780    1.8809    4.8030 C   0  0  0  0  0  0  0  0  0  0  0  0
    1.5018    2.7370    3.7657 C   0  0  0  0  0  0  0  0  0  0  0  0
    1.5220    2.2205    2.4582 C   0  0  0  0  0  0  0  0  0  0  0  0
    1.1316    0.8903    2.2029 C   0  0  0  0  0  0  0  0  0  0  0  0
    0.7168    0.0403    3.2519 C   0  0  0  0  0  0  0  0  0  0  0  0
    0.6940    0.5638    4.5607 C   0  0  0  0  0  0  0  0  0  0  0  0
    0.3159   -0.0824    5.7499 N   0  0  0  0  0  0  0  0  0  0  0  0
    0.3946   -1.5271    5.9011 C   0  0  0  0  0  0  0  0  0  0  0  0
    0.8058    0.7648    6.8429 C   0  0  2  0  0  0  0  0  0  0  0  0
   -0.1690    0.8996    8.0189 C   0  0  0  0  0  0  0  0  0  0  0  0
   -0.7491    2.3249    7.9602 C   0  0  2  0  0  0  0  0  0  0  0  0
   -0.1995    2.9966    6.6877 C   0  0  1  0  0  0  0  0  0  0  0  0
   -1.4010    3.3352   11.6275 N   0  0  0  0  0  0  0  0  0  0  0  0
    2.5500    3.5743   10.5523 H   0  0  0  0  0  0  0  0  0  0  0  0
    1.2141    3.3050   11.6475 H   0  0  0  0  0  0  0  0  0  0  0  0
    1.2626    4.7519   10.6291 H   0  0  0  0  0  0  0  0  0  0  0  0
   -1.3414    1.4940   10.5969 H   0  0  0  0  0  0  0  0  0  0  0  0
   -3.2651    3.2279    9.3372 H   0  0  0  0  0  0  0  0  0  0  0  0
   -3.5864    2.4953   10.9880 H   0  0  0  0  0  0  0  0  0  0  0  0
   -2.9756    4.6757   11.7571 H   0  0  0  0  0  0  0  0  0  0  0  0
   -2.2455    5.9846    9.7141 H   0  0  0  0  0  0  0  0  0  0  0  0
   -0.8410    5.8495   10.7498 H   0  0  0  0  0  0  0  0  0  0  0  0
    0.3161    4.6372    4.8747 H   0  0  0  0  0  0  0  0  0  0  0  0
    2.2185    4.8698    5.9252 H   0  0  0  0  0  0  0  0  0  0  0  0
    3.1670    2.7413    6.2712 H   0  0  0  0  0  0  0  0  0  0  0  0
    2.4315    2.5898    7.8411 H   0  0  0  0  0  0  0  0  0  0  0  0
    1.8089    3.7497    3.9460 H   0  0  0  0  0  0  0  0  0  0  0  0
    1.8117    2.8662    1.6405 H   0  0  0  0  0  0  0  0  0  0  0  0
    1.1465    0.5235    1.1914 H   0  0  0  0  0  0  0  0  0  0  0  0
    0.4446   -0.9858    3.0527 H   0  0  0  0  0  0  0  0  0  0  0  0
   -0.0284   -2.0769    5.0672 H   0  0  0  0  0  0  0  0  0  0  0  0
   -0.1755   -1.8105    6.7911 H   0  0  0  0  0  0  0  0  0  0  0  0
    1.4173   -1.8660    6.0786 H   0  0  0  0  0  0  0  0  0  0  0  0
    1.7555    0.3480    7.1906 H   0  0  0  0  0  0  0  0  0  0  0  0
   -0.9706    0.1755    7.9259 H   0  0  0  0  0  0  0  0  0  0  0  0
    0.3372    0.6737    8.9617 H   0  0  0  0  0  0  0  0  0  0  0  0
   -1.8289    2.2484    7.8216 H   0  0  0  0  0  0  0  0  0  0  0  0
   -0.9703    2.8934    5.9152 H   0  0  0  0  0  0  0  0  0  0  0  0
   -1.9019    2.8076   12.3484 H   0  0  0  0  0  0  0  0  0  0  0  0
   -0.4892    3.7272   11.8513 H   0  0  0  0  0  0  0  0  0  0  0  0
  1  2  1  0
  1 31  1  0
  1 32  1  0
  1 33  1  0
  3  2  1  1
  3  8  1  0
  3 28  1  0
  3  4  1  0
  4 30  1  0
  4  5  1  0
  4 34  1  1
  5  6  1  0
  5 35  1  0
  5 36  1  0
  6  7  1  0
  6 30  1  0
  6 37  1  1
  7  8  1  0
  7 38  1  0
  7 39  1  0
  8  9  1  0
  9 10  2  0
  9 11  1  0
 11 29  1  0
 11 12  1  6
 11 13  1  0
 12 40  1  0
 13 14  1  0
 13 16  1  0
 13 41  1  6
 14 15  3  0
 17 16  1  1
 16 42  1  0
 16 43  1  0
 17 26  1  0
 17 29  1  0
 17 18  1  0
 18 23  2  0
 18 19  1  0
 19 20  2  0
 19 44  1  0
 20 21  1  0
 20 45  1  0
 21 22  2  0
 21 46  1  0
 22 23  1  0
 22 47  1  0
 23 24  1  0
 24 25  1  0
 24 26  1  0
 25 48  1  0
 25 49  1  0
 25 50  1  0
 26 27  1  0
 26 51  1  1
 27 28  1  0
 27 52  1  0
 27 53  1  0
 28 29  1  0
 28 54  1  6
 29 55  1  6
 30 56  1  0
 30 57  1  0
M  CHG  1  30   1
M  END
>  <i_m_ct_stereo_status>  (211) 
1

>  <s_m_source_file>  (211) 
/var/tmp/pbs.5076255.sched01/tmpyc7t0a4i/88yk12rjyo.sdf

>  <i_m_source_file_index>  (211) 
1

>  <i_lp_mmshare_version>  (211) 
48012

>  <i_f3d_flags>  (211) 
0

>  <s_epik_input>  (211) 
W2NIXTFbY0hdW2NIXVtjSF1jKGMxW0NAXTIzNClOKFtDSDNdKVtDQEBIXTNbQ0gyXVtDQEhdNVtDQF02KE9bQ0gzXSlbQ0BASF03W0NIMl1bQ0BASF0oW05IXTcpW0NIMl1ONkMoPU8pW0NAXShbT0hdKShbQ0BASF00NSlbQ0BASF0oQyNOKVtDSDJdMg==

>  <s_epik_cmdline>  (211) 
J2VwaWtfcHl0aG9uJywgJy1waHQnLCAnMi4wJywgJy1waCcsICc3LjAnLCAnLXRuJywgJzgnLCAnLW1hJywgJzIwMCcsICctaW1hZScsICc8aW5maWxlLm1hZT4nLCAnLW9tYWUnLCAnPG91dGZpbGUubWFlPic=

>  <r_epik_Ionization_Penalty>  (211) 
0.279937

>  <r_epik_Ionization_Penalty_Charging>  (211) 
0.272737

>  <r_epik_Ionization_Penalty_Neutral>  (211) 
0.00720054

>  <r_epik_State_Penalty>  (211) 
0.264954

>  <r_epik_Charging_Adjusted_Penalty>  (211) 
0.537691

>  <i_epik_Tot_Q>  (211) 
1

>  <i_epik_Tot_abs_Q>  (211) 
1

>  <s_lp_Force_Field>  (211) 
OPLS3e

>  <r_lp_Energy>  (211) 
81.858

>  <b_lp_Chiralities_Consistent>  (211) 
1

>  <s_lp_Variant>  (211) 
53:0-1

>  <s_i_glide_gridfile>  (211) 
pfpi4k_grid

>  <i_i_glide_lignum>  (211) 
1

>  <i_i_glide_rotatable_bonds>  (211) 
3

>  <r_i_docking_score>  (211) 
-3.04579

>  <r_i_glide_ligand_efficiency>  (211) 
-0.101526

>  <r_i_glide_ligand_efficiency_sa>  (211) 
-0.315466

>  <r_i_glide_ligand_efficiency_ln>  (211) 
-0.692036

>  <r_i_glide_gscore>  (211) 
-3.04579

>  <r_i_glide_lipo>  (211) 
0

>  <r_i_glide_hbond>  (211) 
-0.2

>  <r_i_glide_metal>  (211) 
-0

>  <r_i_glide_rewards>  (211) 
-0.630781

>  <r_i_glide_evdw>  (211) 
-16.525

>  <r_i_glide_ecoul>  (211) 
-8.5267

>  <r_i_glide_erotb>  (211) 
0

>  <r_i_glide_esite>  (211) 
-0.109753

>  <r_i_glide_emodel>  (211) 
-33.8512

>  <r_i_glide_energy>  (211) 
-25.0517

>  <r_i_glide_einternal>  (211) 
0.423978

>  <r_i_glide_intrahb_reward>  (211) 
-0

>  <i_i_glide_confnum>  (211) 
1

>  <i_i_glide_posenum>  (211) 
28

>  <r_i_glide_eff_state_penalty>  (211) 
0

>  <ligand_id>  (211) 
53

>  <original_smiles>  (211) 
COC12C3CC(CN1C(=O)C1(O)C(C#N)CC45c6ccccc6N(C)C4CC2C15)N3

>  <smiles>  (211) 
[H]OC12C(=O)N3C([H])([H])C4([H])C([H])([H])C([H])(C3(OC([H])([H])[H])C3([H])C([H])([H])C5([H])N(C([H])([H])[H])c6c([H])c([H])c([H])c([H])c6C5(C([H])([H])C1([H])C#N)C23[H])[N+]4([H])[H]

$$$$
53:1:0
     RDKit          3D

 56 62  0  0  1  0  0  0  0  0999 V2000
    3.8838   -7.2846    5.4159 C   0  0  0  0  0  0  0  0  0  0  0  0
    3.2763   -6.9030    4.1650 O   0  0  0  0  0  0  0  0  0  0  0  0
    3.2099   -7.7313    2.9995 C   0  0  1  0  0  0  0  0  0  0  0  0
    3.3923   -9.2409    3.3426 C   0  0  2  0  0  0  0  0  0  0  0  0
    2.8542  -10.2607    2.3366 C   0  0  0  0  0  0  0  0  0  0  0  0
    1.4960   -9.8928    2.9500 C   0  0  2  0  0  0  0  0  0  0  0  0
    0.8477   -8.5755    2.5785 C   0  0  0  0  0  0  0  0  0  0  0  0
    1.8845   -7.5462    2.3794 N   0  0  0  0  0  0  0  0  0  0  0  0
    1.5535   -6.4317    1.6728 C   0  0  0  0  0  0  0  0  0  0  0  0
    0.4171   -6.2568    1.2366 O   0  0  0  0  0  0  0  0  0  0  0  0
    2.6432   -5.3970    1.3289 C   0  0  1  0  0  0  0  0  0  0  0  0
    2.3268   -4.8310    0.0649 O   0  0  0  0  0  0  0  0  0  0  0  0
    2.7659   -4.1923    2.3086 C   0  0  1  0  0  0  0  0  0  0  0  0
    1.7787   -4.1421    3.4080 C   0  0  0  0  0  0  0  0  0  0  0  0
    1.0027   -4.1017    4.2666 N   0  0  0  0  0  0  0  0  0  0  0  0
    4.2194   -4.1809    2.8094 C   0  0  0  0  0  0  0  0  0  0  0  0
    5.0250   -4.9767    1.7681 C   0  0  1  0  0  0  0  0  0  0  0  0
    5.7196   -4.1277    0.7404 C   0  0  0  0  0  0  0  0  0  0  0  0
    5.2080   -3.0395    0.0234 C   0  0  0  0  0  0  0  0  0  0  0  0
    6.0673   -2.3660   -0.8686 C   0  0  0  0  0  0  0  0  0  0  0  0
    7.4135   -2.7952   -1.0215 C   0  0  0  0  0  0  0  0  0  0  0  0
    7.9160   -3.8739   -0.2754 C   0  0  0  0  0  0  0  0  0  0  0  0
    7.0487   -4.5502    0.5948 C   0  0  0  0  0  0  0  0  0  0  0  0
    7.3157   -5.6723    1.3923 N   0  0  0  0  0  0  0  0  0  0  0  0
    8.6431   -6.0477    1.8406 C   0  0  0  0  0  0  0  0  0  0  0  0
    6.1991   -5.7967    2.3313 C   0  0  2  0  0  0  0  0  0  0  0  0
    5.7449   -7.2425    2.5296 C   0  0  0  0  0  0  0  0  0  0  0  0
    4.3240   -7.3189    1.9701 C   0  0  2  0  0  0  0  0  0  0  0  0
    4.0510   -6.0026    1.1911 C   0  0  1  0  0  0  0  0  0  0  0  0
    2.2598   -9.6779    4.1523 N   0  0  0  0  0  0  0  0  0  0  0  0
    3.5793   -6.5610    6.1787 H   0  0  0  0  0  0  0  0  0  0  0  0
    4.9760   -7.2744    5.3999 H   0  0  0  0  0  0  0  0  0  0  0  0
    3.5741   -8.2572    5.7983 H   0  0  0  0  0  0  0  0  0  0  0  0
    4.3484   -9.5422    3.7593 H   0  0  0  0  0  0  0  0  0  0  0  0
    2.9379   -9.9514    1.2891 H   0  0  0  0  0  0  0  0  0  0  0  0
    3.1971  -11.2860    2.5135 H   0  0  0  0  0  0  0  0  0  0  0  0
    0.8235  -10.7502    3.0467 H   0  0  0  0  0  0  0  0  0  0  0  0
    0.2413   -8.7174    1.6757 H   0  0  0  0  0  0  0  0  0  0  0  0
    0.1423   -8.2634    3.3566 H   0  0  0  0  0  0  0  0  0  0  0  0
    2.5915   -5.4404   -0.6170 H   0  0  0  0  0  0  0  0  0  0  0  0
    2.6006   -3.2746    1.7415 H   0  0  0  0  0  0  0  0  0  0  0  0
    4.5958   -3.1701    2.9825 H   0  0  0  0  0  0  0  0  0  0  0  0
    4.2618   -4.6933    3.7680 H   0  0  0  0  0  0  0  0  0  0  0  0
    4.1825   -2.7194    0.1533 H   0  0  0  0  0  0  0  0  0  0  0  0
    5.6918   -1.5415   -1.4469 H   0  0  0  0  0  0  0  0  0  0  0  0
    8.0713   -2.3060   -1.7239 H   0  0  0  0  0  0  0  0  0  0  0  0
    8.9407   -4.2128   -0.4012 H   0  0  0  0  0  0  0  0  0  0  0  0
    9.3892   -6.0221    1.0554 H   0  0  0  0  0  0  0  0  0  0  0  0
    8.6126   -7.0761    2.2064 H   0  0  0  0  0  0  0  0  0  0  0  0
    8.9648   -5.4359    2.6826 H   0  0  0  0  0  0  0  0  0  0  0  0
    6.5229   -5.3683    3.2745 H   0  0  0  0  0  0  0  0  0  0  0  0
    6.3908   -7.9431    1.9959 H   0  0  0  0  0  0  0  0  0  0  0  0
    5.8264   -7.5026    3.5891 H   0  0  0  0  0  0  0  0  0  0  0  0
    4.3190   -8.0887    1.1899 H   0  0  0  0  0  0  0  0  0  0  0  0
    4.3015   -6.1817    0.1418 H   0  0  0  0  0  0  0  0  0  0  0  0
    2.4813  -10.5921    4.5281 H   0  0  0  0  0  0  0  0  0  0  0  0
  1  2  1  0
  1 31  1  0
  1 32  1  0
  1 33  1  0
  3  2  1  1
  3  8  1  0
  3 28  1  0
  3  4  1  0
  4 30  1  0
  4  5  1  0
  4 34  1  1
  5  6  1  0
  5 35  1  0
  5 36  1  0
  6  7  1  0
  6 30  1  0
  6 37  1  1
  7  8  1  0
  7 38  1  0
  7 39  1  0
  8  9  1  0
  9 10  2  0
  9 11  1  0
 11 29  1  0
 11 12  1  6
 11 13  1  0
 12 40  1  0
 13 14  1  0
 13 16  1  0
 13 41  1  6
 14 15  3  0
 17 16  1  1
 16 42  1  0
 16 43  1  0
 17 26  1  0
 17 29  1  0
 17 18  1  0
 18 23  2  0
 18 19  1  0
 19 20  2  0
 19 44  1  0
 20 21  1  0
 20 45  1  0
 21 22  2  0
 21 46  1  0
 22 23  1  0
 22 47  1  0
 23 24  1  0
 24 25  1  0
 24 26  1  0
 25 48  1  0
 25 49  1  0
 25 50  1  0
 26 27  1  0
 26 51  1  1
 27 28  1  0
 27 52  1  0
 27 53  1  0
 28 29  1  0
 28 54  1  6
 29 55  1  6
 30 56  1  0
M  END
>  <i_m_ct_stereo_status>  (212) 
1

>  <s_m_source_file>  (212) 
/var/tmp/pbs.5076255.sched01/tmpyc7t0a4i/88yk12rjyo.sdf

>  <i_m_source_file_index>  (212) 
2

>  <i_lp_mmshare_version>  (212) 
48012

>  <i_f3d_flags>  (212) 
0

>  <s_epik_input>  (212) 
W2NIXTFbY0hdW2NIXVtjSF1jKGMxW0NAXTIzNClOKFtDSDNdKVtDQEBIXTNbQ0gyXVtDQEhdNVtDQF02KE9bQ0gzXSlbQ0BASF03W0NIMl1bQ0BASF0oW05IXTcpW0NIMl1ONkMoPU8pW0NAXShbT0hdKShbQ0BASF00NSlbQ0BASF0oQyNOKVtDSDJdMg==

>  <s_epik_cmdline>  (212) 
J2VwaWtfcHl0aG9uJywgJy1waHQnLCAnMi4wJywgJy1waCcsICc3LjAnLCAnLXRuJywgJzgnLCAnLW1hJywgJzIwMCcsICctaW1hZScsICc8aW5maWxlLm1hZT4nLCAnLW9tYWUnLCAnPG91dGZpbGUubWFlPic=

>  <r_epik_Ionization_Penalty>  (212) 
0.601688

>  <r_epik_Ionization_Penalty_Charging>  (212) 
0

>  <r_epik_Ionization_Penalty_Neutral>  (212) 
0.601688

>  <r_epik_State_Penalty>  (212) 
0.604363

>  <r_epik_Charging_Adjusted_Penalty>  (212) 
0.604363

>  <i_epik_Tot_Q>  (212) 
0

>  <i_epik_Tot_abs_Q>  (212) 
0

>  <s_lp_Force_Field>  (212) 
OPLS3e

>  <r_lp_Energy>  (212) 
77.3851

>  <b_lp_Chiralities_Consistent>  (212) 
1

>  <s_lp_Variant>  (212) 
53:0-2

>  <s_i_glide_gridfile>  (212) 
pfpi4k_grid

>  <i_i_glide_lignum>  (212) 
2

>  <i_i_glide_rotatable_bonds>  (212) 
3

>  <r_i_docking_score>  (212) 
-3.877

>  <r_i_glide_ligand_efficiency>  (212) 
-0.129233

>  <r_i_glide_ligand_efficiency_sa>  (212) 
-0.401558

>  <r_i_glide_ligand_efficiency_ln>  (212) 
-0.880896

>  <r_i_glide_gscore>  (212) 
-3.877

>  <r_i_glide_lipo>  (212) 
-0.614743

>  <r_i_glide_hbond>  (212) 
-0.16

>  <r_i_glide_metal>  (212) 
-0

>  <r_i_glide_rewards>  (212) 
-0.755218

>  <r_i_glide_evdw>  (212) 
-25.852

>  <r_i_glide_ecoul>  (212) 
-6.58199

>  <r_i_glide_erotb>  (212) 
0

>  <r_i_glide_esite>  (212) 
-0.0671407

>  <r_i_glide_emodel>  (212) 
-34.8511

>  <r_i_glide_energy>  (212) 
-32.4339

>  <r_i_glide_einternal>  (212) 
11.065

>  <r_i_glide_intrahb_reward>  (212) 
-0

>  <i_i_glide_confnum>  (212) 
2

>  <i_i_glide_posenum>  (212) 
19

>  <r_i_glide_eff_state_penalty>  (212) 
0

>  <ligand_id>  (212) 
53

>  <original_smiles>  (212) 
COC12C3CC(CN1C(=O)C1(O)C(C#N)CC45c6ccccc6N(C)C4CC2C15)N3

>  <smiles>  (212) 
[H]OC12C(=O)N3C([H])([H])C4([H])N([H])C([H])(C4([H])[H])C3(OC([H])([H])[H])C3([H])C([H])([H])C4([H])N(C([H])([H])[H])c5c([H])c([H])c([H])c([H])c5C4(C([H])([H])C1([H])C#N)C23[H]

$$$$
53:1:1
     RDKit          3D

 56 62  0  0  1  0  0  0  0  0999 V2000
    3.8233   -7.3293    5.4218 C   0  0  0  0  0  0  0  0  0  0  0  0
    3.1822   -6.9376    4.1851 O   0  0  0  0  0  0  0  0  0  0  0  0
    3.1191   -7.7511    3.0205 C   0  0  1  0  0  0  0  0  0  0  0  0
    3.2921   -9.2655    3.3520 C   0  0  2  0  0  0  0  0  0  0  0  0
    2.7467  -10.2791    2.3312 C   0  0  0  0  0  0  0  0  0  0  0  0
    1.4050   -9.9158    2.9606 C   0  0  2  0  0  0  0  0  0  0  0  0
    0.7506   -8.5812    2.5964 C   0  0  0  0  0  0  0  0  0  0  0  0
    1.7903   -7.5507    2.4048 N   0  0  0  0  0  0  0  0  0  0  0  0
    1.4686   -6.4363    1.7315 C   0  0  0  0  0  0  0  0  0  0  0  0
    0.3115   -6.2510    1.3123 O   0  0  0  0  0  0  0  0  0  0  0  0
    2.5518   -5.4013    1.3769 C   0  0  1  0  0  0  0  0  0  0  0  0
    2.2288   -4.8475    0.1011 O   0  0  0  0  0  0  0  0  0  0  0  0
    2.6812   -4.2024    2.3676 C   0  0  1  0  0  0  0  0  0  0  0  0
    1.7080   -4.1641    3.4728 C   0  0  0  0  0  0  0  0  0  0  0  0
    0.9442   -4.1306    4.3393 N   0  0  0  0  0  0  0  0  0  0  0  0
    4.1343   -4.2022    2.8551 C   0  0  0  0  0  0  0  0  0  0  0  0
    4.9324   -4.9973    1.8046 C   0  0  1  0  0  0  0  0  0  0  0  0
    5.6331   -4.1422    0.7756 C   0  0  0  0  0  0  0  0  0  0  0  0
    5.1136   -3.0332    0.0745 C   0  0  0  0  0  0  0  0  0  0  0  0
    5.9737   -2.3620   -0.8215 C   0  0  0  0  0  0  0  0  0  0  0  0
    7.3134   -2.7955   -0.9793 C   0  0  0  0  0  0  0  0  0  0  0  0
    7.8208   -3.8888   -0.2412 C   0  0  0  0  0  0  0  0  0  0  0  0
    6.9469   -4.5632    0.6235 C   0  0  0  0  0  0  0  0  0  0  0  0
    7.2183   -5.6936    1.4126 N   0  0  0  0  0  0  0  0  0  0  0  0
    8.5483   -6.0787    1.8489 C   0  0  0  0  0  0  0  0  0  0  0  0
    6.1082   -5.8160    2.3525 C   0  0  2  0  0  0  0  0  0  0  0  0
    5.6488   -7.2662    2.5544 C   0  0  0  0  0  0  0  0  0  0  0  0
    4.2176   -7.3274    1.9744 C   0  0  2  0  0  0  0  0  0  0  0  0
    3.9528   -6.0119    1.2199 C   0  0  1  0  0  0  0  0  0  0  0  0
    2.1746   -9.7036    4.1580 N   0  0  0  0  0  0  0  0  0  0  0  0
    3.5192   -6.6158    6.2100 H   0  0  0  0  0  0  0  0  0  0  0  0
    4.9027   -7.3136    5.3973 H   0  0  0  0  0  0  0  0  0  0  0  0
    3.5176   -8.3046    5.8045 H   0  0  0  0  0  0  0  0  0  0  0  0
    4.2590   -9.5747    3.7572 H   0  0  0  0  0  0  0  0  0  0  0  0
    2.8302   -9.9532    1.2972 H   0  0  0  0  0  0  0  0  0  0  0  0
    3.0919  -11.2984    2.5017 H   0  0  0  0  0  0  0  0  0  0  0  0
    0.7254  -10.7646    3.0526 H   0  0  0  0  0  0  0  0  0  0  0  0
    0.1417   -8.7195    1.6897 H   0  0  0  0  0  0  0  0  0  0  0  0
    0.0492   -8.2782    3.3844 H   0  0  0  0  0  0  0  0  0  0  0  0
    2.9718   -4.3446   -0.1983 H   0  0  0  0  0  0  0  0  0  0  0  0
    2.5158   -3.2780    1.8104 H   0  0  0  0  0  0  0  0  0  0  0  0
    4.5218   -3.1971    3.0363 H   0  0  0  0  0  0  0  0  0  0  0  0
    4.1851   -4.7267    3.8096 H   0  0  0  0  0  0  0  0  0  0  0  0
    4.0929   -2.6996    0.2207 H   0  0  0  0  0  0  0  0  0  0  0  0
    5.5949   -1.5309   -1.3861 H   0  0  0  0  0  0  0  0  0  0  0  0
    7.9708   -2.3057   -1.6867 H   0  0  0  0  0  0  0  0  0  0  0  0
    8.8403   -4.2211   -0.3803 H   0  0  0  0  0  0  0  0  0  0  0  0
    9.2988   -6.0475    1.0518 H   0  0  0  0  0  0  0  0  0  0  0  0
    8.5176   -7.1085    2.2056 H   0  0  0  0  0  0  0  0  0  0  0  0
    8.8766   -5.4704    2.6952 H   0  0  0  0  0  0  0  0  0  0  0  0
    6.4395   -5.4055    3.2938 H   0  0  0  0  0  0  0  0  0  0  0  0
    6.2970   -7.9706    2.0059 H   0  0  0  0  0  0  0  0  0  0  0  0
    5.7372   -7.5370    3.5955 H   0  0  0  0  0  0  0  0  0  0  0  0
    4.2199   -8.0997    1.2028 H   0  0  0  0  0  0  0  0  0  0  0  0
    4.1940   -6.1869    0.1670 H   0  0  0  0  0  0  0  0  0  0  0  0
    2.3851  -10.6156    4.5179 H   0  0  0  0  0  0  0  0  0  0  0  0
  1  2  1  0
  1 31  1  0
  1 32  1  0
  1 33  1  0
  3  2  1  1
  3  8  1  0
  3 28  1  0
  3  4  1  0
  4 30  1  0
  4  5  1  0
  4 34  1  1
  5  6  1  0
  5 35  1  0
  5 36  1  0
  6  7  1  0
  6 30  1  0
  6 37  1  1
  7  8  1  0
  7 38  1  0
  7 39  1  0
  8  9  1  0
  9 10  2  0
  9 11  1  0
 11 29  1  0
 11 12  1  6
 11 13  1  0
 12 40  1  0
 13 14  1  0
 13 16  1  0
 13 41  1  6
 14 15  3  0
 17 16  1  1
 16 42  1  0
 16 43  1  0
 17 26  1  0
 17 29  1  0
 17 18  1  0
 18 23  2  0
 18 19  1  0
 19 20  2  0
 19 44  1  0
 20 21  1  0
 20 45  1  0
 21 22  2  0
 21 46  1  0
 22 23  1  0
 22 47  1  0
 23 24  1  0
 24 25  1  0
 24 26  1  0
 25 48  1  0
 25 49  1  0
 25 50  1  0
 26 27  1  0
 26 51  1  1
 27 28  1  0
 27 52  1  0
 27 53  1  0
 28 29  1  0
 28 54  1  6
 29 55  1  6
 30 56  1  0
M  END
>  <i_m_ct_stereo_status>  (213) 
1

>  <s_m_source_file>  (213) 
/var/tmp/pbs.5076255.sched01/tmpyc7t0a4i/88yk12rjyo.sdf

>  <i_m_source_file_index>  (213) 
2

>  <i_lp_mmshare_version>  (213) 
48012

>  <i_f3d_flags>  (213) 
0

>  <s_epik_input>  (213) 
W2NIXTFbY0hdW2NIXVtjSF1jKGMxW0NAXTIzNClOKFtDSDNdKVtDQEBIXTNbQ0gyXVtDQEhdNVtDQF02KE9bQ0gzXSlbQ0BASF03W0NIMl1bQ0BASF0oW05IXTcpW0NIMl1ONkMoPU8pW0NAXShbT0hdKShbQ0BASF00NSlbQ0BASF0oQyNOKVtDSDJdMg==

>  <s_epik_cmdline>  (213) 
J2VwaWtfcHl0aG9uJywgJy1waHQnLCAnMi4wJywgJy1waCcsICc3LjAnLCAnLXRuJywgJzgnLCAnLW1hJywgJzIwMCcsICctaW1hZScsICc8aW5maWxlLm1hZT4nLCAnLW9tYWUnLCAnPG91dGZpbGUubWFlPic=

>  <r_epik_Ionization_Penalty>  (213) 
0.601688

>  <r_epik_Ionization_Penalty_Charging>  (213) 
0

>  <r_epik_Ionization_Penalty_Neutral>  (213) 
0.601688

>  <r_epik_State_Penalty>  (213) 
0.604363

>  <r_epik_Charging_Adjusted_Penalty>  (213) 
0.604363

>  <i_epik_Tot_Q>  (213) 
0

>  <i_epik_Tot_abs_Q>  (213) 
0

>  <s_lp_Force_Field>  (213) 
OPLS3e

>  <r_lp_Energy>  (213) 
77.3851

>  <b_lp_Chiralities_Consistent>  (213) 
1

>  <s_lp_Variant>  (213) 
53:0-2

>  <s_i_glide_gridfile>  (213) 
pfpi4k_grid

>  <i_i_glide_lignum>  (213) 
2

>  <i_i_glide_rotatable_bonds>  (213) 
3

>  <r_i_docking_score>  (213) 
-3.74681

>  <r_i_glide_ligand_efficiency>  (213) 
-0.124894

>  <r_i_glide_ligand_efficiency_sa>  (213) 
-0.388074

>  <r_i_glide_ligand_efficiency_ln>  (213) 
-0.851317

>  <r_i_glide_gscore>  (213) 
-3.74681

>  <r_i_glide_lipo>  (213) 
-0.592867

>  <r_i_glide_hbond>  (213) 
-0.193227

>  <r_i_glide_metal>  (213) 
-0

>  <r_i_glide_rewards>  (213) 
-0.760039

>  <r_i_glide_evdw>  (213) 
-25.2515

>  <r_i_glide_ecoul>  (213) 
-5.77477

>  <r_i_glide_erotb>  (213) 
0

>  <r_i_glide_esite>  (213) 
-0.0718873

>  <r_i_glide_emodel>  (213) 
-34.0145

>  <r_i_glide_energy>  (213) 
-31.0263

>  <r_i_glide_einternal>  (213) 
9.31448

>  <r_i_glide_intrahb_reward>  (213) 
-0

>  <i_i_glide_confnum>  (213) 
2

>  <i_i_glide_posenum>  (213) 
1

>  <r_i_glide_eff_state_penalty>  (213) 
0

>  <ligand_id>  (213) 
53

>  <original_smiles>  (213) 
COC12C3CC(CN1C(=O)C1(O)C(C#N)CC45c6ccccc6N(C)C4CC2C15)N3

>  <smiles>  (213) 
[H]OC12C(=O)N3C([H])([H])C4([H])N([H])C([H])(C4([H])[H])C3(OC([H])([H])[H])C3([H])C([H])([H])C4([H])N(C([H])([H])[H])c5c([H])c([H])c([H])c([H])c5C4(C([H])([H])C1([H])C#N)C23[H]

$$$$
53:1:2
     RDKit          3D

 56 62  0  0  1  0  0  0  0  0999 V2000
    0.4852    5.1554    6.9882 C   0  0  0  0  0  0  0  0  0  0  0  0
    1.0074    3.8449    6.7746 O   0  0  0  0  0  0  0  0  0  0  0  0
    0.2547    2.7004    7.0896 C   0  0  1  0  0  0  0  0  0  0  0  0
    0.1264    2.5167    8.6355 C   0  0  2  0  0  0  0  0  0  0  0  0
   -0.9610    1.5641    9.1286 C   0  0  0  0  0  0  0  0  0  0  0  0
   -1.9056    2.7226    8.7821 C   0  0  2  0  0  0  0  0  0  0  0  0
   -2.2443    3.0255    7.3324 C   0  0  0  0  0  0  0  0  0  0  0  0
   -1.0814    2.7507    6.4766 N   0  0  0  0  0  0  0  0  0  0  0  0
   -1.2292    2.6342    5.1401 C   0  0  0  0  0  0  0  0  0  0  0  0
   -2.3211    2.8332    4.5944 O   0  0  0  0  0  0  0  0  0  0  0  0
   -0.0568    2.1692    4.2596 C   0  0  1  0  0  0  0  0  0  0  0  0
   -0.5735    1.3244    3.2451 O   0  0  0  0  0  0  0  0  0  0  0  0
    0.7369    3.3059    3.5538 C   0  0  1  0  0  0  0  0  0  0  0  0
    0.2203    4.6754    3.7493 C   0  0  0  0  0  0  0  0  0  0  0  0
   -0.1896    5.7459    3.9145 N   0  0  0  0  0  0  0  0  0  0  0  0
    2.2057    3.1684    3.9877 C   0  0  0  0  0  0  0  0  0  0  0  0
    2.3504    1.7192    4.4580 C   0  0  1  0  0  0  0  0  0  0  0  0
    2.8942    0.7770    3.4412 C   0  0  0  0  0  0  0  0  0  0  0  0
    2.5338    0.6851    2.0814 C   0  0  0  0  0  0  0  0  0  0  0  0
    3.2323   -0.2516    1.2919 C   0  0  0  0  0  0  0  0  0  0  0  0
    4.2530   -1.0418    1.8532 C   0  0  0  0  0  0  0  0  0  0  0  0
    4.6074   -0.9335    3.2173 C   0  0  0  0  0  0  0  0  0  0  0  0
    3.8854   -0.0152    4.0109 C   0  0  0  0  0  0  0  0  0  0  0  0
    4.0707    0.2650    5.3789 N   0  0  0  0  0  0  0  0  0  0  0  0
    5.3182   -0.0112    6.0663 C   0  0  0  0  0  0  0  0  0  0  0  0
    3.3414    1.5153    5.6167 C   0  0  2  0  0  0  0  0  0  0  0  0
    2.5440    1.5310    6.9293 C   0  0  0  0  0  0  0  0  0  0  0  0
    1.0580    1.4818    6.5348 C   0  0  2  0  0  0  0  0  0  0  0  0
    0.9823    1.3095    5.0018 C   0  0  1  0  0  0  0  0  0  0  0  0
   -0.7723    3.5214    9.1804 N   0  0  0  0  0  0  0  0  0  0  0  0
    1.1091    5.8612    6.4417 H   0  0  0  0  0  0  0  0  0  0  0  0
    0.5152    5.4523    8.0342 H   0  0  0  0  0  0  0  0  0  0  0  0
   -0.5322    5.2906    6.6196 H   0  0  0  0  0  0  0  0  0  0  0  0
    1.0429    2.4378    9.2222 H   0  0  0  0  0  0  0  0  0  0  0  0
   -1.1213    0.7109    8.4697 H   0  0  0  0  0  0  0  0  0  0  0  0
   -0.9055    1.2903   10.2045 H   0  0  0  0  0  0  0  0  0  0  0  0
   -2.7143    2.8216    9.5147 H   0  0  0  0  0  0  0  0  0  0  0  0
   -3.1104    2.4431    7.0315 H   0  0  0  0  0  0  0  0  0  0  0  0
   -2.5398    4.0687    7.2409 H   0  0  0  0  0  0  0  0  0  0  0  0
    0.1204    1.1369    2.6180 H   0  0  0  0  0  0  0  0  0  0  0  0
    0.6872    3.1420    2.4766 H   0  0  0  0  0  0  0  0  0  0  0  0
    2.9038    3.4503    3.1996 H   0  0  0  0  0  0  0  0  0  0  0  0
    2.4027    3.8372    4.8223 H   0  0  0  0  0  0  0  0  0  0  0  0
    1.7836    1.3142    1.6407 H   0  0  0  0  0  0  0  0  0  0  0  0
    2.9713   -0.3678    0.2442 H   0  0  0  0  0  0  0  0  0  0  0  0
    4.7886   -1.7429    1.2155 H   0  0  0  0  0  0  0  0  0  0  0  0
    5.4029   -1.5361    3.6424 H   0  0  0  0  0  0  0  0  0  0  0  0
    5.7404   -0.9845    5.8516 H   0  0  0  0  0  0  0  0  0  0  0  0
    5.1166    0.0138    7.1326 H   0  0  0  0  0  0  0  0  0  0  0  0
    6.0610    0.7580    5.8782 H   0  0  0  0  0  0  0  0  0  0  0  0
    4.0825    2.3156    5.6365 H   0  0  0  0  0  0  0  0  0  0  0  0
    2.7857    0.6672    7.5431 H   0  0  0  0  0  0  0  0  0  0  0  0
    2.8046    2.4068    7.5312 H   0  0  0  0  0  0  0  0  0  0  0  0
    0.6231    0.5794    6.9644 H   0  0  0  0  0  0  0  0  0  0  0  0
    0.8266    0.2411    4.8138 H   0  0  0  0  0  0  0  0  0  0  0  0
   -0.7128    3.4297   10.1876 H   0  0  0  0  0  0  0  0  0  0  0  0
  1  2  1  0
  1 31  1  0
  1 32  1  0
  1 33  1  0
  3  2  1  1
  3  8  1  0
  3 28  1  0
  3  4  1  0
  4 30  1  0
  4  5  1  0
  4 34  1  1
  5  6  1  0
  5 35  1  0
  5 36  1  0
  6  7  1  0
  6 30  1  0
  6 37  1  1
  7  8  1  0
  7 38  1  0
  7 39  1  0
  8  9  1  0
  9 10  2  0
  9 11  1  0
 11 29  1  0
 11 12  1  6
 11 13  1  0
 12 40  1  0
 13 14  1  0
 13 16  1  0
 13 41  1  6
 14 15  3  0
 17 16  1  6
 16 42  1  0
 16 43  1  0
 17 26  1  0
 17 29  1  0
 17 18  1  0
 18 23  2  0
 18 19  1  0
 19 20  2  0
 19 44  1  0
 20 21  1  0
 20 45  1  0
 21 22  2  0
 21 46  1  0
 22 23  1  0
 22 47  1  0
 23 24  1  0
 24 25  1  0
 24 26  1  0
 25 48  1  0
 25 49  1  0
 25 50  1  0
 26 27  1  0
 26 51  1  1
 27 28  1  0
 27 52  1  0
 27 53  1  0
 28 29  1  0
 28 54  1  1
 29 55  1  1
 30 56  1  0
M  END
>  <i_m_ct_stereo_status>  (214) 
1

>  <s_m_source_file>  (214) 
/var/tmp/pbs.5076255.sched01/tmpyc7t0a4i/88yk12rjyo.sdf

>  <i_m_source_file_index>  (214) 
2

>  <i_lp_mmshare_version>  (214) 
48012

>  <i_f3d_flags>  (214) 
0

>  <s_epik_input>  (214) 
W2NIXTFbY0hdW2NIXVtjSF1jKGMxW0NAXTIzNClOKFtDSDNdKVtDQEBIXTNbQ0gyXVtDQEhdNVtDQF02KE9bQ0gzXSlbQ0BASF03W0NIMl1bQ0BASF0oW05IXTcpW0NIMl1ONkMoPU8pW0NAXShbT0hdKShbQ0BASF00NSlbQ0BASF0oQyNOKVtDSDJdMg==

>  <s_epik_cmdline>  (214) 
J2VwaWtfcHl0aG9uJywgJy1waHQnLCAnMi4wJywgJy1waCcsICc3LjAnLCAnLXRuJywgJzgnLCAnLW1hJywgJzIwMCcsICctaW1hZScsICc8aW5maWxlLm1hZT4nLCAnLW9tYWUnLCAnPG91dGZpbGUubWFlPic=

>  <r_epik_Ionization_Penalty>  (214) 
0.601688

>  <r_epik_Ionization_Penalty_Charging>  (214) 
0

>  <r_epik_Ionization_Penalty_Neutral>  (214) 
0.601688

>  <r_epik_State_Penalty>  (214) 
0.604363

>  <r_epik_Charging_Adjusted_Penalty>  (214) 
0.604363

>  <i_epik_Tot_Q>  (214) 
0

>  <i_epik_Tot_abs_Q>  (214) 
0

>  <s_lp_Force_Field>  (214) 
OPLS3e

>  <r_lp_Energy>  (214) 
77.3851

>  <b_lp_Chiralities_Consistent>  (214) 
1

>  <s_lp_Variant>  (214) 
53:0-2

>  <s_i_glide_gridfile>  (214) 
pfpi4k_grid

>  <i_i_glide_lignum>  (214) 
2

>  <i_i_glide_rotatable_bonds>  (214) 
3

>  <r_i_docking_score>  (214) 
-2.40399

>  <r_i_glide_ligand_efficiency>  (214) 
-0.080133

>  <r_i_glide_ligand_efficiency_sa>  (214) 
-0.248992

>  <r_i_glide_ligand_efficiency_ln>  (214) 
-0.546213

>  <r_i_glide_gscore>  (214) 
-2.40399

>  <r_i_glide_lipo>  (214) 
-0.220557

>  <r_i_glide_hbond>  (214) 
-0.0195827

>  <r_i_glide_metal>  (214) 
-0

>  <r_i_glide_rewards>  (214) 
-0.655814

>  <r_i_glide_evdw>  (214) 
-21.9988

>  <r_i_glide_ecoul>  (214) 
-2.03301

>  <r_i_glide_erotb>  (214) 
0

>  <r_i_glide_esite>  (214) 
-0.103147

>  <r_i_glide_emodel>  (214) 
-28.7432

>  <r_i_glide_energy>  (214) 
-24.0318

>  <r_i_glide_einternal>  (214) 
0.493046

>  <r_i_glide_intrahb_reward>  (214) 
-0

>  <i_i_glide_confnum>  (214) 
2

>  <i_i_glide_posenum>  (214) 
3

>  <r_i_glide_eff_state_penalty>  (214) 
0

>  <ligand_id>  (214) 
53

>  <original_smiles>  (214) 
COC12C3CC(CN1C(=O)C1(O)C(C#N)CC45c6ccccc6N(C)C4CC2C15)N3

>  <smiles>  (214) 
[H]OC12C(=O)N3C([H])([H])C4([H])N([H])C([H])(C4([H])[H])C3(OC([H])([H])[H])C3([H])C([H])([H])C4([H])N(C([H])([H])[H])c5c([H])c([H])c([H])c([H])c5C4(C([H])([H])C1([H])C#N)C23[H]

$$$$
55:0:0
     RDKit          3D

101107  0  0  1  0  0  0  0  0999 V2000
   -1.6746   -9.8913    2.0864 C   0  0  0  0  0  0  0  0  0  0  0  0
   -1.3158   -9.4063    3.2707 C   0  0  0  0  0  0  0  0  0  0  0  0
    0.0839   -9.1079    3.7990 C   0  0  1  0  0  0  0  0  0  0  0  0
    0.1998   -9.8908    4.9747 O   0  0  0  0  0  0  0  0  0  0  0  0
    1.2193   -9.5199    2.8722 C   0  0  0  0  0  0  0  0  0  0  0  0
    2.4562   -8.5993    2.9767 C   0  0  2  0  0  0  0  0  0  0  0  0
    3.6633   -9.5078    2.6607 C   0  0  0  0  0  0  0  0  0  0  0  0
    2.6321   -8.0495    4.4172 C   0  0  0  0  0  0  0  0  0  0  0  0
    1.4383   -7.2001    4.9940 C   0  0  1  0  0  0  0  0  0  0  0  0
    1.2766   -7.6916    6.4899 C   0  0  0  0  0  0  0  0  0  0  0  0
    1.7184   -5.6052    5.1215 C   0  0  2  0  0  0  0  0  0  0  0  0
    0.5526   -4.6957    5.7110 C   0  0  1  0  0  0  0  0  0  0  0  0
   -0.3405   -5.4087    6.5324 O   0  0  0  0  0  0  0  0  0  0  0  0
    0.8977   -3.4909    6.6516 C   0  0  0  0  0  0  0  0  0  0  0  0
    1.8234   -2.2746    6.3039 C   0  0  1  0  0  0  0  0  0  0  0  0
    3.2434   -2.3613    6.9960 C   0  0  1  0  0  0  0  0  0  0  0  0
    3.9305   -3.7243    6.8051 C   0  0  0  0  0  0  0  0  0  0  0  0
    4.4322   -3.9928    5.3995 C   0  0  0  0  0  0  0  0  0  0  0  0
    3.4943   -3.6913    4.2019 C   0  0  1  0  0  0  0  0  0  0  0  0
    4.4156   -3.9323    3.1525 O   0  0  0  0  0  0  0  0  0  0  0  0
    2.5271   -4.9520    3.9366 C   0  0  2  0  0  0  0  0  0  0  0  0
    1.8845   -5.0288    2.5196 C   0  0  0  0  0  0  0  0  0  0  0  0
    1.3181   -6.3907    2.0662 C   0  0  2  0  0  0  0  0  0  0  0  0
    0.8804   -6.1473    0.7482 O   0  0  0  0  0  0  0  0  0  0  0  0
    0.0733   -6.6803    2.9354 C   0  0  1  0  0  0  0  0  0  0  0  0
   -1.0455   -6.9355    2.1545 O   0  0  0  0  0  0  0  0  0  0  0  0
    0.1676   -7.5960    4.1648 C   0  0  1  0  0  0  0  0  0  0  0  0
    2.3571   -7.5235    1.8727 C   0  0  1  0  0  0  0  0  0  0  0  0
    3.6339   -6.9704    1.6277 O   0  0  0  0  0  0  0  0  0  0  0  0
    3.0420   -2.1190    4.0442 C   0  0  1  0  0  0  0  0  0  0  0  0
    2.6323   -2.0470    2.6923 O   0  0  0  0  0  0  0  0  0  0  0  0
    1.7453   -1.6886    4.8616 C   0  0  0  0  0  0  0  0  0  0  0  0
    0.4240   -2.0312    4.1428 C   0  0  0  0  0  0  0  0  0  0  0  0
    1.4358   -0.1674    4.9658 C   0  0  0  0  0  0  0  0  0  0  0  0
    4.2382   -1.0207    4.1670 C   0  0  0  0  0  0  0  0  0  0  0  0
    5.4756   -1.4447    3.3464 C   0  0  0  0  0  0  0  0  0  0  0  0
    3.9794    0.2587    3.3094 C   0  0  0  0  0  0  0  0  0  0  0  0
    4.6406   -0.4648    5.6251 C   0  0  2  0  0  0  0  0  0  0  0  0
    6.0270    0.1694    5.6559 C   0  0  0  0  0  0  0  0  0  0  0  0
    7.0273   -0.2295    6.4777 C   0  0  0  0  0  0  0  0  0  0  0  0
    6.8646   -1.4318    7.3555 C   0  0  0  0  0  0  0  0  0  0  0  0
    5.4498   -1.4792    7.9210 C   0  0  0  0  0  0  0  0  0  0  0  0
    5.2863   -1.8307    9.0942 O   0  0  0  0  0  0  0  0  0  0  0  0
    4.2106   -1.1165    7.0178 C   0  0  2  0  0  0  0  0  0  0  0  0
    3.5152   -0.0147    7.8747 C   0  0  0  0  0  0  0  0  0  0  0  0
   -1.0315  -10.2323    1.3096 H   0  0  0  0  0  0  0  0  0  0  0  0
   -2.7416   -9.9538    1.9637 H   0  0  0  0  0  0  0  0  0  0  0  0
   -2.1097   -9.1157    3.9269 H   0  0  0  0  0  0  0  0  0  0  0  0
   -0.6583  -10.2662    5.1180 H   0  0  0  0  0  0  0  0  0  0  0  0
    1.4739  -10.5651    3.0795 H   0  0  0  0  0  0  0  0  0  0  0  0
    0.9018   -9.5054    1.8237 H   0  0  0  0  0  0  0  0  0  0  0  0
    4.6137   -8.9663    2.7608 H   0  0  0  0  0  0  0  0  0  0  0  0
    3.5864   -9.9316    1.6444 H   0  0  0  0  0  0  0  0  0  0  0  0
    3.6838  -10.3417    3.3784 H   0  0  0  0  0  0  0  0  0  0  0  0
    2.8179   -8.9357    5.0360 H   0  0  0  0  0  0  0  0  0  0  0  0
    3.5816   -7.5174    4.4832 H   0  0  0  0  0  0  0  0  0  0  0  0
    0.2149   -7.7449    6.7719 H   0  0  0  0  0  0  0  0  0  0  0  0
    1.7952   -7.0474    7.2225 H   0  0  0  0  0  0  0  0  0  0  0  0
    1.6503   -8.7039    6.6817 H   0  0  0  0  0  0  0  0  0  0  0  0
    2.4648   -5.6391    5.8896 H   0  0  0  0  0  0  0  0  0  0  0  0
   -0.1454   -4.4025    4.9386 H   0  0  0  0  0  0  0  0  0  0  0  0
   -1.0087   -4.8227    6.8677 H   0  0  0  0  0  0  0  0  0  0  0  0
   -0.0579   -3.0215    6.8874 H   0  0  0  0  0  0  0  0  0  0  0  0
    1.2263   -3.8991    7.6076 H   0  0  0  0  0  0  0  0  0  0  0  0
    1.3601   -1.5034    6.9196 H   0  0  0  0  0  0  0  0  0  0  0  0
    2.9625   -2.4321    8.0489 H   0  0  0  0  0  0  0  0  0  0  0  0
    4.7838   -3.8539    7.4709 H   0  0  0  0  0  0  0  0  0  0  0  0
    3.2808   -4.4895    7.2101 H   0  0  0  0  0  0  0  0  0  0  0  0
    5.3668   -3.4475    5.3290 H   0  0  0  0  0  0  0  0  0  0  0  0
    4.7462   -5.0403    5.3648 H   0  0  0  0  0  0  0  0  0  0  0  0
    4.7352   -4.8258    3.2360 H   0  0  0  0  0  0  0  0  0  0  0  0
    3.2846   -5.7060    3.7953 H   0  0  0  0  0  0  0  0  0  0  0  0
    1.0817   -4.3169    2.4495 H   0  0  0  0  0  0  0  0  0  0  0  0
    2.5935   -4.6904    1.7612 H   0  0  0  0  0  0  0  0  0  0  0  0
    0.6709   -7.0142    0.3690 H   0  0  0  0  0  0  0  0  0  0  0  0
   -0.1921   -5.7439    3.3833 H   0  0  0  0  0  0  0  0  0  0  0  0
   -1.0044   -7.8493    1.8899 H   0  0  0  0  0  0  0  0  0  0  0  0
   -0.7014   -7.3559    4.7836 H   0  0  0  0  0  0  0  0  0  0  0  0
    2.1285   -8.0507    0.9379 H   0  0  0  0  0  0  0  0  0  0  0  0
    4.2074   -7.6821    1.3606 H   0  0  0  0  0  0  0  0  0  0  0  0
    2.4044   -1.1377    2.5322 H   0  0  0  0  0  0  0  0  0  0  0  0
    0.2349   -1.3786    3.2938 H   0  0  0  0  0  0  0  0  0  0  0  0
   -0.4361   -1.9562    4.8095 H   0  0  0  0  0  0  0  0  0  0  0  0
    0.4404   -2.9933    3.6947 H   0  0  0  0  0  0  0  0  0  0  0  0
    1.2823    0.2876    3.9904 H   0  0  0  0  0  0  0  0  0  0  0  0
    2.1567    0.4425    5.4799 H   0  0  0  0  0  0  0  0  0  0  0  0
    0.5040   -0.0009    5.5076 H   0  0  0  0  0  0  0  0  0  0  0  0
    6.2447   -0.6741    3.2713 H   0  0  0  0  0  0  0  0  0  0  0  0
    5.2529   -1.7337    2.3139 H   0  0  0  0  0  0  0  0  0  0  0  0
    5.9611   -2.2747    3.8244 H   0  0  0  0  0  0  0  0  0  0  0  0
    4.8538    0.8983    3.3766 H   0  0  0  0  0  0  0  0  0  0  0  0
    3.1933    0.9332    3.6321 H   0  0  0  0  0  0  0  0  0  0  0  0
    3.8639    0.0437    2.2430 H   0  0  0  0  0  0  0  0  0  0  0  0
    4.1344    0.4957    5.6708 H   0  0  0  0  0  0  0  0  0  0  0  0
    6.1850    1.0390    5.0448 H   0  0  0  0  0  0  0  0  0  0  0  0
    7.9852    0.2661    6.5085 H   0  0  0  0  0  0  0  0  0  0  0  0
    7.1246   -2.3432    6.8143 H   0  0  0  0  0  0  0  0  0  0  0  0
    7.5731   -1.3554    8.1855 H   0  0  0  0  0  0  0  0  0  0  0  0
    2.5596    0.3385    7.4972 H   0  0  0  0  0  0  0  0  0  0  0  0
    4.1540    0.8611    7.9900 H   0  0  0  0  0  0  0  0  0  0  0  0
    3.2964   -0.3632    8.8829 H   0  0  0  0  0  0  0  0  0  0  0  0
  1  2  2  0
  1 46  1  0
  1 47  1  0
  2  3  1  0
  2 48  1  0
  3 27  1  0
  3  4  1  1
  3  5  1  0
  4 49  1  0
  5  6  1  0
  5 50  1  0
  5 51  1  0
  6 28  1  0
  6  7  1  6
  6  8  1  0
  7 52  1  0
  7 53  1  0
  7 54  1  0
  8  9  1  0
  8 55  1  0
  8 56  1  0
  9 27  1  0
  9 10  1  1
  9 11  1  0
 10 57  1  0
 10 58  1  0
 10 59  1  0
 11 21  1  0
 11 12  1  0
 11 60  1  1
 12 13  1  0
 12 14  1  0
 12 61  1  6
 13 62  1  0
 14 15  1  0
 14 63  1  0
 14 64  1  0
 15 32  1  0
 15 16  1  0
 15 65  1  1
 16 44  1  0
 16 17  1  0
 16 66  1  1
 17 18  1  0
 17 67  1  0
 17 68  1  0
 18 19  1  0
 18 69  1  0
 18 70  1  0
 19 20  1  6
 19 21  1  0
 19 30  1  0
 20 71  1  0
 21 22  1  0
 21 72  1  6
 22 23  1  0
 22 73  1  0
 22 74  1  0
 23 24  1  6
 23 25  1  0
 23 28  1  0
 24 75  1  0
 25 26  1  0
 25 27  1  0
 25 76  1  1
 26 77  1  0
 27 78  1  1
 28 29  1  0
 28 79  1  6
 29 80  1  0
 30 31  1  6
 30 32  1  0
 30 35  1  0
 31 81  1  0
 32 33  1  0
 32 34  1  0
 33 82  1  0
 33 83  1  0
 33 84  1  0
 34 85  1  0
 34 86  1  0
 34 87  1  0
 35 36  1  0
 35 37  1  0
 35 38  1  0
 36 88  1  0
 36 89  1  0
 36 90  1  0
 37 91  1  0
 37 92  1  0
 37 93  1  0
 38 44  1  0
 38 39  1  0
 38 94  1  1
 39 40  2  0
 39 95  1  0
 40 41  1  0
 40 96  1  0
 41 42  1  0
 41 97  1  0
 41 98  1  0
 42 43  2  0
 42 44  1  0
 44 45  1  1
 45 99  1  0
 45100  1  0
 45101  1  0
M  END
>  <i_m_ct_stereo_status>  (215) 
1

>  <s_m_source_file>  (215) 
/var/tmp/pbs.5076255.sched01/tmpyc7t0a4i/88yk12rjyo.sdf

>  <i_m_source_file_index>  (215) 
4

>  <i_lp_mmshare_version>  (215) 
48012

>  <i_f3d_flags>  (215) 
0

>  <s_epik_input>  (215) 
W0NIM11bQ0BAXTEyW0NIMl1bQ0BdKFtPSF0pKFtDSF09W0NIMl0pW0NASF0zW0NAXShbQ0gyXTEpKFtDSDNdKVtDQEhdNFtDQEBIXShbQ0gyXVtDQF0oW09IXSkoW0NASF0zW09IXSlbQ0BIXTJbT0hdKVtDQEBdNShbT0hdKVtDQEBdNihbT0hdKUMoW0NIM10pKFtDSDNdKVtDQEBIXShbQ0gyXVtDQEBIXTRbT0hdKVtDQEBIXShbQ0gyXVtDSDJdNSlbQ0BdNyhbQ0gzXSlbQ0BIXShDNihbQ0gzXSlbQ0gzXSlbQ0hdPVtDSF1bQ0gyXUM3PU8=

>  <s_epik_cmdline>  (215) 
J2VwaWtfcHl0aG9uJywgJy1waHQnLCAnMi4wJywgJy1waCcsICc3LjAnLCAnLXRuJywgJzgnLCAnLW1hJywgJzIwMCcsICctaW1hZScsICc8aW5maWxlLm1hZT4nLCAnLW9tYWUnLCAnPG91dGZpbGUubWFlPic=

>  <r_lp_tautomer_probability>  (215) 
1

>  <r_epik_Ionization_Penalty>  (215) 
4.24226e-06

>  <r_epik_Ionization_Penalty_Charging>  (215) 
0

>  <r_epik_Ionization_Penalty_Neutral>  (215) 
4.24226e-06

>  <r_epik_State_Penalty>  (215) 
-0

>  <r_epik_Charging_Adjusted_Penalty>  (215) 
0

>  <i_epik_Tot_Q>  (215) 
0

>  <i_epik_Tot_abs_Q>  (215) 
0

>  <s_lp_Force_Field>  (215) 
OPLS3e

>  <r_lp_Energy>  (215) 
226.423

>  <b_lp_Chiralities_Consistent>  (215) 
1

>  <s_lp_Variant>  (215) 
55:0-1

>  <s_i_glide_gridfile>  (215) 
pfpi4k_grid

>  <i_i_glide_lignum>  (215) 
4

>  <i_i_glide_rotatable_bonds>  (215) 
8

>  <r_i_docking_score>  (215) 
-3.57522

>  <r_i_glide_ligand_efficiency>  (215) 
-0.0794493

>  <r_i_glide_ligand_efficiency_sa>  (215) 
-0.282593

>  <r_i_glide_ligand_efficiency_ln>  (215) 
-0.743805

>  <r_i_glide_gscore>  (215) 
-3.57522

>  <r_i_glide_lipo>  (215) 
-0.516171

>  <r_i_glide_hbond>  (215) 
-0.16

>  <r_i_glide_metal>  (215) 
-0

>  <r_i_glide_rewards>  (215) 
-0.00137823

>  <r_i_glide_evdw>  (215) 
-24.0298

>  <r_i_glide_ecoul>  (215) 
-11.6642

>  <r_i_glide_erotb>  (215) 
0.0534563

>  <r_i_glide_esite>  (215) 
0

>  <r_i_glide_emodel>  (215) 
-40.9618

>  <r_i_glide_energy>  (215) 
-35.694

>  <r_i_glide_einternal>  (215) 
2.56369

>  <r_i_glide_intrahb_reward>  (215) 
-0

>  <i_i_glide_confnum>  (215) 
3

>  <i_i_glide_posenum>  (215) 
16

>  <r_i_glide_eff_state_penalty>  (215) 
0

>  <ligand_id>  (215) 
55

>  <original_smiles>  (215) 
C=CC1(O)CC2(C)CC3(C)C4C(O)CC5C6CCC(O)(C4CC(O)(C(O)C13)C2O)C(O)(C5(C)C)C(C)(C)C1C=CCC(=O)C61C

>  <smiles>  (215) 
[H]OC1([H])C([H])([H])C2([H])C3([H])C([H])([H])C([H])([H])C(O[H])(C4([H])C([H])([H])C5(O[H])C([H])(O[H])C6([H])C(O[H])(C([H])=C([H])[H])C([H])([H])C(C([H])([H])[H])(C([H])([H])C6(C([H])([H])[H])C14[H])C5([H])O[H])C(O[H])(C(C([H])([H])[H])(C([H])([H])[H])C1([H])C([H])=C([H])C([H])([H])C(=O)C13C([H])([H])[H])C2(C([H])([H])[H])C([H])([H])[H]

$$$$
55:0:1
     RDKit          3D

101107  0  0  1  0  0  0  0  0999 V2000
    3.9505    3.4938    4.8874 C   0  0  0  0  0  0  0  0  0  0  0  0
    3.5057    2.4110    5.5456 C   0  0  0  0  0  0  0  0  0  0  0  0
    2.5476    1.3300    5.0416 C   0  0  1  0  0  0  0  0  0  0  0  0
    1.3793    1.5598    5.8010 O   0  0  0  0  0  0  0  0  0  0  0  0
    2.1408    1.4922    3.5618 C   0  0  0  0  0  0  0  0  0  0  0  0
    1.7389    0.1660    2.8588 C   0  0  2  0  0  0  0  0  0  0  0  0
    0.6361    0.5479    1.8431 C   0  0  0  0  0  0  0  0  0  0  0  0
    1.1063   -0.8377    3.8664 C   0  0  0  0  0  0  0  0  0  0  0  0
    1.9778   -1.2471    5.1181 C   0  0  1  0  0  0  0  0  0  0  0  0
    0.9689   -1.2021    6.3366 C   0  0  0  0  0  0  0  0  0  0  0  0
    2.5419   -2.7659    5.0690 C   0  0  2  0  0  0  0  0  0  0  0  0
    3.4087   -3.2525    6.3038 C   0  0  1  0  0  0  0  0  0  0  0  0
    3.1747   -2.5075    7.4808 O   0  0  0  0  0  0  0  0  0  0  0  0
    3.2661   -4.7204    6.8482 C   0  0  0  0  0  0  0  0  0  0  0  0
    3.4673   -6.0439    6.0175 C   0  0  1  0  0  0  0  0  0  0  0  0
    2.1104   -6.7599    5.6537 C   0  0  1  0  0  0  0  0  0  0  0  0
    1.0786   -5.8087    5.0190 C   0  0  0  0  0  0  0  0  0  0  0  0
    1.4060   -5.3505    3.6066 C   0  0  0  0  0  0  0  0  0  0  0  0
    2.8477   -4.8721    3.2807 C   0  0  1  0  0  0  0  0  0  0  0  0
    2.6803   -4.7235    1.8756 O   0  0  0  0  0  0  0  0  0  0  0  0
    3.0350   -3.3109    3.6647 C   0  0  2  0  0  0  0  0  0  0  0  0
    4.2272   -2.5530    2.9904 C   0  0  0  0  0  0  0  0  0  0  0  0
    4.1601   -0.9986    2.9694 C   0  0  2  0  0  0  0  0  0  0  0  0
    5.3222   -0.6690    2.2205 O   0  0  0  0  0  0  0  0  0  0  0  0
    4.3684   -0.4584    4.4268 C   0  0  1  0  0  0  0  0  0  0  0  0
    5.3618    0.5456    4.5138 O   0  0  0  0  0  0  0  0  0  0  0  0
    3.0956   -0.1324    5.2797 C   0  0  1  0  0  0  0  0  0  0  0  0
    2.9912   -0.3883    2.1090 C   0  0  1  0  0  0  0  0  0  0  0  0
    2.6132   -1.3214    1.1077 O   0  0  0  0  0  0  0  0  0  0  0  0
    4.0075   -6.0181    3.4834 C   0  0  1  0  0  0  0  0  0  0  0  0
    5.0638   -5.5097    2.6766 O   0  0  0  0  0  0  0  0  0  0  0  0
    4.6304   -6.0822    4.9665 C   0  0  0  0  0  0  0  0  0  0  0  0
    5.7233   -5.0091    5.2493 C   0  0  0  0  0  0  0  0  0  0  0  0
    5.5563   -7.2942    5.3028 C   0  0  0  0  0  0  0  0  0  0  0  0
    3.6893   -7.5047    2.8439 C   0  0  0  0  0  0  0  0  0  0  0  0
    2.9947   -7.4444    1.4396 C   0  0  0  0  0  0  0  0  0  0  0  0
    5.0128   -8.2311    2.3707 C   0  0  0  0  0  0  0  0  0  0  0  0
    2.9409   -8.5790    3.7798 C   0  0  2  0  0  0  0  0  0  0  0  0
    2.3325   -9.7233    2.9578 C   0  0  0  0  0  0  0  0  0  0  0  0
    1.0271  -10.0003    2.9250 C   0  0  0  0  0  0  0  0  0  0  0  0
    0.0217   -9.1689    3.6676 C   0  0  0  0  0  0  0  0  0  0  0  0
    0.6001   -8.7128    5.0085 C   0  0  0  0  0  0  0  0  0  0  0  0
   -0.1419   -8.6587    5.9885 O   0  0  0  0  0  0  0  0  0  0  0  0
    2.0973   -8.2486    5.1061 C   0  0  2  0  0  0  0  0  0  0  0  0
    2.6278   -9.1776    6.2485 C   0  0  0  0  0  0  0  0  0  0  0  0
    3.6545    3.7385    3.8758 H   0  0  0  0  0  0  0  0  0  0  0  0
    4.6418    4.1731    5.3686 H   0  0  0  0  0  0  0  0  0  0  0  0
    3.8577    2.2607    6.5570 H   0  0  0  0  0  0  0  0  0  0  0  0
    1.0317    2.4043    5.5564 H   0  0  0  0  0  0  0  0  0  0  0  0
    1.3443    2.2379    3.4855 H   0  0  0  0  0  0  0  0  0  0  0  0
    2.9644    1.9271    2.9968 H   0  0  0  0  0  0  0  0  0  0  0  0
    0.2383   -0.3252    1.3272 H   0  0  0  0  0  0  0  0  0  0  0  0
    1.0051    1.2440    1.0879 H   0  0  0  0  0  0  0  0  0  0  0  0
   -0.2145    1.0240    2.3374 H   0  0  0  0  0  0  0  0  0  0  0  0
    0.2071   -0.3151    4.1967 H   0  0  0  0  0  0  0  0  0  0  0  0
    0.6662   -1.6978    3.3683 H   0  0  0  0  0  0  0  0  0  0  0  0
    1.4398   -0.8024    7.2344 H   0  0  0  0  0  0  0  0  0  0  0  0
    0.5574   -2.1769    6.5976 H   0  0  0  0  0  0  0  0  0  0  0  0
    0.0967   -0.5672    6.1978 H   0  0  0  0  0  0  0  0  0  0  0  0
    1.6041   -3.2694    5.1738 H   0  0  0  0  0  0  0  0  0  0  0  0
    4.4416   -2.9754    6.1548 H   0  0  0  0  0  0  0  0  0  0  0  0
    3.8273   -2.7353    8.1260 H   0  0  0  0  0  0  0  0  0  0  0  0
    3.9917   -4.7959    7.6600 H   0  0  0  0  0  0  0  0  0  0  0  0
    2.3138   -4.7942    7.3746 H   0  0  0  0  0  0  0  0  0  0  0  0
    3.8194   -6.6985    6.8146 H   0  0  0  0  0  0  0  0  0  0  0  0
    1.6645   -6.8846    6.6419 H   0  0  0  0  0  0  0  0  0  0  0  0
    0.0831   -6.2446    4.9753 H   0  0  0  0  0  0  0  0  0  0  0  0
    0.8763   -5.0012    5.7095 H   0  0  0  0  0  0  0  0  0  0  0  0
    1.1179   -6.1851    2.9808 H   0  0  0  0  0  0  0  0  0  0  0  0
    0.6954   -4.5682    3.3374 H   0  0  0  0  0  0  0  0  0  0  0  0
    3.5252   -4.4670    1.5317 H   0  0  0  0  0  0  0  0  0  0  0  0
    2.2417   -2.9067    3.0567 H   0  0  0  0  0  0  0  0  0  0  0  0
    5.1916   -2.8195    3.4000 H   0  0  0  0  0  0  0  0  0  0  0  0
    4.3314   -2.8998    1.9618 H   0  0  0  0  0  0  0  0  0  0  0  0
    5.2137   -1.0408    1.3577 H   0  0  0  0  0  0  0  0  0  0  0  0
    4.8840   -1.2498    4.9634 H   0  0  0  0  0  0  0  0  0  0  0  0
    5.0489    1.3041    4.0460 H   0  0  0  0  0  0  0  0  0  0  0  0
    3.4306   -0.1601    6.3173 H   0  0  0  0  0  0  0  0  0  0  0  0
    3.3927    0.4518    1.5331 H   0  0  0  0  0  0  0  0  0  0  0  0
    1.9512   -0.9425    0.5252 H   0  0  0  0  0  0  0  0  0  0  0  0
    5.7790   -6.1259    2.7317 H   0  0  0  0  0  0  0  0  0  0  0  0
    6.6748   -5.2194    4.7602 H   0  0  0  0  0  0  0  0  0  0  0  0
    5.9458   -4.9157    6.3137 H   0  0  0  0  0  0  0  0  0  0  0  0
    5.4770   -4.0459    4.8757 H   0  0  0  0  0  0  0  0  0  0  0  0
    6.4421   -7.3352    4.6699 H   0  0  0  0  0  0  0  0  0  0  0  0
    5.1070   -8.2673    5.2697 H   0  0  0  0  0  0  0  0  0  0  0  0
    5.9422   -7.2225    6.3218 H   0  0  0  0  0  0  0  0  0  0  0  0
    3.0119   -8.3951    0.9067 H   0  0  0  0  0  0  0  0  0  0  0  0
    3.5127   -6.7602    0.7672 H   0  0  0  0  0  0  0  0  0  0  0  0
    1.9448   -7.1790    1.4534 H   0  0  0  0  0  0  0  0  0  0  0  0
    4.7975   -9.1633    1.8457 H   0  0  0  0  0  0  0  0  0  0  0  0
    5.6857   -8.5553    3.1541 H   0  0  0  0  0  0  0  0  0  0  0  0
    5.5992   -7.6562    1.6527 H   0  0  0  0  0  0  0  0  0  0  0  0
    3.7481   -9.1934    4.1649 H   0  0  0  0  0  0  0  0  0  0  0  0
    3.0125  -10.3411    2.3860 H   0  0  0  0  0  0  0  0  0  0  0  0
    0.6404  -10.8044    2.3153 H   0  0  0  0  0  0  0  0  0  0  0  0
   -0.3050   -8.3196    3.0694 H   0  0  0  0  0  0  0  0  0  0  0  0
   -0.8545   -9.7881    3.8609 H   0  0  0  0  0  0  0  0  0  0  0  0
    3.6456   -8.9696    6.5639 H   0  0  0  0  0  0  0  0  0  0  0  0
    2.5993  -10.2294    5.9539 H   0  0  0  0  0  0  0  0  0  0  0  0
    2.0346   -9.1089    7.1609 H   0  0  0  0  0  0  0  0  0  0  0  0
  1  2  2  0
  1 46  1  0
  1 47  1  0
  2  3  1  0
  2 48  1  0
  3 27  1  0
  3  4  1  1
  3  5  1  0
  4 49  1  0
  5  6  1  0
  5 50  1  0
  5 51  1  0
  6 28  1  0
  6  7  1  6
  6  8  1  0
  7 52  1  0
  7 53  1  0
  7 54  1  0
  8  9  1  0
  8 55  1  0
  8 56  1  0
  9 27  1  0
  9 10  1  1
  9 11  1  0
 10 57  1  0
 10 58  1  0
 10 59  1  0
 11 21  1  0
 11 12  1  0
 11 60  1  1
 12 13  1  0
 12 14  1  0
 12 61  1  6
 13 62  1  0
 14 15  1  0
 14 63  1  0
 14 64  1  0
 15 32  1  0
 15 16  1  0
 15 65  1  1
 16 44  1  0
 16 17  1  0
 16 66  1  1
 17 18  1  0
 17 67  1  0
 17 68  1  0
 18 19  1  0
 18 69  1  0
 18 70  1  0
 19 20  1  6
 19 21  1  0
 19 30  1  0
 20 71  1  0
 21 22  1  0
 21 72  1  6
 22 23  1  0
 22 73  1  0
 22 74  1  0
 23 24  1  6
 23 25  1  0
 23 28  1  0
 24 75  1  0
 25 26  1  0
 25 27  1  0
 25 76  1  1
 26 77  1  0
 27 78  1  1
 28 29  1  0
 28 79  1  6
 29 80  1  0
 30 31  1  6
 30 32  1  0
 30 35  1  0
 31 81  1  0
 32 33  1  0
 32 34  1  0
 33 82  1  0
 33 83  1  0
 33 84  1  0
 34 85  1  0
 34 86  1  0
 34 87  1  0
 35 36  1  0
 35 37  1  0
 35 38  1  0
 36 88  1  0
 36 89  1  0
 36 90  1  0
 37 91  1  0
 37 92  1  0
 37 93  1  0
 38 44  1  0
 38 39  1  0
 38 94  1  1
 39 40  2  0
 39 95  1  0
 40 41  1  0
 40 96  1  0
 41 42  1  0
 41 97  1  0
 41 98  1  0
 42 43  2  0
 42 44  1  0
 44 45  1  1
 45 99  1  0
 45100  1  0
 45101  1  0
M  END
>  <i_m_ct_stereo_status>  (216) 
1

>  <s_m_source_file>  (216) 
/var/tmp/pbs.5076255.sched01/tmpyc7t0a4i/88yk12rjyo.sdf

>  <i_m_source_file_index>  (216) 
4

>  <i_lp_mmshare_version>  (216) 
48012

>  <i_f3d_flags>  (216) 
0

>  <s_epik_input>  (216) 
W0NIM11bQ0BAXTEyW0NIMl1bQ0BdKFtPSF0pKFtDSF09W0NIMl0pW0NASF0zW0NAXShbQ0gyXTEpKFtDSDNdKVtDQEhdNFtDQEBIXShbQ0gyXVtDQF0oW09IXSkoW0NASF0zW09IXSlbQ0BIXTJbT0hdKVtDQEBdNShbT0hdKVtDQEBdNihbT0hdKUMoW0NIM10pKFtDSDNdKVtDQEBIXShbQ0gyXVtDQEBIXTRbT0hdKVtDQEBIXShbQ0gyXVtDSDJdNSlbQ0BdNyhbQ0gzXSlbQ0BIXShDNihbQ0gzXSlbQ0gzXSlbQ0hdPVtDSF1bQ0gyXUM3PU8=

>  <s_epik_cmdline>  (216) 
J2VwaWtfcHl0aG9uJywgJy1waHQnLCAnMi4wJywgJy1waCcsICc3LjAnLCAnLXRuJywgJzgnLCAnLW1hJywgJzIwMCcsICctaW1hZScsICc8aW5maWxlLm1hZT4nLCAnLW9tYWUnLCAnPG91dGZpbGUubWFlPic=

>  <r_lp_tautomer_probability>  (216) 
1

>  <r_epik_Ionization_Penalty>  (216) 
4.24226e-06

>  <r_epik_Ionization_Penalty_Charging>  (216) 
0

>  <r_epik_Ionization_Penalty_Neutral>  (216) 
4.24226e-06

>  <r_epik_State_Penalty>  (216) 
-0

>  <r_epik_Charging_Adjusted_Penalty>  (216) 
0

>  <i_epik_Tot_Q>  (216) 
0

>  <i_epik_Tot_abs_Q>  (216) 
0

>  <s_lp_Force_Field>  (216) 
OPLS3e

>  <r_lp_Energy>  (216) 
226.423

>  <b_lp_Chiralities_Consistent>  (216) 
1

>  <s_lp_Variant>  (216) 
55:0-1

>  <s_i_glide_gridfile>  (216) 
pfpi4k_grid

>  <i_i_glide_lignum>  (216) 
4

>  <i_i_glide_rotatable_bonds>  (216) 
8

>  <r_i_docking_score>  (216) 
-2.54167

>  <r_i_glide_ligand_efficiency>  (216) 
-0.0564816

>  <r_i_glide_ligand_efficiency_sa>  (216) 
-0.200899

>  <r_i_glide_ligand_efficiency_ln>  (216) 
-0.528781

>  <r_i_glide_gscore>  (216) 
-2.54167

>  <r_i_glide_lipo>  (216) 
-0.20434

>  <r_i_glide_hbond>  (216) 
0

>  <r_i_glide_metal>  (216) 
-0

>  <r_i_glide_rewards>  (216) 
0

>  <r_i_glide_evdw>  (216) 
-31.1673

>  <r_i_glide_ecoul>  (216) 
-5.31138

>  <r_i_glide_erotb>  (216) 
0.0534563

>  <r_i_glide_esite>  (216) 
-0.0357127

>  <r_i_glide_emodel>  (216) 
-42.2678

>  <r_i_glide_energy>  (216) 
-36.4787

>  <r_i_glide_einternal>  (216) 
0.742305

>  <r_i_glide_intrahb_reward>  (216) 
-0

>  <i_i_glide_confnum>  (216) 
3

>  <i_i_glide_posenum>  (216) 
22

>  <r_i_glide_eff_state_penalty>  (216) 
0

>  <ligand_id>  (216) 
55

>  <original_smiles>  (216) 
C=CC1(O)CC2(C)CC3(C)C4C(O)CC5C6CCC(O)(C4CC(O)(C(O)C13)C2O)C(O)(C5(C)C)C(C)(C)C1C=CCC(=O)C61C

>  <smiles>  (216) 
[H]OC1([H])C([H])([H])C2([H])C3([H])C([H])([H])C([H])([H])C(O[H])(C4([H])C([H])([H])C5(O[H])C([H])(O[H])C6([H])C(O[H])(C([H])=C([H])[H])C([H])([H])C(C([H])([H])[H])(C([H])([H])C6(C([H])([H])[H])C14[H])C5([H])O[H])C(O[H])(C(C([H])([H])[H])(C([H])([H])[H])C1([H])C([H])=C([H])C([H])([H])C(=O)C13C([H])([H])[H])C2(C([H])([H])[H])C([H])([H])[H]

$$$$
55:0:2
     RDKit          3D

101107  0  0  1  0  0  0  0  0999 V2000
    1.9381    3.4788    6.3397 C   0  0  0  0  0  0  0  0  0  0  0  0
    1.5804    2.2254    6.6753 C   0  0  0  0  0  0  0  0  0  0  0  0
    1.0313    1.1232    5.7680 C   0  0  1  0  0  0  0  0  0  0  0  0
   -0.2976    0.9603    6.2234 O   0  0  0  0  0  0  0  0  0  0  0  0
    0.9333    1.5232    4.2788 C   0  0  0  0  0  0  0  0  0  0  0  0
    1.0212    0.3315    3.2841 C   0  0  2  0  0  0  0  0  0  0  0  0
    0.1174    0.7177    2.0807 C   0  0  0  0  0  0  0  0  0  0  0  0
    0.4323   -0.9624    3.9157 C   0  0  0  0  0  0  0  0  0  0  0  0
    1.0808   -1.4652    5.2633 C   0  0  1  0  0  0  0  0  0  0  0  0
   -0.1532   -1.8790    6.1681 C   0  0  0  0  0  0  0  0  0  0  0  0
    1.9740   -2.8089    5.1123 C   0  0  2  0  0  0  0  0  0  0  0  0
    2.6391   -3.3813    6.4316 C   0  0  1  0  0  0  0  0  0  0  0  0
    2.0092   -2.9592    7.6222 O   0  0  0  0  0  0  0  0  0  0  0  0
    2.7285   -4.9332    6.6702 C   0  0  0  0  0  0  0  0  0  0  0  0
    3.4104   -5.9824    5.7155 C   0  0  1  0  0  0  0  0  0  0  0  0
    2.3724   -6.8395    4.8959 C   0  0  1  0  0  0  0  0  0  0  0  0
    1.3130   -5.9826    4.1760 C   0  0  0  0  0  0  0  0  0  0  0  0
    1.8317   -5.1776    2.9933 C   0  0  0  0  0  0  0  0  0  0  0  0
    3.1636   -4.3820    3.1425 C   0  0  1  0  0  0  0  0  0  0  0  0
    3.3142   -3.9585    1.7899 O   0  0  0  0  0  0  0  0  0  0  0  0
    2.8783   -2.9378    3.8152 C   0  0  2  0  0  0  0  0  0  0  0  0
    3.9759   -1.8465    3.6126 C   0  0  0  0  0  0  0  0  0  0  0  0
    3.5602   -0.3692    3.8280 C   0  0  2  0  0  0  0  0  0  0  0  0
    4.7752    0.2789    3.4860 O   0  0  0  0  0  0  0  0  0  0  0  0
    3.3114   -0.1085    5.3563 C   0  0  1  0  0  0  0  0  0  0  0  0
    4.0046    1.0291    5.8484 O   0  0  0  0  0  0  0  0  0  0  0  0
    1.8416   -0.2266    5.8961 C   0  0  1  0  0  0  0  0  0  0  0  0
    2.5008    0.1919    2.8044 C   0  0  1  0  0  0  0  0  0  0  0  0
    2.5573   -0.5471    1.5944 O   0  0  0  0  0  0  0  0  0  0  0  0
    4.4789   -5.3157    3.4539 C   0  0  1  0  0  0  0  0  0  0  0  0
    5.5470   -4.4736    3.0519 O   0  0  0  0  0  0  0  0  0  0  0  0
    4.7529   -5.5796    5.0136 C   0  0  0  0  0  0  0  0  0  0  0  0
    5.4743   -4.4068    5.7414 C   0  0  0  0  0  0  0  0  0  0  0  0
    5.8386   -6.6409    5.3718 C   0  0  0  0  0  0  0  0  0  0  0  0
    4.6557   -6.6514    2.5048 C   0  0  0  0  0  0  0  0  0  0  0  0
    4.2893   -6.4159    0.9910 C   0  0  0  0  0  0  0  0  0  0  0  0
    6.1820   -7.0025    2.2777 C   0  0  0  0  0  0  0  0  0  0  0  0
    3.9970   -8.0197    3.0283 C   0  0  2  0  0  0  0  0  0  0  0  0
    3.8679   -9.0485    1.9037 C   0  0  0  0  0  0  0  0  0  0  0  0
    2.7007   -9.5484    1.4896 C   0  0  0  0  0  0  0  0  0  0  0  0
    1.3954   -9.1029    2.0804 C   0  0  0  0  0  0  0  0  0  0  0  0
    1.5454   -8.8489    3.5743 C   0  0  0  0  0  0  0  0  0  0  0  0
    0.6130   -9.1552    4.3254 O   0  0  0  0  0  0  0  0  0  0  0  0
    2.8303   -8.1479    4.1285 C   0  0  2  0  0  0  0  0  0  0  0  0
    3.3009   -9.1901    5.1963 C   0  0  0  0  0  0  0  0  0  0  0  0
    1.8592    3.8726    5.3349 H   0  0  0  0  0  0  0  0  0  0  0  0
    2.3251    4.1498    7.0961 H   0  0  0  0  0  0  0  0  0  0  0  0
    1.6893    1.9396    7.7117 H   0  0  0  0  0  0  0  0  0  0  0  0
   -0.7825    1.7376    5.9823 H   0  0  0  0  0  0  0  0  0  0  0  0
    0.0201    2.1058    4.1193 H   0  0  0  0  0  0  0  0  0  0  0  0
    1.7375    2.2137    4.0245 H   0  0  0  0  0  0  0  0  0  0  0  0
    0.0597   -0.0816    1.3381 H   0  0  0  0  0  0  0  0  0  0  0  0
    0.4700    1.6220    1.5754 H   0  0  0  0  0  0  0  0  0  0  0  0
   -0.9103    0.9062    2.4093 H   0  0  0  0  0  0  0  0  0  0  0  0
   -0.6141   -0.7023    4.0787 H   0  0  0  0  0  0  0  0  0  0  0  0
    0.3321   -1.7644    3.1892 H   0  0  0  0  0  0  0  0  0  0  0  0
    0.0041   -1.6011    7.2111 H   0  0  0  0  0  0  0  0  0  0  0  0
   -0.3779   -2.9467    6.1399 H   0  0  0  0  0  0  0  0  0  0  0  0
   -1.0961   -1.4023    5.9096 H   0  0  0  0  0  0  0  0  0  0  0  0
    1.1792   -3.4865    4.8798 H   0  0  0  0  0  0  0  0  0  0  0  0
    3.5873   -2.8952    6.5989 H   0  0  0  0  0  0  0  0  0  0  0  0
    1.1676   -3.3826    7.6868 H   0  0  0  0  0  0  0  0  0  0  0  0
    3.2588   -5.0427    7.6185 H   0  0  0  0  0  0  0  0  0  0  0  0
    1.7304   -5.3010    6.9110 H   0  0  0  0  0  0  0  0  0  0  0  0
    3.7231   -6.7194    6.4562 H   0  0  0  0  0  0  0  0  0  0  0  0
    1.7631   -7.2600    5.6986 H   0  0  0  0  0  0  0  0  0  0  0  0
    0.4806   -6.5783    3.8071 H   0  0  0  0  0  0  0  0  0  0  0  0
    0.7810   -5.3987    4.9151 H   0  0  0  0  0  0  0  0  0  0  0  0
    1.8811   -5.8956    2.1841 H   0  0  0  0  0  0  0  0  0  0  0  0
    1.0349   -4.4988    2.6899 H   0  0  0  0  0  0  0  0  0  0  0  0
    3.4073   -4.7274    1.2464 H   0  0  0  0  0  0  0  0  0  0  0  0
    2.1711   -2.5702    3.0893 H   0  0  0  0  0  0  0  0  0  0  0  0
    4.8636   -2.0140    4.2050 H   0  0  0  0  0  0  0  0  0  0  0  0
    4.3752   -1.9265    2.6008 H   0  0  0  0  0  0  0  0  0  0  0  0
    4.6041    1.2079    3.4236 H   0  0  0  0  0  0  0  0  0  0  0  0
    3.8651   -0.8866    5.8760 H   0  0  0  0  0  0  0  0  0  0  0  0
    3.6036    1.8093    5.4933 H   0  0  0  0  0  0  0  0  0  0  0  0
    1.9414   -0.4153    6.9670 H   0  0  0  0  0  0  0  0  0  0  0  0
    2.8154    1.1920    2.4976 H   0  0  0  0  0  0  0  0  0  0  0  0
    1.8789   -0.2537    0.9980 H   0  0  0  0  0  0  0  0  0  0  0  0
    5.3729   -4.2191    2.1571 H   0  0  0  0  0  0  0  0  0  0  0  0
    6.5304   -4.3267    5.4836 H   0  0  0  0  0  0  0  0  0  0  0  0
    5.4318   -4.5079    6.8267 H   0  0  0  0  0  0  0  0  0  0  0  0
    5.0977   -3.4494    5.4786 H   0  0  0  0  0  0  0  0  0  0  0  0
    6.8225   -6.3722    4.9870 H   0  0  0  0  0  0  0  0  0  0  0  0
    5.6477   -7.6496    5.0583 H   0  0  0  0  0  0  0  0  0  0  0  0
    5.9656   -6.7201    6.4535 H   0  0  0  0  0  0  0  0  0  0  0  0
    4.6433   -7.2096    0.3326 H   0  0  0  0  0  0  0  0  0  0  0  0
    4.7789   -5.5275    0.5897 H   0  0  0  0  0  0  0  0  0  0  0  0
    3.2293   -6.3672    0.7704 H   0  0  0  0  0  0  0  0  0  0  0  0
    6.3142   -7.8188    1.5662 H   0  0  0  0  0  0  0  0  0  0  0  0
    6.7201   -7.3536    3.1502 H   0  0  0  0  0  0  0  0  0  0  0  0
    6.7644   -6.1820    1.8549 H   0  0  0  0  0  0  0  0  0  0  0  0
    4.8212   -8.5428    3.5003 H   0  0  0  0  0  0  0  0  0  0  0  0
    4.7759   -9.3914    1.4278 H   0  0  0  0  0  0  0  0  0  0  0  0
    2.6527  -10.2509    0.6815 H   0  0  0  0  0  0  0  0  0  0  0  0
    1.0149   -8.2222    1.5646 H   0  0  0  0  0  0  0  0  0  0  0  0
    0.6707   -9.9054    1.9462 H   0  0  0  0  0  0  0  0  0  0  0  0
    4.1461   -8.8728    5.7972 H   0  0  0  0  0  0  0  0  0  0  0  0
    3.5813  -10.1367    4.7286 H   0  0  0  0  0  0  0  0  0  0  0  0
    2.5201   -9.4329    5.9184 H   0  0  0  0  0  0  0  0  0  0  0  0
  1  2  2  0
  1 46  1  0
  1 47  1  0
  2  3  1  0
  2 48  1  0
  3 27  1  0
  3  4  1  1
  3  5  1  0
  4 49  1  0
  5  6  1  0
  5 50  1  0
  5 51  1  0
  6 28  1  0
  6  7  1  6
  6  8  1  0
  7 52  1  0
  7 53  1  0
  7 54  1  0
  8  9  1  0
  8 55  1  0
  8 56  1  0
  9 27  1  0
  9 10  1  1
  9 11  1  0
 10 57  1  0
 10 58  1  0
 10 59  1  0
 11 21  1  0
 11 12  1  0
 11 60  1  6
 12 13  1  0
 12 14  1  0
 12 61  1  1
 13 62  1  0
 14 15  1  0
 14 63  1  0
 14 64  1  0
 15 32  1  0
 15 16  1  0
 15 65  1  1
 16 44  1  0
 16 17  1  0
 16 66  1  1
 17 18  1  0
 17 67  1  0
 17 68  1  0
 18 19  1  0
 18 69  1  0
 18 70  1  0
 19 20  1  6
 19 21  1  0
 19 30  1  0
 20 71  1  0
 21 22  1  0
 21 72  1  6
 22 23  1  0
 22 73  1  0
 22 74  1  0
 23 24  1  6
 23 25  1  0
 23 28  1  0
 24 75  1  0
 25 26  1  0
 25 27  1  0
 25 76  1  1
 26 77  1  0
 27 78  1  1
 28 29  1  0
 28 79  1  6
 29 80  1  0
 30 31  1  6
 30 32  1  0
 30 35  1  0
 31 81  1  0
 32 33  1  0
 32 34  1  0
 33 82  1  0
 33 83  1  0
 33 84  1  0
 34 85  1  0
 34 86  1  0
 34 87  1  0
 35 36  1  0
 35 37  1  0
 35 38  1  0
 36 88  1  0
 36 89  1  0
 36 90  1  0
 37 91  1  0
 37 92  1  0
 37 93  1  0
 38 44  1  0
 38 39  1  0
 38 94  1  1
 39 40  2  0
 39 95  1  0
 40 41  1  0
 40 96  1  0
 41 42  1  0
 41 97  1  0
 41 98  1  0
 42 43  2  0
 42 44  1  0
 44 45  1  1
 45 99  1  0
 45100  1  0
 45101  1  0
M  END
>  <i_m_ct_stereo_status>  (217) 
1

>  <s_m_source_file>  (217) 
/var/tmp/pbs.5076255.sched01/tmpyc7t0a4i/88yk12rjyo.sdf

>  <i_m_source_file_index>  (217) 
4

>  <i_lp_mmshare_version>  (217) 
48012

>  <i_f3d_flags>  (217) 
0

>  <s_epik_input>  (217) 
W0NIM11bQ0BAXTEyW0NIMl1bQ0BdKFtPSF0pKFtDSF09W0NIMl0pW0NASF0zW0NAXShbQ0gyXTEpKFtDSDNdKVtDQEhdNFtDQEBIXShbQ0gyXVtDQF0oW09IXSkoW0NASF0zW09IXSlbQ0BIXTJbT0hdKVtDQEBdNShbT0hdKVtDQEBdNihbT0hdKUMoW0NIM10pKFtDSDNdKVtDQEBIXShbQ0gyXVtDQEBIXTRbT0hdKVtDQEBIXShbQ0gyXVtDSDJdNSlbQ0BdNyhbQ0gzXSlbQ0BIXShDNihbQ0gzXSlbQ0gzXSlbQ0hdPVtDSF1bQ0gyXUM3PU8=

>  <s_epik_cmdline>  (217) 
J2VwaWtfcHl0aG9uJywgJy1waHQnLCAnMi4wJywgJy1waCcsICc3LjAnLCAnLXRuJywgJzgnLCAnLW1hJywgJzIwMCcsICctaW1hZScsICc8aW5maWxlLm1hZT4nLCAnLW9tYWUnLCAnPG91dGZpbGUubWFlPic=

>  <r_lp_tautomer_probability>  (217) 
1

>  <r_epik_Ionization_Penalty>  (217) 
4.24226e-06

>  <r_epik_Ionization_Penalty_Charging>  (217) 
0

>  <r_epik_Ionization_Penalty_Neutral>  (217) 
4.24226e-06

>  <r_epik_State_Penalty>  (217) 
-0

>  <r_epik_Charging_Adjusted_Penalty>  (217) 
0

>  <i_epik_Tot_Q>  (217) 
0

>  <i_epik_Tot_abs_Q>  (217) 
0

>  <s_lp_Force_Field>  (217) 
OPLS3e

>  <r_lp_Energy>  (217) 
226.423

>  <b_lp_Chiralities_Consistent>  (217) 
1

>  <s_lp_Variant>  (217) 
55:0-1

>  <s_i_glide_gridfile>  (217) 
pfpi4k_grid

>  <i_i_glide_lignum>  (217) 
4

>  <i_i_glide_rotatable_bonds>  (217) 
8

>  <r_i_docking_score>  (217) 
-2.13502

>  <r_i_glide_ligand_efficiency>  (217) 
-0.047445

>  <r_i_glide_ligand_efficiency_sa>  (217) 
-0.168757

>  <r_i_glide_ligand_efficiency_ln>  (217) 
-0.44418

>  <r_i_glide_gscore>  (217) 
-2.13502

>  <r_i_glide_lipo>  (217) 
-0.165921

>  <r_i_glide_hbond>  (217) 
0

>  <r_i_glide_metal>  (217) 
-0

>  <r_i_glide_rewards>  (217) 
0

>  <r_i_glide_evdw>  (217) 
-30.1097

>  <r_i_glide_ecoul>  (217) 
-3.36715

>  <r_i_glide_erotb>  (217) 
0.0534563

>  <r_i_glide_esite>  (217) 
-0.0120013

>  <r_i_glide_emodel>  (217) 
-38.155

>  <r_i_glide_energy>  (217) 
-33.4769

>  <r_i_glide_einternal>  (217) 
0.803623

>  <r_i_glide_intrahb_reward>  (217) 
-0

>  <i_i_glide_confnum>  (217) 
3

>  <i_i_glide_posenum>  (217) 
17

>  <r_i_glide_eff_state_penalty>  (217) 
0

>  <ligand_id>  (217) 
55

>  <original_smiles>  (217) 
C=CC1(O)CC2(C)CC3(C)C4C(O)CC5C6CCC(O)(C4CC(O)(C(O)C13)C2O)C(O)(C5(C)C)C(C)(C)C1C=CCC(=O)C61C

>  <smiles>  (217) 
[H]OC1([H])C([H])([H])C2([H])C3([H])C([H])([H])C([H])([H])C(O[H])(C4([H])C([H])([H])C5(O[H])C([H])(O[H])C6([H])C(O[H])(C([H])=C([H])[H])C([H])([H])C(C([H])([H])[H])(C([H])([H])C6(C([H])([H])[H])C14[H])C5([H])O[H])C(O[H])(C(C([H])([H])[H])(C([H])([H])[H])C1([H])C([H])=C([H])C([H])([H])C(=O)C13C([H])([H])[H])C2(C([H])([H])[H])C([H])([H])[H]

$$$$
56:0:0
     RDKit          3D

 76 82  0  0  1  0  0  0  0  0999 V2000
    5.3164   -1.7296    2.2087 C   0  0  0  0  0  0  0  0  0  0  0  0
    4.1211   -2.7122    2.1725 C   0  0  1  0  0  0  0  0  0  0  0  0
    3.2562   -2.2586    3.1984 O   0  0  0  0  0  0  0  0  0  0  0  0
    3.3256   -2.7115    0.7955 C   0  0  0  0  0  0  0  0  0  0  0  0
    2.9958   -4.1147    0.1263 C   0  0  2  0  0  0  0  0  0  0  0  0
    2.7706   -3.8398   -1.2404 O   0  0  0  0  0  0  0  0  0  0  0  0
    1.8685   -4.7336    0.8123 O   0  0  0  0  0  0  0  0  0  0  0  0
    2.5413   -6.0080    0.8748 C   0  0  2  0  0  0  0  0  0  0  0  0
    2.3846   -6.6748    2.2441 C   0  0  2  0  0  0  0  0  0  0  0  0
    1.5741   -7.9668    2.3195 C   0  0  0  0  0  0  0  0  0  0  0  0
    1.8577   -8.8001    3.6078 C   0  0  1  0  0  0  0  0  0  0  0  0
    1.1216   -8.2503    4.6793 O   0  0  0  0  0  0  0  0  0  0  0  0
    1.0968  -10.1381    3.4185 C   0  0  0  0  0  0  0  0  0  0  0  0
    1.2108  -11.0573    4.6313 C   0  0  1  0  0  0  0  0  0  0  0  0
    0.6115  -12.2625    4.2823 O   0  0  0  0  0  0  0  0  0  0  0  0
    2.6519  -11.3050    5.0637 C   0  0  0  0  0  0  0  0  0  0  0  0
    3.4494   -9.9966    5.2082 C   0  0  1  0  0  0  0  0  0  0  0  0
    4.7696  -10.3974    5.5301 O   0  0  0  0  0  0  0  0  0  0  0  0
    3.4100   -8.9978    3.9801 C   0  0  1  0  0  0  0  0  0  0  0  0
    3.9963   -9.8113    2.7617 C   0  0  0  0  0  0  0  0  0  0  0  0
    4.3835   -7.7002    4.3725 C   0  0  1  0  0  0  0  0  0  0  0  0
    5.8183   -7.8343    3.8113 C   0  0  0  0  0  0  0  0  0  0  0  0
    5.9337   -7.2836    2.3884 C   0  0  0  0  0  0  0  0  0  0  0  0
    5.8320   -5.7694    2.4357 C   0  0  1  0  0  0  0  0  0  0  0  0
    7.2092   -5.4621    2.5347 O   0  0  0  0  0  0  0  0  0  0  0  0
    5.1017   -4.9655    1.3050 C   0  0  1  0  0  0  0  0  0  0  0  0
    6.1163   -4.2621    0.3790 C   0  0  0  0  0  0  0  0  0  0  0  0
    3.8781   -5.3595    0.4223 C   0  0  2  0  0  0  0  0  0  0  0  0
    4.4791   -4.1779    2.4426 C   0  0  1  0  0  0  0  0  0  0  0  0
    5.0266   -5.0888    3.5878 C   0  0  2  0  0  0  0  0  0  0  0  0
    5.8121   -4.2902    4.4524 O   0  0  0  0  0  0  0  0  0  0  0  0
    4.0887   -6.0729    4.5237 C   0  0  2  0  0  0  0  0  0  0  0  0
    4.4480   -5.8211    6.0406 C   0  0  0  0  0  0  0  0  0  0  0  0
    2.5552   -5.6673    4.4986 C   0  0  1  0  0  0  0  0  0  0  0  0
    2.3899   -4.3365    4.9502 O   0  0  0  0  0  0  0  0  0  0  0  0
    1.8985   -5.7935    3.2534 O   0  0  0  0  0  0  0  0  0  0  0  0
    5.9556   -1.7873    1.3300 H   0  0  0  0  0  0  0  0  0  0  0  0
    5.9443   -1.9135    3.0805 H   0  0  0  0  0  0  0  0  0  0  0  0
    4.9860   -0.6928    2.2598 H   0  0  0  0  0  0  0  0  0  0  0  0
    3.0412   -1.3574    2.9987 H   0  0  0  0  0  0  0  0  0  0  0  0
    2.4237   -2.1021    0.8726 H   0  0  0  0  0  0  0  0  0  0  0  0
    3.9371   -2.1411    0.0989 H   0  0  0  0  0  0  0  0  0  0  0  0
    2.6933   -4.6868   -1.6954 H   0  0  0  0  0  0  0  0  0  0  0  0
    2.1531   -6.6389    0.0877 H   0  0  0  0  0  0  0  0  0  0  0  0
    3.3803   -6.9808    2.4087 H   0  0  0  0  0  0  0  0  0  0  0  0
    0.5062   -7.7466    2.2411 H   0  0  0  0  0  0  0  0  0  0  0  0
    1.8005   -8.5748    1.4397 H   0  0  0  0  0  0  0  0  0  0  0  0
    1.1138   -8.8770    5.3881 H   0  0  0  0  0  0  0  0  0  0  0  0
    0.0341   -9.9459    3.2484 H   0  0  0  0  0  0  0  0  0  0  0  0
    1.4152  -10.6588    2.5139 H   0  0  0  0  0  0  0  0  0  0  0  0
    0.6288  -10.6656    5.4651 H   0  0  0  0  0  0  0  0  0  0  0  0
    1.2067  -12.8183    3.7845 H   0  0  0  0  0  0  0  0  0  0  0  0
    2.6432  -11.8203    6.0242 H   0  0  0  0  0  0  0  0  0  0  0  0
    3.1400  -12.0008    4.3796 H   0  0  0  0  0  0  0  0  0  0  0  0
    3.0567   -9.4749    6.0814 H   0  0  0  0  0  0  0  0  0  0  0  0
    5.0587  -11.0276    4.8865 H   0  0  0  0  0  0  0  0  0  0  0  0
    5.0368  -10.1132    2.8512 H   0  0  0  0  0  0  0  0  0  0  0  0
    3.8851   -9.3014    1.8070 H   0  0  0  0  0  0  0  0  0  0  0  0
    3.5092  -10.7699    2.6048 H   0  0  0  0  0  0  0  0  0  0  0  0
    4.5749   -7.9667    5.4034 H   0  0  0  0  0  0  0  0  0  0  0  0
    6.4974   -7.2678    4.4512 H   0  0  0  0  0  0  0  0  0  0  0  0
    6.2168   -8.8389    3.8891 H   0  0  0  0  0  0  0  0  0  0  0  0
    6.8647   -7.6307    1.9374 H   0  0  0  0  0  0  0  0  0  0  0  0
    5.1883   -7.6860    1.7181 H   0  0  0  0  0  0  0  0  0  0  0  0
    7.6751   -6.1890    2.1471 H   0  0  0  0  0  0  0  0  0  0  0  0
    5.6466   -3.5836   -0.3293 H   0  0  0  0  0  0  0  0  0  0  0  0
    6.6593   -4.9942   -0.2147 H   0  0  0  0  0  0  0  0  0  0  0  0
    6.8571   -3.6784    0.9263 H   0  0  0  0  0  0  0  0  0  0  0  0
    4.2071   -5.8422   -0.4921 H   0  0  0  0  0  0  0  0  0  0  0  0
    3.4927   -4.5000    2.5669 H   0  0  0  0  0  0  0  0  0  0  0  0
    5.2199   -3.6290    4.7840 H   0  0  0  0  0  0  0  0  0  0  0  0
    4.3292   -4.7876    6.3698 H   0  0  0  0  0  0  0  0  0  0  0  0
    5.4843   -6.0827    6.2507 H   0  0  0  0  0  0  0  0  0  0  0  0
    3.8303   -6.4128    6.7145 H   0  0  0  0  0  0  0  0  0  0  0  0
    2.0191   -6.2369    5.2477 H   0  0  0  0  0  0  0  0  0  0  0  0
    2.8021   -3.7543    4.3189 H   0  0  0  0  0  0  0  0  0  0  0  0
  1  2  1  0
  1 37  1  0
  1 38  1  0
  1 39  1  0
  2 29  1  0
  2  3  1  1
  2  4  1  0
  3 40  1  0
  4  5  1  0
  4 41  1  0
  4 42  1  0
  5 28  1  0
  5  6  1  6
  5  7  1  0
  6 43  1  0
  7  8  1  0
  8 28  1  0
  8  9  1  0
  8 44  1  6
  9 36  1  0
  9 10  1  0
  9 45  1  1
 10 11  1  0
 10 46  1  0
 10 47  1  0
 11 19  1  0
 11 12  1  1
 11 13  1  0
 12 48  1  0
 13 14  1  0
 13 49  1  0
 13 50  1  0
 14 15  1  0
 14 16  1  0
 14 51  1  1
 15 52  1  0
 16 17  1  0
 16 53  1  0
 16 54  1  0
 17 18  1  0
 17 19  1  0
 17 55  1  1
 18 56  1  0
 19 20  1  6
 19 21  1  0
 20 57  1  0
 20 58  1  0
 20 59  1  0
 21 32  1  0
 21 22  1  0
 21 60  1  1
 22 23  1  0
 22 61  1  0
 22 62  1  0
 23 24  1  0
 23 63  1  0
 23 64  1  0
 24 30  1  0
 24 25  1  1
 24 26  1  0
 25 65  1  0
 26 27  1  6
 26 28  1  0
 26 29  1  0
 27 66  1  0
 27 67  1  0
 27 68  1  0
 28 69  1  6
 29 30  1  0
 29 70  1  6
 30 31  1  1
 30 32  1  0
 31 71  1  0
 32 33  1  1
 32 34  1  0
 33 72  1  0
 33 73  1  0
 33 74  1  0
 34 35  1  0
 34 36  1  0
 34 75  1  1
 35 76  1  0
M  END
>  <i_m_ct_stereo_status>  (218) 
1

>  <s_m_source_file>  (218) 
/var/tmp/pbs.5076255.sched01/tmpyc7t0a4i/88yk12rjyo.sdf

>  <i_m_source_file_index>  (218) 
5

>  <i_lp_mmshare_version>  (218) 
48012

>  <i_f3d_flags>  (218) 
0

>  <s_epik_input>  (218) 
W0NIM11bQ0BAXShbT0hdKShbQ0gyXTEpW0NASF0yW0NAQF0zKFtDSDNdKVtDQF0oW09IXSkoW0NIMl1bQ0gyXTQpW0NAXTIoW09IXSlbQ0BAXShbQ0gzXSkoW0NASF0oTzUpW09IXSlbQ0BIXTRbQ0BAXShbQ0gzXSkoW0NASF0oW09IXSlbQ0gyXVtDQEBIXShbQ0gyXTYpW09IXSlbQ0BAXTYoW09IXSlbQ0gyXVtDQEhdNVtDQEBIXShPNylbQ0BIXTNbQ0BdMTdbT0hd

>  <s_epik_cmdline>  (218) 
J2VwaWtfcHl0aG9uJywgJy1waHQnLCAnMi4wJywgJy1waCcsICc3LjAnLCAnLXRuJywgJzgnLCAnLW1hJywgJzIwMCcsICctaW1hZScsICc8aW5maWxlLm1hZT4nLCAnLW9tYWUnLCAnPG91dGZpbGUubWFlPic=

>  <r_lp_tautomer_probability>  (218) 
1

>  <r_epik_Ionization_Penalty>  (218) 
2.30194e-06

>  <r_epik_Ionization_Penalty_Charging>  (218) 
0

>  <r_epik_Ionization_Penalty_Neutral>  (218) 
2.30194e-06

>  <r_epik_State_Penalty>  (218) 
-0

>  <r_epik_Charging_Adjusted_Penalty>  (218) 
0

>  <i_epik_Tot_Q>  (218) 
0

>  <i_epik_Tot_abs_Q>  (218) 
0

>  <s_epik_Chemistry_Notes>  (218) 
This compound contains an acetal/aminal-like group ( X-CH(R)-Y where X, Y are N, S, or O) that may be acid/base labile, releasing an aldehyde.

>  <s_lp_Force_Field>  (218) 
OPLS3e

>  <r_lp_Energy>  (218) 
192.387

>  <b_lp_Chiralities_Consistent>  (218) 
1

>  <s_lp_Variant>  (218) 
56:0-1

>  <s_i_glide_gridfile>  (218) 
pfpi4k_grid

>  <i_i_glide_lignum>  (218) 
5

>  <i_i_glide_rotatable_bonds>  (218) 
8

>  <r_i_docking_score>  (218) 
-3.50125

>  <r_i_glide_ligand_efficiency>  (218) 
-0.097257

>  <r_i_glide_ligand_efficiency_sa>  (218) 
-0.321136

>  <r_i_glide_ligand_efficiency_ln>  (218) 
-0.763879

>  <r_i_glide_gscore>  (218) 
-3.50125

>  <r_i_glide_lipo>  (218) 
-0.389532

>  <r_i_glide_hbond>  (218) 
-0.319821

>  <r_i_glide_metal>  (218) 
-0

>  <r_i_glide_rewards>  (218) 
-0.5

>  <r_i_glide_evdw>  (218) 
-14.3074

>  <r_i_glide_ecoul>  (218) 
-10.3601

>  <r_i_glide_erotb>  (218) 
0

>  <r_i_glide_esite>  (218) 
-0.0225217

>  <r_i_glide_emodel>  (218) 
-33.524

>  <r_i_glide_energy>  (218) 
-24.6675

>  <r_i_glide_einternal>  (218) 
2.49385

>  <r_i_glide_intrahb_reward>  (218) 
-0.5

>  <i_i_glide_confnum>  (218) 
2

>  <i_i_glide_posenum>  (218) 
38

>  <r_i_glide_eff_state_penalty>  (218) 
0

>  <ligand_id>  (218) 
56

>  <original_smiles>  (218) 
CC1(O)CC2(O)OC3C4CC5(O)CC(O)CC(O)C5(C)C5CCC6(O)C(C)(C32)C1C6(O)C5(C)C(O)O4

>  <smiles>  (218) 
[H]OC1([H])OC2([H])C([H])([H])C3(O[H])C([H])([H])C([H])(O[H])C([H])([H])C([H])(O[H])C3(C([H])([H])[H])C3([H])C([H])([H])C([H])([H])C4(O[H])C(O[H])(C5([H])C(O[H])(C([H])([H])[H])C([H])([H])C6(O[H])OC2([H])C6([H])C54C([H])([H])[H])C13C([H])([H])[H]

$$$$
56:0:1
     RDKit          3D

 76 82  0  0  1  0  0  0  0  0999 V2000
    5.3113   -1.7412    2.2229 C   0  0  0  0  0  0  0  0  0  0  0  0
    4.1118   -2.7228    2.1799 C   0  0  1  0  0  0  0  0  0  0  0  0
    3.2284   -2.2698    3.1894 O   0  0  0  0  0  0  0  0  0  0  0  0
    3.3244   -2.7135    0.8065 C   0  0  0  0  0  0  0  0  0  0  0  0
    2.9926   -4.1115    0.1376 C   0  0  2  0  0  0  0  0  0  0  0  0
    2.7570   -3.8496   -1.2279 O   0  0  0  0  0  0  0  0  0  0  0  0
    1.8731   -4.7273    0.8363 O   0  0  0  0  0  0  0  0  0  0  0  0
    2.5390   -6.0057    0.8812 C   0  0  2  0  0  0  0  0  0  0  0  0
    2.3809   -6.6886    2.2456 C   0  0  2  0  0  0  0  0  0  0  0  0
    1.5673   -7.9751    2.3148 C   0  0  0  0  0  0  0  0  0  0  0  0
    1.8527   -8.8100    3.5994 C   0  0  1  0  0  0  0  0  0  0  0  0
    1.1144   -8.2664    4.6721 O   0  0  0  0  0  0  0  0  0  0  0  0
    1.0934  -10.1513    3.4076 C   0  0  0  0  0  0  0  0  0  0  0  0
    1.2131  -11.0694    4.6208 C   0  0  1  0  0  0  0  0  0  0  0  0
    0.6188  -12.2729    4.2697 O   0  0  0  0  0  0  0  0  0  0  0  0
    2.6513  -11.3222    5.0479 C   0  0  0  0  0  0  0  0  0  0  0  0
    3.4492  -10.0096    5.1970 C   0  0  1  0  0  0  0  0  0  0  0  0
    4.7714  -10.4114    5.5154 O   0  0  0  0  0  0  0  0  0  0  0  0
    3.4063   -9.0073    3.9684 C   0  0  1  0  0  0  0  0  0  0  0  0
    3.9913   -9.8201    2.7483 C   0  0  0  0  0  0  0  0  0  0  0  0
    4.3791   -7.7102    4.3676 C   0  0  1  0  0  0  0  0  0  0  0  0
    5.8144   -7.8513    3.8084 C   0  0  0  0  0  0  0  0  0  0  0  0
    5.9303   -7.2936    2.3891 C   0  0  0  0  0  0  0  0  0  0  0  0
    5.8276   -5.7769    2.4477 C   0  0  1  0  0  0  0  0  0  0  0  0
    7.2008   -5.4803    2.5797 O   0  0  0  0  0  0  0  0  0  0  0  0
    5.1010   -4.9718    1.3109 C   0  0  1  0  0  0  0  0  0  0  0  0
    6.1180   -4.2690    0.3876 C   0  0  0  0  0  0  0  0  0  0  0  0
    3.8766   -5.3625    0.4290 C   0  0  2  0  0  0  0  0  0  0  0  0
    4.4753   -4.1874    2.4437 C   0  0  1  0  0  0  0  0  0  0  0  0
    5.0075   -5.0924    3.5870 C   0  0  2  0  0  0  0  0  0  0  0  0
    5.7679   -4.2669    4.4532 O   0  0  0  0  0  0  0  0  0  0  0  0
    4.0834   -6.0829    4.5220 C   0  0  2  0  0  0  0  0  0  0  0  0
    4.4468   -5.8416    6.0384 C   0  0  0  0  0  0  0  0  0  0  0  0
    2.5466   -5.6822    4.5016 C   0  0  1  0  0  0  0  0  0  0  0  0
    2.3839   -4.3531    4.9570 O   0  0  0  0  0  0  0  0  0  0  0  0
    1.8925   -5.8049    3.2560 O   0  0  0  0  0  0  0  0  0  0  0  0
    5.9538   -1.7961    1.3475 H   0  0  0  0  0  0  0  0  0  0  0  0
    5.9335   -1.9263    3.0950 H   0  0  0  0  0  0  0  0  0  0  0  0
    4.9801   -0.7043    2.2764 H   0  0  0  0  0  0  0  0  0  0  0  0
    3.0426   -1.3566    3.0131 H   0  0  0  0  0  0  0  0  0  0  0  0
    2.4195   -2.1055    0.8792 H   0  0  0  0  0  0  0  0  0  0  0  0
    3.9362   -2.1490    0.1070 H   0  0  0  0  0  0  0  0  0  0  0  0
    2.6328   -4.6714   -1.6813 H   0  0  0  0  0  0  0  0  0  0  0  0
    2.1396   -6.6192    0.0756 H   0  0  0  0  0  0  0  0  0  0  0  0
    3.3777   -6.9924    2.4107 H   0  0  0  0  0  0  0  0  0  0  0  0
    0.5014   -7.7524    2.2395 H   0  0  0  0  0  0  0  0  0  0  0  0
    1.7927   -8.5802    1.4341 H   0  0  0  0  0  0  0  0  0  0  0  0
    1.1176   -8.8904    5.3849 H   0  0  0  0  0  0  0  0  0  0  0  0
    0.0318   -9.9557    3.2450 H   0  0  0  0  0  0  0  0  0  0  0  0
    1.4105  -10.6668    2.5011 H   0  0  0  0  0  0  0  0  0  0  0  0
    0.6264  -10.6847    5.4529 H   0  0  0  0  0  0  0  0  0  0  0  0
    1.2150  -12.8247    3.7692 H   0  0  0  0  0  0  0  0  0  0  0  0
    2.6517  -11.8404    6.0078 H   0  0  0  0  0  0  0  0  0  0  0  0
    3.1376  -12.0135    4.3576 H   0  0  0  0  0  0  0  0  0  0  0  0
    3.0521   -9.4935    6.0734 H   0  0  0  0  0  0  0  0  0  0  0  0
    5.0509  -11.0453    4.8689 H   0  0  0  0  0  0  0  0  0  0  0  0
    5.0306  -10.1227    2.8355 H   0  0  0  0  0  0  0  0  0  0  0  0
    3.8760   -9.3087    1.7961 H   0  0  0  0  0  0  0  0  0  0  0  0
    3.5023  -10.7776    2.5921 H   0  0  0  0  0  0  0  0  0  0  0  0
    4.5704   -7.9871    5.3970 H   0  0  0  0  0  0  0  0  0  0  0  0
    6.4937   -7.2898    4.4484 H   0  0  0  0  0  0  0  0  0  0  0  0
    6.2112   -8.8581    3.8763 H   0  0  0  0  0  0  0  0  0  0  0  0
    6.8625   -7.6359    1.9327 H   0  0  0  0  0  0  0  0  0  0  0  0
    5.1850   -7.6914    1.7145 H   0  0  0  0  0  0  0  0  0  0  0  0
    7.6568   -6.1398    2.0839 H   0  0  0  0  0  0  0  0  0  0  0  0
    5.6418   -3.5886   -0.3165 H   0  0  0  0  0  0  0  0  0  0  0  0
    6.6576   -4.9992   -0.2134 H   0  0  0  0  0  0  0  0  0  0  0  0
    6.8547   -3.6906    0.9397 H   0  0  0  0  0  0  0  0  0  0  0  0
    4.1953   -5.8458   -0.4909 H   0  0  0  0  0  0  0  0  0  0  0  0
    3.4950   -4.5165    2.5734 H   0  0  0  0  0  0  0  0  0  0  0  0
    6.3384   -4.8442    4.9107 H   0  0  0  0  0  0  0  0  0  0  0  0
    4.3238   -4.8118    6.3690 H   0  0  0  0  0  0  0  0  0  0  0  0
    5.4818   -6.1059    6.2554 H   0  0  0  0  0  0  0  0  0  0  0  0
    3.8272   -6.4335    6.7117 H   0  0  0  0  0  0  0  0  0  0  0  0
    2.0138   -6.2576    5.2498 H   0  0  0  0  0  0  0  0  0  0  0  0
    2.8469   -3.7720    4.3542 H   0  0  0  0  0  0  0  0  0  0  0  0
  1  2  1  0
  1 37  1  0
  1 38  1  0
  1 39  1  0
  2 29  1  0
  2  3  1  1
  2  4  1  0
  3 40  1  0
  4  5  1  0
  4 41  1  0
  4 42  1  0
  5 28  1  0
  5  6  1  6
  5  7  1  0
  6 43  1  0
  7  8  1  0
  8 28  1  0
  8  9  1  0
  8 44  1  6
  9 36  1  0
  9 10  1  0
  9 45  1  1
 10 11  1  0
 10 46  1  0
 10 47  1  0
 11 19  1  0
 11 12  1  1
 11 13  1  0
 12 48  1  0
 13 14  1  0
 13 49  1  0
 13 50  1  0
 14 15  1  0
 14 16  1  0
 14 51  1  1
 15 52  1  0
 16 17  1  0
 16 53  1  0
 16 54  1  0
 17 18  1  0
 17 19  1  0
 17 55  1  1
 18 56  1  0
 19 20  1  6
 19 21  1  0
 20 57  1  0
 20 58  1  0
 20 59  1  0
 21 32  1  0
 21 22  1  0
 21 60  1  1
 22 23  1  0
 22 61  1  0
 22 62  1  0
 23 24  1  0
 23 63  1  0
 23 64  1  0
 24 30  1  0
 24 25  1  1
 24 26  1  0
 25 65  1  0
 26 27  1  6
 26 28  1  0
 26 29  1  0
 27 66  1  0
 27 67  1  0
 27 68  1  0
 28 69  1  6
 29 30  1  0
 29 70  1  6
 30 31  1  1
 30 32  1  0
 31 71  1  0
 32 33  1  1
 32 34  1  0
 33 72  1  0
 33 73  1  0
 33 74  1  0
 34 35  1  0
 34 36  1  0
 34 75  1  1
 35 76  1  0
M  END
>  <i_m_ct_stereo_status>  (219) 
1

>  <s_m_source_file>  (219) 
/var/tmp/pbs.5076255.sched01/tmpyc7t0a4i/88yk12rjyo.sdf

>  <i_m_source_file_index>  (219) 
5

>  <i_lp_mmshare_version>  (219) 
48012

>  <i_f3d_flags>  (219) 
0

>  <s_epik_input>  (219) 
W0NIM11bQ0BAXShbT0hdKShbQ0gyXTEpW0NASF0yW0NAQF0zKFtDSDNdKVtDQF0oW09IXSkoW0NIMl1bQ0gyXTQpW0NAXTIoW09IXSlbQ0BAXShbQ0gzXSkoW0NASF0oTzUpW09IXSlbQ0BIXTRbQ0BAXShbQ0gzXSkoW0NASF0oW09IXSlbQ0gyXVtDQEBIXShbQ0gyXTYpW09IXSlbQ0BAXTYoW09IXSlbQ0gyXVtDQEhdNVtDQEBIXShPNylbQ0BIXTNbQ0BdMTdbT0hd

>  <s_epik_cmdline>  (219) 
J2VwaWtfcHl0aG9uJywgJy1waHQnLCAnMi4wJywgJy1waCcsICc3LjAnLCAnLXRuJywgJzgnLCAnLW1hJywgJzIwMCcsICctaW1hZScsICc8aW5maWxlLm1hZT4nLCAnLW9tYWUnLCAnPG91dGZpbGUubWFlPic=

>  <r_lp_tautomer_probability>  (219) 
1

>  <r_epik_Ionization_Penalty>  (219) 
2.30194e-06

>  <r_epik_Ionization_Penalty_Charging>  (219) 
0

>  <r_epik_Ionization_Penalty_Neutral>  (219) 
2.30194e-06

>  <r_epik_State_Penalty>  (219) 
-0

>  <r_epik_Charging_Adjusted_Penalty>  (219) 
0

>  <i_epik_Tot_Q>  (219) 
0

>  <i_epik_Tot_abs_Q>  (219) 
0

>  <s_epik_Chemistry_Notes>  (219) 
This compound contains an acetal/aminal-like group ( X-CH(R)-Y where X, Y are N, S, or O) that may be acid/base labile, releasing an aldehyde.

>  <s_lp_Force_Field>  (219) 
OPLS3e

>  <r_lp_Energy>  (219) 
192.387

>  <b_lp_Chiralities_Consistent>  (219) 
1

>  <s_lp_Variant>  (219) 
56:0-1

>  <s_i_glide_gridfile>  (219) 
pfpi4k_grid

>  <i_i_glide_lignum>  (219) 
5

>  <i_i_glide_rotatable_bonds>  (219) 
8

>  <r_i_docking_score>  (219) 
-3.42804

>  <r_i_glide_ligand_efficiency>  (219) 
-0.0952233

>  <r_i_glide_ligand_efficiency_sa>  (219) 
-0.31442

>  <r_i_glide_ligand_efficiency_ln>  (219) 
-0.747905

>  <r_i_glide_gscore>  (219) 
-3.42804

>  <r_i_glide_lipo>  (219) 
-0.391543

>  <r_i_glide_hbond>  (219) 
-0.315192

>  <r_i_glide_metal>  (219) 
-0

>  <r_i_glide_rewards>  (219) 
-0.5

>  <r_i_glide_evdw>  (219) 
-14.1451

>  <r_i_glide_ecoul>  (219) 
-9.94444

>  <r_i_glide_erotb>  (219) 
0

>  <r_i_glide_esite>  (219) 
-0.0223839

>  <r_i_glide_emodel>  (219) 
-32.9813

>  <r_i_glide_energy>  (219) 
-24.0895

>  <r_i_glide_einternal>  (219) 
2.30421

>  <r_i_glide_intrahb_reward>  (219) 
-0.5

>  <i_i_glide_confnum>  (219) 
1

>  <i_i_glide_posenum>  (219) 
36

>  <r_i_glide_eff_state_penalty>  (219) 
0

>  <ligand_id>  (219) 
56

>  <original_smiles>  (219) 
CC1(O)CC2(O)OC3C4CC5(O)CC(O)CC(O)C5(C)C5CCC6(O)C(C)(C32)C1C6(O)C5(C)C(O)O4

>  <smiles>  (219) 
[H]OC1([H])OC2([H])C([H])([H])C3(O[H])C([H])([H])C([H])(O[H])C([H])([H])C([H])(O[H])C3(C([H])([H])[H])C3([H])C([H])([H])C([H])([H])C4(O[H])C(O[H])(C5([H])C(O[H])(C([H])([H])[H])C([H])([H])C6(O[H])OC2([H])C6([H])C54C([H])([H])[H])C13C([H])([H])[H]

$$$$
56:0:2
     RDKit          3D

 76 82  0  0  1  0  0  0  0  0999 V2000
    5.4509   -0.4972    0.7564 C   0  0  0  0  0  0  0  0  0  0  0  0
    4.2147   -1.4268    0.7706 C   0  0  1  0  0  0  0  0  0  0  0  0
    3.3227   -0.8572    1.7202 O   0  0  0  0  0  0  0  0  0  0  0  0
    3.4690   -1.5011   -0.6394 C   0  0  0  0  0  0  0  0  0  0  0  0
    3.0628   -2.9524   -1.1832 C   0  0  2  0  0  0  0  0  0  0  0  0
    2.9048   -2.8529   -2.5891 O   0  0  0  0  0  0  0  0  0  0  0  0
    1.8807   -3.4369   -0.4786 O   0  0  0  0  0  0  0  0  0  0  0  0
    2.4795   -4.7324   -0.2596 C   0  0  2  0  0  0  0  0  0  0  0  0
    2.2820   -5.2774    1.1570 C   0  0  2  0  0  0  0  0  0  0  0  0
    1.3983   -6.5085    1.3303 C   0  0  0  0  0  0  0  0  0  0  0  0
    1.6100   -7.2389    2.6895 C   0  0  1  0  0  0  0  0  0  0  0  0
    0.8714   -6.5594    3.6819 O   0  0  0  0  0  0  0  0  0  0  0  0
    0.7859   -8.5621    2.6083 C   0  0  0  0  0  0  0  0  0  0  0  0
    0.8184   -9.3877    3.9056 C   0  0  1  0  0  0  0  0  0  0  0  0
    0.2156  -10.6407    3.6848 O   0  0  0  0  0  0  0  0  0  0  0  0
    2.2437   -9.6292    4.4006 C   0  0  0  0  0  0  0  0  0  0  0  0
    3.1069   -8.3485    4.4352 C   0  0  1  0  0  0  0  0  0  0  0  0
    4.3978   -8.7780    4.8306 O   0  0  0  0  0  0  0  0  0  0  0  0
    3.1456   -7.4678    3.1187 C   0  0  1  0  0  0  0  0  0  0  0  0
    3.7192   -8.4172    1.9961 C   0  0  0  0  0  0  0  0  0  0  0  0
    4.1740   -6.1826    3.4215 C   0  0  1  0  0  0  0  0  0  0  0  0
    5.6136   -6.4364    2.9137 C   0  0  0  0  0  0  0  0  0  0  0  0
    5.7848   -6.0295    1.4434 C   0  0  0  0  0  0  0  0  0  0  0  0
    5.7622   -4.5118    1.3385 C   0  0  1  0  0  0  0  0  0  0  0  0
    7.1539   -4.2743    1.4241 O   0  0  0  0  0  0  0  0  0  0  0  0
    5.0845   -3.7751    0.1348 C   0  0  1  0  0  0  0  0  0  0  0  0
    6.1543   -3.1917   -0.8190 C   0  0  0  0  0  0  0  0  0  0  0  0
    3.8654   -4.1984   -0.7303 C   0  0  2  0  0  0  0  0  0  0  0  0
    4.4614   -2.8731    1.1750 C   0  0  1  0  0  0  0  0  0  0  0  0
    4.9563   -3.6875    2.4000 C   0  0  2  0  0  0  0  0  0  0  0  0
    5.7292   -2.8056    3.1724 O   0  0  0  0  0  0  0  0  0  0  0  0
    3.9639   -4.5339    3.4114 C   0  0  2  0  0  0  0  0  0  0  0  0
    4.3084   -4.1567    4.9035 C   0  0  0  0  0  0  0  0  0  0  0  0
    2.4574   -4.0749    3.3188 C   0  0  1  0  0  0  0  0  0  0  0  0
    2.3277   -2.7032    3.6380 O   0  0  0  0  0  0  0  0  0  0  0  0
    1.8302   -4.3018    2.0822 O   0  0  0  0  0  0  0  0  0  0  0  0
    6.1017   -0.6526   -0.1003 H   0  0  0  0  0  0  0  0  0  0  0  0
    6.0604   -0.6232    1.6516 H   0  0  0  0  0  0  0  0  0  0  0  0
    5.1510    0.5461    0.7058 H   0  0  0  0  0  0  0  0  0  0  0  0
    2.4508   -0.8682    1.3464 H   0  0  0  0  0  0  0  0  0  0  0  0
    2.6273   -0.8233   -0.6257 H   0  0  0  0  0  0  0  0  0  0  0  0
    4.1322   -1.0385   -1.3718 H   0  0  0  0  0  0  0  0  0  0  0  0
    2.4069   -3.6163   -2.8571 H   0  0  0  0  0  0  0  0  0  0  0  0
    1.9870   -5.3877   -0.9625 H   0  0  0  0  0  0  0  0  0  0  0  0
    3.2613   -5.6159    1.3593 H   0  0  0  0  0  0  0  0  0  0  0  0
    0.3475   -6.2497    1.2014 H   0  0  0  0  0  0  0  0  0  0  0  0
    1.6052   -7.1985    0.5166 H   0  0  0  0  0  0  0  0  0  0  0  0
    0.9306   -7.0538    4.4856 H   0  0  0  0  0  0  0  0  0  0  0  0
   -0.2566   -8.3327    2.3752 H   0  0  0  0  0  0  0  0  0  0  0  0
    1.1057   -9.1772    1.7664 H   0  0  0  0  0  0  0  0  0  0  0  0
    0.2420   -8.8795    4.6802 H   0  0  0  0  0  0  0  0  0  0  0  0
   -0.6091  -10.6804    4.1687 H   0  0  0  0  0  0  0  0  0  0  0  0
    2.1824  -10.0556    5.4038 H   0  0  0  0  0  0  0  0  0  0  0  0
    2.7118  -10.4057    3.7942 H   0  0  0  0  0  0  0  0  0  0  0  0
    2.7244   -7.7293    5.2451 H   0  0  0  0  0  0  0  0  0  0  0  0
    4.7038   -9.4298    4.2172 H   0  0  0  0  0  0  0  0  0  0  0  0
    4.7413   -8.7551    2.1428 H   0  0  0  0  0  0  0  0  0  0  0  0
    3.6572   -7.9919    0.9971 H   0  0  0  0  0  0  0  0  0  0  0  0
    3.1900   -9.3619    1.9176 H   0  0  0  0  0  0  0  0  0  0  0  0
    4.3327   -6.3636    4.4790 H   0  0  0  0  0  0  0  0  0  0  0  0
    6.3055   -5.8468    3.5179 H   0  0  0  0  0  0  0  0  0  0  0  0
    5.9618   -7.4480    3.0945 H   0  0  0  0  0  0  0  0  0  0  0  0
    6.7115   -6.4576    1.0540 H   0  0  0  0  0  0  0  0  0  0  0  0
    5.0426   -6.4598    0.7884 H   0  0  0  0  0  0  0  0  0  0  0  0
    7.4183   -4.5946    2.2733 H   0  0  0  0  0  0  0  0  0  0  0  0
    5.7366   -2.5683   -1.6039 H   0  0  0  0  0  0  0  0  0  0  0  0
    6.6745   -3.9902   -1.3317 H   0  0  0  0  0  0  0  0  0  0  0  0
    6.9158   -2.6056   -0.3079 H   0  0  0  0  0  0  0  0  0  0  0  0
    4.2360   -4.7570   -1.5791 H   0  0  0  0  0  0  0  0  0  0  0  0
    3.4560   -3.1250    1.2937 H   0  0  0  0  0  0  0  0  0  0  0  0
    5.1681   -2.0778    3.3963 H   0  0  0  0  0  0  0  0  0  0  0  0
    4.2288   -3.0928    5.1352 H   0  0  0  0  0  0  0  0  0  0  0  0
    5.3239   -4.4453    5.1730 H   0  0  0  0  0  0  0  0  0  0  0  0
    3.6439   -4.6516    5.6158 H   0  0  0  0  0  0  0  0  0  0  0  0
    1.8792   -4.5537    4.1012 H   0  0  0  0  0  0  0  0  0  0  0  0
    2.7986   -2.2044    2.9790 H   0  0  0  0  0  0  0  0  0  0  0  0
  1  2  1  0
  1 37  1  0
  1 38  1  0
  1 39  1  0
  2 29  1  0
  2  3  1  1
  2  4  1  0
  3 40  1  0
  4  5  1  0
  4 41  1  0
  4 42  1  0
  5 28  1  0
  5  6  1  6
  5  7  1  0
  6 43  1  0
  7  8  1  0
  8 28  1  0
  8  9  1  0
  8 44  1  6
  9 36  1  0
  9 10  1  0
  9 45  1  1
 10 11  1  0
 10 46  1  0
 10 47  1  0
 11 19  1  0
 11 12  1  1
 11 13  1  0
 12 48  1  0
 13 14  1  0
 13 49  1  0
 13 50  1  0
 14 15  1  0
 14 16  1  0
 14 51  1  1
 15 52  1  0
 16 17  1  0
 16 53  1  0
 16 54  1  0
 17 18  1  0
 17 19  1  0
 17 55  1  1
 18 56  1  0
 19 20  1  6
 19 21  1  0
 20 57  1  0
 20 58  1  0
 20 59  1  0
 21 32  1  0
 21 22  1  0
 21 60  1  1
 22 23  1  0
 22 61  1  0
 22 62  1  0
 23 24  1  0
 23 63  1  0
 23 64  1  0
 24 30  1  0
 24 25  1  1
 24 26  1  0
 25 65  1  0
 26 27  1  6
 26 28  1  0
 26 29  1  0
 27 66  1  0
 27 67  1  0
 27 68  1  0
 28 69  1  6
 29 30  1  0
 29 70  1  6
 30 31  1  1
 30 32  1  0
 31 71  1  0
 32 33  1  1
 32 34  1  0
 33 72  1  0
 33 73  1  0
 33 74  1  0
 34 35  1  0
 34 36  1  0
 34 75  1  1
 35 76  1  0
M  END
>  <i_m_ct_stereo_status>  (220) 
1

>  <s_m_source_file>  (220) 
/var/tmp/pbs.5076255.sched01/tmpyc7t0a4i/88yk12rjyo.sdf

>  <i_m_source_file_index>  (220) 
5

>  <i_lp_mmshare_version>  (220) 
48012

>  <i_f3d_flags>  (220) 
0

>  <s_epik_input>  (220) 
W0NIM11bQ0BAXShbT0hdKShbQ0gyXTEpW0NASF0yW0NAQF0zKFtDSDNdKVtDQF0oW09IXSkoW0NIMl1bQ0gyXTQpW0NAXTIoW09IXSlbQ0BAXShbQ0gzXSkoW0NASF0oTzUpW09IXSlbQ0BIXTRbQ0BAXShbQ0gzXSkoW0NASF0oW09IXSlbQ0gyXVtDQEBIXShbQ0gyXTYpW09IXSlbQ0BAXTYoW09IXSlbQ0gyXVtDQEhdNVtDQEBIXShPNylbQ0BIXTNbQ0BdMTdbT0hd

>  <s_epik_cmdline>  (220) 
J2VwaWtfcHl0aG9uJywgJy1waHQnLCAnMi4wJywgJy1waCcsICc3LjAnLCAnLXRuJywgJzgnLCAnLW1hJywgJzIwMCcsICctaW1hZScsICc8aW5maWxlLm1hZT4nLCAnLW9tYWUnLCAnPG91dGZpbGUubWFlPic=

>  <r_lp_tautomer_probability>  (220) 
1

>  <r_epik_Ionization_Penalty>  (220) 
2.30194e-06

>  <r_epik_Ionization_Penalty_Charging>  (220) 
0

>  <r_epik_Ionization_Penalty_Neutral>  (220) 
2.30194e-06

>  <r_epik_State_Penalty>  (220) 
-0

>  <r_epik_Charging_Adjusted_Penalty>  (220) 
0

>  <i_epik_Tot_Q>  (220) 
0

>  <i_epik_Tot_abs_Q>  (220) 
0

>  <s_epik_Chemistry_Notes>  (220) 
This compound contains an acetal/aminal-like group ( X-CH(R)-Y where X, Y are N, S, or O) that may be acid/base labile, releasing an aldehyde.

>  <s_lp_Force_Field>  (220) 
OPLS3e

>  <r_lp_Energy>  (220) 
192.387

>  <b_lp_Chiralities_Consistent>  (220) 
1

>  <s_lp_Variant>  (220) 
56:0-1

>  <s_i_glide_gridfile>  (220) 
pfpi4k_grid

>  <i_i_glide_lignum>  (220) 
5

>  <i_i_glide_rotatable_bonds>  (220) 
8

>  <r_i_docking_score>  (220) 
-2.07418

>  <r_i_glide_ligand_efficiency>  (220) 
-0.0576161

>  <r_i_glide_ligand_efficiency_sa>  (220) 
-0.190244

>  <r_i_glide_ligand_efficiency_ln>  (220) 
-0.45253

>  <r_i_glide_gscore>  (220) 
-2.07418

>  <r_i_glide_lipo>  (220) 
-0.463912

>  <r_i_glide_hbond>  (220) 
-0.201193

>  <r_i_glide_metal>  (220) 
-0

>  <r_i_glide_rewards>  (220) 
0

>  <r_i_glide_evdw>  (220) 
-12.7329

>  <r_i_glide_ecoul>  (220) 
-5.07015

>  <r_i_glide_erotb>  (220) 
0

>  <r_i_glide_esite>  (220) 
-0.0119093

>  <r_i_glide_emodel>  (220) 
-18.5363

>  <r_i_glide_energy>  (220) 
-17.803

>  <r_i_glide_einternal>  (220) 
3.66291

>  <r_i_glide_intrahb_reward>  (220) 
-0

>  <i_i_glide_confnum>  (220) 
2

>  <i_i_glide_posenum>  (220) 
1

>  <r_i_glide_eff_state_penalty>  (220) 
0

>  <ligand_id>  (220) 
56

>  <original_smiles>  (220) 
CC1(O)CC2(O)OC3C4CC5(O)CC(O)CC(O)C5(C)C5CCC6(O)C(C)(C32)C1C6(O)C5(C)C(O)O4

>  <smiles>  (220) 
[H]OC1([H])OC2([H])C([H])([H])C3(O[H])C([H])([H])C([H])(O[H])C([H])([H])C([H])(O[H])C3(C([H])([H])[H])C3([H])C([H])([H])C([H])([H])C4(O[H])C(O[H])(C5([H])C(O[H])(C([H])([H])[H])C([H])([H])C6(O[H])OC2([H])C6([H])C54C([H])([H])[H])C13C([H])([H])[H]

$$$$
57:0:0
     RDKit          3D

 31 33  0  0  1  0  0  0  0  0999 V2000
    2.6015   -6.1235    1.0706 C   0  0  0  0  0  0  0  0  0  0  0  0
    1.9657   -5.2243    0.1889 O   0  0  0  0  0  0  0  0  0  0  0  0
    2.3403   -3.8293    0.5930 O   0  0  0  0  0  0  0  0  0  0  0  0
    3.2095   -3.2785   -0.3974 C   0  0  2  0  0  0  0  0  0  0  0  0
    2.5574   -3.2397   -1.8080 C   0  0  0  0  0  0  0  0  0  0  0  0
    3.5903   -2.6518   -2.8084 C   0  0  1  0  0  0  0  0  0  0  0  0
    3.9459   -1.2121   -2.3751 C   0  0  0  0  0  0  0  0  0  0  0  0
    4.5774   -1.2190   -0.9640 C   0  0  2  0  0  0  0  0  0  0  0  0
    5.8546   -2.0770   -0.9767 C   0  0  0  0  0  0  0  0  0  0  0  0
    5.4999   -3.5121   -1.4145 C   0  0  2  0  0  0  0  0  0  0  0  0
    4.8791   -3.5020   -2.8293 C   0  0  0  0  0  0  0  0  0  0  0  0
    4.4980   -4.1186   -0.4451 C   0  0  0  0  0  0  0  0  0  0  0  0
    3.5620   -1.8236    0.0369 C   0  0  0  0  0  0  0  0  0  0  0  0
    2.2858   -7.1201    0.8117 H   0  0  0  0  0  0  0  0  0  0  0  0
    2.2643   -5.9835    2.1009 H   0  0  0  0  0  0  0  0  0  0  0  0
    3.6808   -6.0628    0.9752 H   0  0  0  0  0  0  0  0  0  0  0  0
    2.2671   -4.2508   -2.1141 H   0  0  0  0  0  0  0  0  0  0  0  0
    1.6483   -2.6610   -1.8417 H   0  0  0  0  0  0  0  0  0  0  0  0
    3.1460   -2.6405   -3.8105 H   0  0  0  0  0  0  0  0  0  0  0  0
    4.6378   -0.7563   -3.0904 H   0  0  0  0  0  0  0  0  0  0  0  0
    3.0408   -0.6074   -2.3759 H   0  0  0  0  0  0  0  0  0  0  0  0
    4.8280   -0.2114   -0.6529 H   0  0  0  0  0  0  0  0  0  0  0  0
    6.6043   -1.6641   -1.6567 H   0  0  0  0  0  0  0  0  0  0  0  0
    6.3082   -2.0973    0.0208 H   0  0  0  0  0  0  0  0  0  0  0  0
    6.4074   -4.1015   -1.3980 H   0  0  0  0  0  0  0  0  0  0  0  0
    4.6428   -4.5237   -3.1183 H   0  0  0  0  0  0  0  0  0  0  0  0
    5.6025   -3.1278   -3.5636 H   0  0  0  0  0  0  0  0  0  0  0  0
    4.9503   -4.1909    0.5511 H   0  0  0  0  0  0  0  0  0  0  0  0
    4.2681   -5.1484   -0.7452 H   0  0  0  0  0  0  0  0  0  0  0  0
    2.6731   -1.1933    0.0905 H   0  0  0  0  0  0  0  0  0  0  0  0
    3.9832   -1.8165    1.0441 H   0  0  0  0  0  0  0  0  0  0  0  0
  1  2  1  0
  1 14  1  0
  1 15  1  0
  1 16  1  0
  2  3  1  0
  4  3  1  1
  4 12  1  0
  4 13  1  0
  4  5  1  0
  5  6  1  0
  5 17  1  0
  5 18  1  0
  6 11  1  0
  6  7  1  0
  6 19  1  6
  7  8  1  0
  7 20  1  0
  7 21  1  0
  8  9  1  0
  8 13  1  0
  8 22  1  1
  9 10  1  0
  9 23  1  0
  9 24  1  0
 10 11  1  0
 10 12  1  0
 10 25  1  6
 11 26  1  0
 11 27  1  0
 12 28  1  0
 12 29  1  0
 13 30  1  0
 13 31  1  0
M  END
>  <i_m_ct_stereo_status>  (221) 
1

>  <s_m_source_file>  (221) 
/var/tmp/pbs.5076255.sched01/tmpyc7t0a4i/88yk12rjyo.sdf

>  <i_m_source_file_index>  (221) 
6

>  <i_lp_mmshare_version>  (221) 
48012

>  <i_f3d_flags>  (221) 
0

>  <s_epik_input>  (221) 
W0NIM11PT0MxMltDSDJdW0NAQEhdM1tDSDJdW0NASF0oW0NIMl0yKVtDSDJdW0NAQEhdKFtDSDJdMylbQ0gyXTE=

>  <s_epik_cmdline>  (221) 
J2VwaWtfcHl0aG9uJywgJy1waHQnLCAnMi4wJywgJy1waCcsICc3LjAnLCAnLXRuJywgJzgnLCAnLW1hJywgJzIwMCcsICctaW1hZScsICc8aW5maWxlLm1hZT4nLCAnLW9tYWUnLCAnPG91dGZpbGUubWFlPic=

>  <r_lp_tautomer_probability>  (221) 
1

>  <r_epik_Ionization_Penalty>  (221) 
0

>  <r_epik_Ionization_Penalty_Charging>  (221) 
0

>  <r_epik_Ionization_Penalty_Neutral>  (221) 
0

>  <r_epik_State_Penalty>  (221) 
-0

>  <r_epik_Charging_Adjusted_Penalty>  (221) 
0

>  <i_epik_Tot_Q>  (221) 
0

>  <i_epik_Tot_abs_Q>  (221) 
0

>  <s_lp_Force_Field>  (221) 
OPLS3e

>  <r_lp_Energy>  (221) 
4.51784

>  <b_lp_Chiralities_Consistent>  (221) 
1

>  <s_lp_Variant>  (221) 
57:0-1

>  <s_i_glide_gridfile>  (221) 
pfpi4k_grid

>  <i_i_glide_lignum>  (221) 
6

>  <i_i_glide_rotatable_bonds>  (221) 
2

>  <r_i_docking_score>  (221) 
-3.21637

>  <r_i_glide_ligand_efficiency>  (221) 
-0.247413

>  <r_i_glide_ligand_efficiency_sa>  (221) 
-0.581751

>  <r_i_glide_ligand_efficiency_ln>  (221) 
-0.90222

>  <r_i_glide_gscore>  (221) 
-3.21637

>  <r_i_glide_lipo>  (221) 
-0.332125

>  <r_i_glide_hbond>  (221) 
-0.0543012

>  <r_i_glide_metal>  (221) 
-0

>  <r_i_glide_rewards>  (221) 
-2.16641

>  <r_i_glide_evdw>  (221) 
-11.5675

>  <r_i_glide_ecoul>  (221) 
-0.567719

>  <r_i_glide_erotb>  (221) 
0

>  <r_i_glide_esite>  (221) 
0

>  <r_i_glide_emodel>  (221) 
-15.06

>  <r_i_glide_energy>  (221) 
-12.1352

>  <r_i_glide_einternal>  (221) 
0.0616039

>  <r_i_glide_intrahb_reward>  (221) 
-0

>  <i_i_glide_confnum>  (221) 
1

>  <i_i_glide_posenum>  (221) 
5

>  <r_i_glide_eff_state_penalty>  (221) 
0

>  <ligand_id>  (221) 
57

>  <original_smiles>  (221) 
COOC12CC3CC(CC(C3)C1)C2

>  <smiles>  (221) 
[H]C([H])([H])OOC12C([H])([H])C3([H])C([H])([H])C([H])(C([H])([H])C([H])(C3([H])[H])C1([H])[H])C2([H])[H]

$$$$
57:0:1
     RDKit          3D

 31 33  0  0  1  0  0  0  0  0999 V2000
   -1.8442   -8.7291    2.5222 C   0  0  0  0  0  0  0  0  0  0  0  0
   -1.0377   -7.6346    2.0913 O   0  0  0  0  0  0  0  0  0  0  0  0
   -0.1168   -7.2403    3.2395 O   0  0  0  0  0  0  0  0  0  0  0  0
    1.1763   -7.7731    2.9939 C   0  0  2  0  0  0  0  0  0  0  0  0
    1.7983   -7.2077    1.6859 C   0  0  0  0  0  0  0  0  0  0  0  0
    3.1892   -7.8509    1.4744 C   0  0  1  0  0  0  0  0  0  0  0  0
    4.0924   -7.4849    2.6688 C   0  0  0  0  0  0  0  0  0  0  0  0
    3.4894   -8.0422    3.9821 C   0  0  2  0  0  0  0  0  0  0  0  0
    3.3632   -9.5864    3.8938 C   0  0  0  0  0  0  0  0  0  0  0  0
    2.4634   -9.9375    2.6845 C   0  0  2  0  0  0  0  0  0  0  0  0
    3.0690   -9.3919    1.3773 C   0  0  0  0  0  0  0  0  0  0  0  0
    1.1167   -9.3103    2.8778 C   0  0  0  0  0  0  0  0  0  0  0  0
    2.0971   -7.4015    4.1971 C   0  0  0  0  0  0  0  0  0  0  0  0
   -2.5103   -8.9639    1.7054 H   0  0  0  0  0  0  0  0  0  0  0  0
   -2.4614   -8.4274    3.3548 H   0  0  0  0  0  0  0  0  0  0  0  0
   -1.3021   -9.5843    2.7152 H   0  0  0  0  0  0  0  0  0  0  0  0
    1.1514   -7.4417    0.8442 H   0  0  0  0  0  0  0  0  0  0  0  0
    1.8684   -6.1206    1.7327 H   0  0  0  0  0  0  0  0  0  0  0  0
    3.6186   -7.4594    0.5501 H   0  0  0  0  0  0  0  0  0  0  0  0
    5.0942   -7.8937    2.5111 H   0  0  0  0  0  0  0  0  0  0  0  0
    4.1904   -6.4005    2.7351 H   0  0  0  0  0  0  0  0  0  0  0  0
    4.1430   -7.7831    4.8266 H   0  0  0  0  0  0  0  0  0  0  0  0
    4.3343  -10.0616    3.7980 H   0  0  0  0  0  0  0  0  0  0  0  0
    2.9067   -9.9686    4.8055 H   0  0  0  0  0  0  0  0  0  0  0  0
    2.3618  -11.0115    2.6286 H   0  0  0  0  0  0  0  0  0  0  0  0
    2.4165   -9.6643    0.5500 H   0  0  0  0  0  0  0  0  0  0  0  0
    4.0311   -9.8652    1.1746 H   0  0  0  0  0  0  0  0  0  0  0  0
    0.6198   -9.7403    3.7754 H   0  0  0  0  0  0  0  0  0  0  0  0
    0.4776   -9.5977    2.0244 H   0  0  0  0  0  0  0  0  0  0  0  0
    2.1843   -6.3186    4.3007 H   0  0  0  0  0  0  0  0  0  0  0  0
    1.6562   -7.7631    5.1206 H   0  0  0  0  0  0  0  0  0  0  0  0
  1  2  1  0
  1 14  1  0
  1 15  1  0
  1 16  1  0
  2  3  1  0
  4  3  1  1
  4 12  1  0
  4 13  1  0
  4  5  1  0
  5  6  1  0
  5 17  1  0
  5 18  1  0
  6 11  1  0
  6  7  1  0
  6 19  1  6
  7  8  1  0
  7 20  1  0
  7 21  1  0
  8  9  1  0
  8 13  1  0
  8 22  1  1
  9 10  1  0
  9 23  1  0
  9 24  1  0
 10 11  1  0
 10 12  1  0
 10 25  1  6
 11 26  1  0
 11 27  1  0
 12 28  1  0
 12 29  1  0
 13 30  1  0
 13 31  1  0
M  END
>  <i_m_ct_stereo_status>  (222) 
1

>  <s_m_source_file>  (222) 
/var/tmp/pbs.5076255.sched01/tmpyc7t0a4i/88yk12rjyo.sdf

>  <i_m_source_file_index>  (222) 
6

>  <i_lp_mmshare_version>  (222) 
48012

>  <i_f3d_flags>  (222) 
0

>  <s_epik_input>  (222) 
W0NIM11PT0MxMltDSDJdW0NAQEhdM1tDSDJdW0NASF0oW0NIMl0yKVtDSDJdW0NAQEhdKFtDSDJdMylbQ0gyXTE=

>  <s_epik_cmdline>  (222) 
J2VwaWtfcHl0aG9uJywgJy1waHQnLCAnMi4wJywgJy1waCcsICc3LjAnLCAnLXRuJywgJzgnLCAnLW1hJywgJzIwMCcsICctaW1hZScsICc8aW5maWxlLm1hZT4nLCAnLW9tYWUnLCAnPG91dGZpbGUubWFlPic=

>  <r_lp_tautomer_probability>  (222) 
1

>  <r_epik_Ionization_Penalty>  (222) 
0

>  <r_epik_Ionization_Penalty_Charging>  (222) 
0

>  <r_epik_Ionization_Penalty_Neutral>  (222) 
0

>  <r_epik_State_Penalty>  (222) 
-0

>  <r_epik_Charging_Adjusted_Penalty>  (222) 
0

>  <i_epik_Tot_Q>  (222) 
0

>  <i_epik_Tot_abs_Q>  (222) 
0

>  <s_lp_Force_Field>  (222) 
OPLS3e

>  <r_lp_Energy>  (222) 
4.51784

>  <b_lp_Chiralities_Consistent>  (222) 
1

>  <s_lp_Variant>  (222) 
57:0-1

>  <s_i_glide_gridfile>  (222) 
pfpi4k_grid

>  <i_i_glide_lignum>  (222) 
6

>  <i_i_glide_rotatable_bonds>  (222) 
2

>  <r_i_docking_score>  (222) 
-3.21296

>  <r_i_glide_ligand_efficiency>  (222) 
-0.24715

>  <r_i_glide_ligand_efficiency_sa>  (222) 
-0.581133

>  <r_i_glide_ligand_efficiency_ln>  (222) 
-0.901262

>  <r_i_glide_gscore>  (222) 
-3.21296

>  <r_i_glide_lipo>  (222) 
-0.205084

>  <r_i_glide_hbond>  (222) 
0

>  <r_i_glide_metal>  (222) 
-0

>  <r_i_glide_rewards>  (222) 
-2.16641

>  <r_i_glide_evdw>  (222) 
-13.1589

>  <r_i_glide_ecoul>  (222) 
-1.22342

>  <r_i_glide_erotb>  (222) 
0

>  <r_i_glide_esite>  (222) 
0

>  <r_i_glide_emodel>  (222) 
-16.8481

>  <r_i_glide_energy>  (222) 
-14.3823

>  <r_i_glide_einternal>  (222) 
0.10579

>  <r_i_glide_intrahb_reward>  (222) 
-0

>  <i_i_glide_confnum>  (222) 
1

>  <i_i_glide_posenum>  (222) 
12

>  <r_i_glide_eff_state_penalty>  (222) 
0

>  <ligand_id>  (222) 
57

>  <original_smiles>  (222) 
COOC12CC3CC(CC(C3)C1)C2

>  <smiles>  (222) 
[H]C([H])([H])OOC12C([H])([H])C3([H])C([H])([H])C([H])(C([H])([H])C([H])(C3([H])[H])C1([H])[H])C2([H])[H]

$$$$
57:0:2
     RDKit          3D

 31 33  0  0  1  0  0  0  0  0999 V2000
    2.9899   -6.1647    0.9702 C   0  0  0  0  0  0  0  0  0  0  0  0
    2.6024   -4.8146    1.0702 O   0  0  0  0  0  0  0  0  0  0  0  0
    3.7728   -3.9848    1.5294 O   0  0  0  0  0  0  0  0  0  0  0  0
    4.2800   -3.2543    0.4195 C   0  0  2  0  0  0  0  0  0  0  0  0
    5.4603   -2.3595    0.8993 C   0  0  0  0  0  0  0  0  0  0  0  0
    6.0816   -1.6388   -0.3195 C   0  0  1  0  0  0  0  0  0  0  0  0
    6.6166   -2.6756   -1.3345 C   0  0  0  0  0  0  0  0  0  0  0  0
    5.4344   -3.5241   -1.8302 C   0  0  2  0  0  0  0  0  0  0  0  0
    4.3273   -2.6777   -2.4911 C   0  0  0  0  0  0  0  0  0  0  0  0
    3.8127   -1.6474   -1.4590 C   0  0  2  0  0  0  0  0  0  0  0  0
    4.9868   -0.7688   -1.0071 C   0  0  0  0  0  0  0  0  0  0  0  0
    3.1976   -2.3585   -0.2328 C   0  0  0  0  0  0  0  0  0  0  0  0
    4.8203   -4.2433   -0.6355 C   0  0  0  0  0  0  0  0  0  0  0  0
    2.1431   -6.7326    0.6599 H   0  0  0  0  0  0  0  0  0  0  0  0
    3.3416   -6.5593    1.9415 H   0  0  0  0  0  0  0  0  0  0  0  0
    3.7912   -6.3404    0.2086 H   0  0  0  0  0  0  0  0  0  0  0  0
    5.1060   -1.6286    1.6349 H   0  0  0  0  0  0  0  0  0  0  0  0
    6.2021   -2.9583    1.4041 H   0  0  0  0  0  0  0  0  0  0  0  0
    6.8983   -1.0029    0.0283 H   0  0  0  0  0  0  0  0  0  0  0  0
    7.1087   -2.2218   -2.1865 H   0  0  0  0  0  0  0  0  0  0  0  0
    7.3469   -3.3154   -0.8553 H   0  0  0  0  0  0  0  0  0  0  0  0
    5.7920   -4.2625   -2.5434 H   0  0  0  0  0  0  0  0  0  0  0  0
    4.6924   -2.2060   -3.3869 H   0  0  0  0  0  0  0  0  0  0  0  0
    3.5086   -3.3368   -2.7890 H   0  0  0  0  0  0  0  0  0  0  0  0
    3.0360   -1.0383   -1.9320 H   0  0  0  0  0  0  0  0  0  0  0  0
    4.6188   -0.0072   -0.3072 H   0  0  0  0  0  0  0  0  0  0  0  0
    5.4046   -0.2451   -1.8696 H   0  0  0  0  0  0  0  0  0  0  0  0
    2.3477   -2.9576   -0.5534 H   0  0  0  0  0  0  0  0  0  0  0  0
    2.8101   -1.6368    0.4810 H   0  0  0  0  0  0  0  0  0  0  0  0
    5.5288   -4.9463   -0.1984 H   0  0  0  0  0  0  0  0  0  0  0  0
    3.9779   -4.8382   -1.0516 H   0  0  0  0  0  0  0  0  0  0  0  0
  1  2  1  0
  1 14  1  0
  1 15  1  0
  1 16  1  0
  2  3  1  0
  4  3  1  1
  4 12  1  0
  4 13  1  0
  4  5  1  0
  5  6  1  0
  5 17  1  0
  5 18  1  0
  6 11  1  0
  6  7  1  0
  6 19  1  1
  7  8  1  0
  7 20  1  0
  7 21  1  0
  8  9  1  0
  8 13  1  0
  8 22  1  6
  9 10  1  0
  9 23  1  0
  9 24  1  0
 10 11  1  0
 10 12  1  0
 10 25  1  6
 11 26  1  0
 11 27  1  0
 12 28  1  0
 12 29  1  0
 13 30  1  0
 13 31  1  0
M  END
>  <i_m_ct_stereo_status>  (223) 
1

>  <s_m_source_file>  (223) 
/var/tmp/pbs.5076255.sched01/tmpyc7t0a4i/88yk12rjyo.sdf

>  <i_m_source_file_index>  (223) 
6

>  <i_lp_mmshare_version>  (223) 
48012

>  <i_f3d_flags>  (223) 
0

>  <s_epik_input>  (223) 
W0NIM11PT0MxMltDSDJdW0NAQEhdM1tDSDJdW0NASF0oW0NIMl0yKVtDSDJdW0NAQEhdKFtDSDJdMylbQ0gyXTE=

>  <s_epik_cmdline>  (223) 
J2VwaWtfcHl0aG9uJywgJy1waHQnLCAnMi4wJywgJy1waCcsICc3LjAnLCAnLXRuJywgJzgnLCAnLW1hJywgJzIwMCcsICctaW1hZScsICc8aW5maWxlLm1hZT4nLCAnLW9tYWUnLCAnPG91dGZpbGUubWFlPic=

>  <r_lp_tautomer_probability>  (223) 
1

>  <r_epik_Ionization_Penalty>  (223) 
0

>  <r_epik_Ionization_Penalty_Charging>  (223) 
0

>  <r_epik_Ionization_Penalty_Neutral>  (223) 
0

>  <r_epik_State_Penalty>  (223) 
-0

>  <r_epik_Charging_Adjusted_Penalty>  (223) 
0

>  <i_epik_Tot_Q>  (223) 
0

>  <i_epik_Tot_abs_Q>  (223) 
0

>  <s_lp_Force_Field>  (223) 
OPLS3e

>  <r_lp_Energy>  (223) 
4.51784

>  <b_lp_Chiralities_Consistent>  (223) 
1

>  <s_lp_Variant>  (223) 
57:0-1

>  <s_i_glide_gridfile>  (223) 
pfpi4k_grid

>  <i_i_glide_lignum>  (223) 
6

>  <i_i_glide_rotatable_bonds>  (223) 
2

>  <r_i_docking_score>  (223) 
-3.13004

>  <r_i_glide_ligand_efficiency>  (223) 
-0.240772

>  <r_i_glide_ligand_efficiency_sa>  (223) 
-0.566135

>  <r_i_glide_ligand_efficiency_ln>  (223) 
-0.878003

>  <r_i_glide_gscore>  (223) 
-3.13004

>  <r_i_glide_lipo>  (223) 
-0.253564

>  <r_i_glide_hbond>  (223) 
0

>  <r_i_glide_metal>  (223) 
-0

>  <r_i_glide_rewards>  (223) 
-2.16641

>  <r_i_glide_evdw>  (223) 
-13.5254

>  <r_i_glide_ecoul>  (223) 
-0.225265

>  <r_i_glide_erotb>  (223) 
0

>  <r_i_glide_esite>  (223) 
0

>  <r_i_glide_emodel>  (223) 
-16.0272

>  <r_i_glide_energy>  (223) 
-13.7506

>  <r_i_glide_einternal>  (223) 
0.172853

>  <r_i_glide_intrahb_reward>  (223) 
-0

>  <i_i_glide_confnum>  (223) 
2

>  <i_i_glide_posenum>  (223) 
31

>  <r_i_glide_eff_state_penalty>  (223) 
0

>  <ligand_id>  (223) 
57

>  <original_smiles>  (223) 
COOC12CC3CC(CC(C3)C1)C2

>  <smiles>  (223) 
[H]C([H])([H])OOC12C([H])([H])C3([H])C([H])([H])C([H])(C([H])([H])C([H])(C3([H])[H])C1([H])[H])C2([H])[H]

$$$$
59:0:0
     RDKit          3D

 29 31  0  0  1  0  0  0  0  0999 V2000
    2.6145   -1.8849   -2.3371 N   0  0  0  0  0  0  0  0  0  0  0  0
    3.6864   -2.3379   -1.4480 C   0  0  1  0  0  0  0  0  0  0  0  0
    4.8338   -2.9596   -2.2745 C   0  0  0  0  0  0  0  0  0  0  0  0
    5.9486   -3.4241   -1.3184 C   0  0  2  0  0  0  0  0  0  0  0  0
    5.3993   -4.4847   -0.3433 C   0  0  0  0  0  0  0  0  0  0  0  0
    4.2503   -3.8689    0.4803 C   0  0  1  0  0  0  0  0  0  0  0  0
    4.7775   -2.6605    1.2828 C   0  0  0  0  0  0  0  0  0  0  0  0
    5.3395   -1.6052    0.3111 C   0  0  1  0  0  0  0  0  0  0  0  0
    6.4786   -2.2252   -0.5155 C   0  0  0  0  0  0  0  0  0  0  0  0
    4.2213   -1.1332   -0.6374 C   0  0  0  0  0  0  0  0  0  0  0  0
    3.1272   -3.4023   -0.4725 C   0  0  0  0  0  0  0  0  0  0  0  0
    1.8733   -1.4774   -1.7497 H   0  0  0  0  0  0  0  0  0  0  0  0
    2.2402   -2.6677   -2.8579 H   0  0  0  0  0  0  0  0  0  0  0  0
    4.4771   -3.8096   -2.8560 H   0  0  0  0  0  0  0  0  0  0  0  0
    5.2337   -2.2393   -2.9885 H   0  0  0  0  0  0  0  0  0  0  0  0
    6.7635   -3.8428   -1.9082 H   0  0  0  0  0  0  0  0  0  0  0  0
    5.0435   -5.3539   -0.8964 H   0  0  0  0  0  0  0  0  0  0  0  0
    6.1941   -4.8378    0.3167 H   0  0  0  0  0  0  0  0  0  0  0  0
    3.8647   -4.6210    1.1696 H   0  0  0  0  0  0  0  0  0  0  0  0
    3.9742   -2.2292    1.8786 H   0  0  0  0  0  0  0  0  0  0  0  0
    5.5497   -2.9860    1.9818 H   0  0  0  0  0  0  0  0  0  0  0  0
    5.7206   -0.7565    0.8766 H   0  0  0  0  0  0  0  0  0  0  0  0
    7.3072   -2.5229    0.1296 H   0  0  0  0  0  0  0  0  0  0  0  0
    6.8603   -1.4834   -1.2093 H   0  0  0  0  0  0  0  0  0  0  0  0
    4.6062   -0.3565   -1.2993 H   0  0  0  0  0  0  0  0  0  0  0  0
    3.4214   -0.6735   -0.0563 H   0  0  0  0  0  0  0  0  0  0  0  0
    2.2986   -2.9959    0.1070 H   0  0  0  0  0  0  0  0  0  0  0  0
    2.7322   -4.2559   -1.0231 H   0  0  0  0  0  0  0  0  0  0  0  0
    2.9536   -1.1771   -2.9748 H   0  0  0  0  0  0  0  0  0  0  0  0
  2  1  1  6
  1 12  1  0
  1 13  1  0
  1 29  1  0
  2 10  1  0
  2 11  1  0
  2  3  1  0
  3  4  1  0
  3 14  1  0
  3 15  1  0
  4  9  1  0
  4  5  1  0
  4 16  1  6
  5  6  1  0
  5 17  1  0
  5 18  1  0
  6  7  1  0
  6 11  1  0
  6 19  1  1
  7  8  1  0
  7 20  1  0
  7 21  1  0
  8  9  1  0
  8 10  1  0
  8 22  1  1
  9 23  1  0
  9 24  1  0
 10 25  1  0
 10 26  1  0
 11 27  1  0
 11 28  1  0
M  CHG  1   1   1
M  END
>  <i_m_ct_stereo_status>  (224) 
1

>  <s_m_source_file>  (224) 
/var/tmp/pbs.5076255.sched01/tmpyc7t0a4i/88yk12rjyo.sdf

>  <i_m_source_file_index>  (224) 
8

>  <i_lp_mmshare_version>  (224) 
48012

>  <i_f3d_flags>  (224) 
0

>  <s_epik_input>  (224) 
W05IMl1DMTJbQ0gyXVtDQEhdM1tDSDJdW0NAQEhdKFtDSDJdMilbQ0gyXVtDQEhdKFtDSDJdMylbQ0gyXTE=

>  <s_epik_cmdline>  (224) 
J2VwaWtfcHl0aG9uJywgJy1waHQnLCAnMi4wJywgJy1waCcsICc3LjAnLCAnLXRuJywgJzgnLCAnLW1hJywgJzIwMCcsICctaW1hZScsICc8aW5maWxlLm1hZT4nLCAnLW9tYWUnLCAnPG91dGZpbGUubWFlPic=

>  <r_lp_tautomer_probability>  (224) 
1

>  <r_epik_Ionization_Penalty>  (224) 
7.35582e-05

>  <r_epik_Ionization_Penalty_Charging>  (224) 
7.35582e-05

>  <r_epik_Ionization_Penalty_Neutral>  (224) 
0

>  <r_epik_State_Penalty>  (224) 
-0

>  <r_epik_Charging_Adjusted_Penalty>  (224) 
7.35582e-05

>  <i_epik_Tot_Q>  (224) 
1

>  <i_epik_Tot_abs_Q>  (224) 
1

>  <s_lp_Force_Field>  (224) 
OPLS3e

>  <r_lp_Energy>  (224) 
5.13462

>  <b_lp_Chiralities_Consistent>  (224) 
1

>  <s_lp_Variant>  (224) 
59:0-1

>  <s_i_glide_gridfile>  (224) 
pfpi4k_grid

>  <i_i_glide_lignum>  (224) 
8

>  <i_i_glide_rotatable_bonds>  (224) 
0

>  <r_i_docking_score>  (224) 
-4.59908

>  <r_i_glide_ligand_efficiency>  (224) 
-0.418098

>  <r_i_glide_ligand_efficiency_sa>  (224) 
-0.929842

>  <r_i_glide_ligand_efficiency_ln>  (224) 
-1.35351

>  <r_i_glide_gscore>  (224) 
-4.59908

>  <r_i_glide_lipo>  (224) 
-0.420052

>  <r_i_glide_hbond>  (224) 
-0.2

>  <r_i_glide_metal>  (224) 
-0

>  <r_i_glide_rewards>  (224) 
-2.25

>  <r_i_glide_evdw>  (224) 
-13.6599

>  <r_i_glide_ecoul>  (224) 
-6.50086

>  <r_i_glide_erotb>  (224) 
0

>  <r_i_glide_esite>  (224) 
-0.0709002

>  <r_i_glide_emodel>  (224) 
-27.5304

>  <r_i_glide_energy>  (224) 
-20.1608

>  <r_i_glide_einternal>  (224) 
0

>  <r_i_glide_intrahb_reward>  (224) 
-0

>  <i_i_glide_confnum>  (224) 
1

>  <i_i_glide_posenum>  (224) 
18

>  <r_i_glide_eff_state_penalty>  (224) 
0

>  <ligand_id>  (224) 
59

>  <original_smiles>  (224) 
NC12CC3CC(CC(C3)C1)C2

>  <smiles>  (224) 
[H]C1([H])C2([H])C([H])([H])C3([H])C([H])([H])C1([H])C([H])([H])C([N+]([H])([H])[H])(C2([H])[H])C3([H])[H]

$$$$
59:0:1
     RDKit          3D

 29 31  0  0  1  0  0  0  0  0999 V2000
    2.2138   -3.0975   -1.6566 N   0  0  0  0  0  0  0  0  0  0  0  0
    3.4905   -2.7500   -1.0213 C   0  0  1  0  0  0  0  0  0  0  0  0
    3.2712   -2.4293    0.4826 C   0  0  0  0  0  0  0  0  0  0  0  0
    4.6119   -2.0549    1.1414 C   0  0  2  0  0  0  0  0  0  0  0  0
    5.1993   -0.8163    0.4312 C   0  0  0  0  0  0  0  0  0  0  0  0
    5.4140   -1.1374   -1.0627 C   0  0  1  0  0  0  0  0  0  0  0  0
    6.3989   -2.3174   -1.1964 C   0  0  0  0  0  0  0  0  0  0  0  0
    5.8162   -3.5511   -0.4774 C   0  0  1  0  0  0  0  0  0  0  0  0
    5.5875   -3.2418    1.0119 C   0  0  0  0  0  0  0  0  0  0  0  0
    4.4817   -3.9308   -1.1386 C   0  0  0  0  0  0  0  0  0  0  0  0
    4.0769   -1.5058   -1.7213 C   0  0  0  0  0  0  0  0  0  0  0  0
    2.3363   -3.2722   -2.6418 H   0  0  0  0  0  0  0  0  0  0  0  0
    1.5784   -2.3119   -1.5152 H   0  0  0  0  0  0  0  0  0  0  0  0
    2.5761   -1.5961    0.6004 H   0  0  0  0  0  0  0  0  0  0  0  0
    2.8255   -3.2821    1.0025 H   0  0  0  0  0  0  0  0  0  0  0  0
    4.4467   -1.8275    2.1960 H   0  0  0  0  0  0  0  0  0  0  0  0
    4.5300    0.0381    0.5399 H   0  0  0  0  0  0  0  0  0  0  0  0
    6.1453   -0.5338    0.8946 H   0  0  0  0  0  0  0  0  0  0  0  0
    5.8173   -0.2592   -1.5625 H   0  0  0  0  0  0  0  0  0  0  0  0
    6.5746   -2.5539   -2.2467 H   0  0  0  0  0  0  0  0  0  0  0  0
    7.3652   -2.0647   -0.7577 H   0  0  0  0  0  0  0  0  0  0  0  0
    6.5136   -4.3832   -0.5645 H   0  0  0  0  0  0  0  0  0  0  0  0
    6.5364   -3.0097    1.4955 H   0  0  0  0  0  0  0  0  0  0  0  0
    5.1805   -4.1156    1.5202 H   0  0  0  0  0  0  0  0  0  0  0  0
    4.0789   -4.8260   -0.6603 H   0  0  0  0  0  0  0  0  0  0  0  0
    4.6468   -4.1914   -2.1885 H   0  0  0  0  0  0  0  0  0  0  0  0
    4.2221   -1.6973   -2.7835 H   0  0  0  0  0  0  0  0  0  0  0  0
    3.3837   -0.6676   -1.6573 H   0  0  0  0  0  0  0  0  0  0  0  0
    1.8426   -3.9325   -1.2254 H   0  0  0  0  0  0  0  0  0  0  0  0
  2  1  1  6
  1 12  1  0
  1 13  1  0
  1 29  1  0
  2 10  1  0
  2 11  1  0
  2  3  1  0
  3  4  1  0
  3 14  1  0
  3 15  1  0
  4  9  1  0
  4  5  1  0
  4 16  1  1
  5  6  1  0
  5 17  1  0
  5 18  1  0
  6  7  1  0
  6 11  1  0
  6 19  1  6
  7  8  1  0
  7 20  1  0
  7 21  1  0
  8  9  1  0
  8 10  1  0
  8 22  1  1
  9 23  1  0
  9 24  1  0
 10 25  1  0
 10 26  1  0
 11 27  1  0
 11 28  1  0
M  CHG  1   1   1
M  END
>  <i_m_ct_stereo_status>  (225) 
1

>  <s_m_source_file>  (225) 
/var/tmp/pbs.5076255.sched01/tmpyc7t0a4i/88yk12rjyo.sdf

>  <i_m_source_file_index>  (225) 
8

>  <i_lp_mmshare_version>  (225) 
48012

>  <i_f3d_flags>  (225) 
0

>  <s_epik_input>  (225) 
W05IMl1DMTJbQ0gyXVtDQEhdM1tDSDJdW0NAQEhdKFtDSDJdMilbQ0gyXVtDQEhdKFtDSDJdMylbQ0gyXTE=

>  <s_epik_cmdline>  (225) 
J2VwaWtfcHl0aG9uJywgJy1waHQnLCAnMi4wJywgJy1waCcsICc3LjAnLCAnLXRuJywgJzgnLCAnLW1hJywgJzIwMCcsICctaW1hZScsICc8aW5maWxlLm1hZT4nLCAnLW9tYWUnLCAnPG91dGZpbGUubWFlPic=

>  <r_lp_tautomer_probability>  (225) 
1

>  <r_epik_Ionization_Penalty>  (225) 
7.35582e-05

>  <r_epik_Ionization_Penalty_Charging>  (225) 
7.35582e-05

>  <r_epik_Ionization_Penalty_Neutral>  (225) 
0

>  <r_epik_State_Penalty>  (225) 
-0

>  <r_epik_Charging_Adjusted_Penalty>  (225) 
7.35582e-05

>  <i_epik_Tot_Q>  (225) 
1

>  <i_epik_Tot_abs_Q>  (225) 
1

>  <s_lp_Force_Field>  (225) 
OPLS3e

>  <r_lp_Energy>  (225) 
5.13462

>  <b_lp_Chiralities_Consistent>  (225) 
1

>  <s_lp_Variant>  (225) 
59:0-1

>  <s_i_glide_gridfile>  (225) 
pfpi4k_grid

>  <i_i_glide_lignum>  (225) 
8

>  <i_i_glide_rotatable_bonds>  (225) 
0

>  <r_i_docking_score>  (225) 
-4.34956

>  <r_i_glide_ligand_efficiency>  (225) 
-0.395415

>  <r_i_glide_ligand_efficiency_sa>  (225) 
-0.879394

>  <r_i_glide_ligand_efficiency_ln>  (225) 
-1.28007

>  <r_i_glide_gscore>  (225) 
-4.34956

>  <r_i_glide_lipo>  (225) 
-0.274227

>  <r_i_glide_hbond>  (225) 
-0.2

>  <r_i_glide_metal>  (225) 
-0

>  <r_i_glide_rewards>  (225) 
-2.25

>  <r_i_glide_evdw>  (225) 
-13.7433

>  <r_i_glide_ecoul>  (225) 
-6.25444

>  <r_i_glide_erotb>  (225) 
0

>  <r_i_glide_esite>  (225) 
0

>  <r_i_glide_emodel>  (225) 
-26.9703

>  <r_i_glide_energy>  (225) 
-19.9978

>  <r_i_glide_einternal>  (225) 
0

>  <r_i_glide_intrahb_reward>  (225) 
-0

>  <i_i_glide_confnum>  (225) 
2

>  <i_i_glide_posenum>  (225) 
37

>  <r_i_glide_eff_state_penalty>  (225) 
0

>  <ligand_id>  (225) 
59

>  <original_smiles>  (225) 
NC12CC3CC(CC(C3)C1)C2

>  <smiles>  (225) 
[H]C1([H])C2([H])C([H])([H])C3([H])C([H])([H])C1([H])C([H])([H])C([N+]([H])([H])[H])(C2([H])[H])C3([H])[H]

$$$$
59:0:2
     RDKit          3D

 29 31  0  0  1  0  0  0  0  0999 V2000
    2.5921   -3.4552   -3.1279 N   0  0  0  0  0  0  0  0  0  0  0  0
    3.4517   -3.0513   -1.9991 C   0  0  1  0  0  0  0  0  0  0  0  0
    4.8489   -3.7176   -2.1230 C   0  0  0  0  0  0  0  0  0  0  0  0
    5.7355   -3.2987   -0.9371 C   0  0  2  0  0  0  0  0  0  0  0  0
    5.0830   -3.7400    0.3891 C   0  0  0  0  0  0  0  0  0  0  0  0
    3.6950   -3.0722    0.5196 C   0  0  1  0  0  0  0  0  0  0  0  0
    3.8506   -1.5411    0.5116 C   0  0  0  0  0  0  0  0  0  0  0  0
    4.5131   -1.1029   -0.8137 C   0  0  1  0  0  0  0  0  0  0  0  0
    5.8922   -1.7682   -0.9541 C   0  0  0  0  0  0  0  0  0  0  0  0
    3.6275   -1.5190   -2.0016 C   0  0  0  0  0  0  0  0  0  0  0  0
    2.8064   -3.4991   -0.6656 C   0  0  0  0  0  0  0  0  0  0  0  0
    1.6786   -3.0398   -3.0256 H   0  0  0  0  0  0  0  0  0  0  0  0
    2.5068   -4.4703   -3.1097 H   0  0  0  0  0  0  0  0  0  0  0  0
    4.7602   -4.8030   -2.1280 H   0  0  0  0  0  0  0  0  0  0  0  0
    5.3273   -3.4439   -3.0691 H   0  0  0  0  0  0  0  0  0  0  0  0
    6.7150   -3.7708   -1.0351 H   0  0  0  0  0  0  0  0  0  0  0  0
    4.9883   -4.8246    0.4231 H   0  0  0  0  0  0  0  0  0  0  0  0
    5.7178   -3.4560    1.2310 H   0  0  0  0  0  0  0  0  0  0  0  0
    3.2365   -3.3829    1.4596 H   0  0  0  0  0  0  0  0  0  0  0  0
    2.8763   -1.0603    0.6157 H   0  0  0  0  0  0  0  0  0  0  0  0
    4.4525   -1.2149    1.3633 H   0  0  0  0  0  0  0  0  0  0  0  0
    4.6161   -0.0199   -0.8055 H   0  0  0  0  0  0  0  0  0  0  0  0
    6.5581   -1.4470   -0.1521 H   0  0  0  0  0  0  0  0  0  0  0  0
    6.3501   -1.4736   -1.8960 H   0  0  0  0  0  0  0  0  0  0  0  0
    4.0757   -1.1746   -2.9324 H   0  0  0  0  0  0  0  0  0  0  0  0
    2.6551   -1.0214   -1.9264 H   0  0  0  0  0  0  0  0  0  0  0  0
    1.8161   -3.0586   -0.5563 H   0  0  0  0  0  0  0  0  0  0  0  0
    2.6645   -4.5794   -0.6498 H   0  0  0  0  0  0  0  0  0  0  0  0
    2.9982   -3.1644   -4.0009 H   0  0  0  0  0  0  0  0  0  0  0  0
  2  1  1  6
  1 12  1  0
  1 13  1  0
  1 29  1  0
  2 10  1  0
  2 11  1  0
  2  3  1  0
  3  4  1  0
  3 14  1  0
  3 15  1  0
  4  9  1  0
  4  5  1  0
  4 16  1  6
  5  6  1  0
  5 17  1  0
  5 18  1  0
  6  7  1  0
  6 11  1  0
  6 19  1  1
  7  8  1  0
  7 20  1  0
  7 21  1  0
  8  9  1  0
  8 10  1  0
  8 22  1  1
  9 23  1  0
  9 24  1  0
 10 25  1  0
 10 26  1  0
 11 27  1  0
 11 28  1  0
M  CHG  1   1   1
M  END
>  <i_m_ct_stereo_status>  (226) 
1

>  <s_m_source_file>  (226) 
/var/tmp/pbs.5076255.sched01/tmpyc7t0a4i/88yk12rjyo.sdf

>  <i_m_source_file_index>  (226) 
8

>  <i_lp_mmshare_version>  (226) 
48012

>  <i_f3d_flags>  (226) 
0

>  <s_epik_input>  (226) 
W05IMl1DMTJbQ0gyXVtDQEhdM1tDSDJdW0NAQEhdKFtDSDJdMilbQ0gyXVtDQEhdKFtDSDJdMylbQ0gyXTE=

>  <s_epik_cmdline>  (226) 
J2VwaWtfcHl0aG9uJywgJy1waHQnLCAnMi4wJywgJy1waCcsICc3LjAnLCAnLXRuJywgJzgnLCAnLW1hJywgJzIwMCcsICctaW1hZScsICc8aW5maWxlLm1hZT4nLCAnLW9tYWUnLCAnPG91dGZpbGUubWFlPic=

>  <r_lp_tautomer_probability>  (226) 
1

>  <r_epik_Ionization_Penalty>  (226) 
7.35582e-05

>  <r_epik_Ionization_Penalty_Charging>  (226) 
7.35582e-05

>  <r_epik_Ionization_Penalty_Neutral>  (226) 
0

>  <r_epik_State_Penalty>  (226) 
-0

>  <r_epik_Charging_Adjusted_Penalty>  (226) 
7.35582e-05

>  <i_epik_Tot_Q>  (226) 
1

>  <i_epik_Tot_abs_Q>  (226) 
1

>  <s_lp_Force_Field>  (226) 
OPLS3e

>  <r_lp_Energy>  (226) 
5.13462

>  <b_lp_Chiralities_Consistent>  (226) 
1

>  <s_lp_Variant>  (226) 
59:0-1

>  <s_i_glide_gridfile>  (226) 
pfpi4k_grid

>  <i_i_glide_lignum>  (226) 
8

>  <i_i_glide_rotatable_bonds>  (226) 
0

>  <r_i_docking_score>  (226) 
-4.05994

>  <r_i_glide_ligand_efficiency>  (226) 
-0.369085

>  <r_i_glide_ligand_efficiency_sa>  (226) 
-0.820839

>  <r_i_glide_ligand_efficiency_ln>  (226) 
-1.19484

>  <r_i_glide_gscore>  (226) 
-4.05994

>  <r_i_glide_lipo>  (226) 
-0.127274

>  <r_i_glide_hbond>  (226) 
0

>  <r_i_glide_metal>  (226) 
-0

>  <r_i_glide_rewards>  (226) 
-2.25

>  <r_i_glide_evdw>  (226) 
-14.0701

>  <r_i_glide_ecoul>  (226) 
-6.52773

>  <r_i_glide_erotb>  (226) 
0

>  <r_i_glide_esite>  (226) 
0

>  <r_i_glide_emodel>  (226) 
-27.1077

>  <r_i_glide_energy>  (226) 
-20.5978

>  <r_i_glide_einternal>  (226) 
0

>  <r_i_glide_intrahb_reward>  (226) 
-0

>  <i_i_glide_confnum>  (226) 
2

>  <i_i_glide_posenum>  (226) 
40

>  <r_i_glide_eff_state_penalty>  (226) 
0

>  <ligand_id>  (226) 
59

>  <original_smiles>  (226) 
NC12CC3CC(CC(C3)C1)C2

>  <smiles>  (226) 
[H]C1([H])C2([H])C([H])([H])C3([H])C([H])([H])C1([H])C([H])([H])C([N+]([H])([H])[H])(C2([H])[H])C3([H])[H]

$$$$
60:0:0
     RDKit          3D

 38 40  0  0  1  0  0  0  0  0999 V2000
    1.8000   -5.7384    1.0849 O   0  0  0  0  0  0  0  0  0  0  0  0
    2.6516   -4.8780    1.2887 C   0  0  0  0  0  0  0  0  0  0  0  0
    2.5588   -3.8906    2.1881 N   0  0  0  0  0  0  0  0  0  0  0  0
    3.6870   -2.9895    2.1612 C   0  0  0  0  0  0  0  0  0  0  0  0
    4.6156   -3.6240    1.1134 C   0  0  2  0  0  0  0  0  0  0  0  0
    5.8995   -4.2234    1.7079 C   0  0  0  0  0  0  0  0  0  0  0  0
    6.9299   -4.2496    0.5714 C   0  0  0  0  0  0  0  0  0  0  0  0
    6.3793   -3.3854   -0.5576 C   0  0  0  0  0  0  0  0  0  0  0  0
    5.1486   -2.6582    0.0080 C   0  0  1  0  0  0  0  0  0  0  0  0
    4.1694   -2.1223   -1.0788 C   0  0  0  0  0  0  0  0  0  0  0  0
    3.5379   -3.2366   -1.9519 C   0  0  0  0  0  0  0  0  0  0  0  0
    2.6654   -2.7154   -3.0728 C   0  0  0  0  0  0  0  0  0  0  0  0
    3.4489   -1.7512   -3.9530 C   0  0  0  0  0  0  0  0  0  0  0  0
    4.0218   -0.5979   -3.1255 C   0  0  0  0  0  0  0  0  0  0  0  0
    4.9052   -1.1048   -1.9793 C   0  0  0  0  0  0  0  0  0  0  0  0
    3.8036   -4.7406    0.6425 N   0  0  0  0  0  0  0  0  0  0  0  0
    1.7585   -3.7642    2.7923 H   0  0  0  0  0  0  0  0  0  0  0  0
    3.3470   -1.9884    1.8761 H   0  0  0  0  0  0  0  0  0  0  0  0
    4.1385   -2.9558    3.1585 H   0  0  0  0  0  0  0  0  0  0  0  0
    6.2527   -3.5872    2.5155 H   0  0  0  0  0  0  0  0  0  0  0  0
    5.7268   -5.2222    2.1213 H   0  0  0  0  0  0  0  0  0  0  0  0
    7.8847   -3.8606    0.9182 H   0  0  0  0  0  0  0  0  0  0  0  0
    7.0747   -5.2642    0.2006 H   0  0  0  0  0  0  0  0  0  0  0  0
    7.1241   -2.6882   -0.9385 H   0  0  0  0  0  0  0  0  0  0  0  0
    6.1161   -4.0457   -1.3758 H   0  0  0  0  0  0  0  0  0  0  0  0
    5.5227   -1.7860    0.5520 H   0  0  0  0  0  0  0  0  0  0  0  0
    3.3617   -1.5798   -0.5777 H   0  0  0  0  0  0  0  0  0  0  0  0
    4.2971   -3.8740   -2.4019 H   0  0  0  0  0  0  0  0  0  0  0  0
    2.8660   -3.8641   -1.3782 H   0  0  0  0  0  0  0  0  0  0  0  0
    2.3126   -3.5727   -3.6462 H   0  0  0  0  0  0  0  0  0  0  0  0
    1.7922   -2.2349   -2.6388 H   0  0  0  0  0  0  0  0  0  0  0  0
    4.2569   -2.2944   -4.4458 H   0  0  0  0  0  0  0  0  0  0  0  0
    2.7887   -1.3638   -4.7221 H   0  0  0  0  0  0  0  0  0  0  0  0
    4.6017    0.0541   -3.7758 H   0  0  0  0  0  0  0  0  0  0  0  0
    3.2093    0.0035   -2.7219 H   0  0  0  0  0  0  0  0  0  0  0  0
    5.2745   -0.2595   -1.3944 H   0  0  0  0  0  0  0  0  0  0  0  0
    5.7813   -1.5787   -2.4179 H   0  0  0  0  0  0  0  0  0  0  0  0
    4.1191   -5.3555   -0.0986 H   0  0  0  0  0  0  0  0  0  0  0  0
  1  2  2  0
  2 16  1  0
  2  3  1  0
  3  4  1  0
  3 17  1  0
  4  5  1  0
  4 18  1  0
  4 19  1  0
  5  9  1  0
  5  6  1  0
  5 16  1  6
  6  7  1  0
  6 20  1  0
  6 21  1  0
  7  8  1  0
  7 22  1  0
  7 23  1  0
  8  9  1  0
  8 24  1  0
  8 25  1  0
  9 10  1  0
  9 26  1  1
 10 15  1  0
 10 11  1  0
 10 27  1  0
 11 12  1  0
 11 28  1  0
 11 29  1  0
 12 13  1  0
 12 30  1  0
 12 31  1  0
 13 14  1  0
 13 32  1  0
 13 33  1  0
 14 15  1  0
 14 34  1  0
 14 35  1  0
 15 36  1  0
 15 37  1  0
 16 38  1  0
M  END
>  <i_m_ct_stereo_status>  (227) 
1

>  <s_m_source_file>  (227) 
/var/tmp/pbs.5076255.sched01/tmpyc7t0a4i/88yk12rjyo.sdf

>  <i_m_source_file_index>  (227) 
9

>  <i_lp_mmshare_version>  (227) 
48012

>  <i_f3d_flags>  (227) 
0

>  <s_epik_input>  (227) 
Tz1DKFtOSF0xKVtOSF1bQ0gyXVtDQEBdMTJbQ0gyXVtDSDJdW0NIMl1bQ0BIXTJbQ0hdM1tDSDJdW0NIMl1bQ0gyXVtDSDJdW0NIMl0z

>  <s_epik_cmdline>  (227) 
J2VwaWtfcHl0aG9uJywgJy1waHQnLCAnMi4wJywgJy1waCcsICc3LjAnLCAnLXRuJywgJzgnLCAnLW1hJywgJzIwMCcsICctaW1hZScsICc8aW5maWxlLm1hZT4nLCAnLW9tYWUnLCAnPG91dGZpbGUubWFlPic=

>  <r_lp_tautomer_probability>  (227) 
1

>  <r_epik_Ionization_Penalty>  (227) 
7.8425e-05

>  <r_epik_Ionization_Penalty_Charging>  (227) 
0

>  <r_epik_Ionization_Penalty_Neutral>  (227) 
7.8425e-05

>  <r_epik_State_Penalty>  (227) 
-0

>  <r_epik_Charging_Adjusted_Penalty>  (227) 
0

>  <i_epik_Tot_Q>  (227) 
0

>  <i_epik_Tot_abs_Q>  (227) 
0

>  <s_lp_Force_Field>  (227) 
OPLS3e

>  <r_lp_Energy>  (227) 
17.8837

>  <b_lp_Chiralities_Consistent>  (227) 
1

>  <s_lp_Variant>  (227) 
60:0-1

>  <s_i_glide_gridfile>  (227) 
pfpi4k_grid

>  <i_i_glide_lignum>  (227) 
9

>  <i_i_glide_rotatable_bonds>  (227) 
1

>  <r_i_docking_score>  (227) 
-3.84808

>  <r_i_glide_ligand_efficiency>  (227) 
-0.240505

>  <r_i_glide_ligand_efficiency_sa>  (227) 
-0.606034

>  <r_i_glide_ligand_efficiency_ln>  (227) 
-1.02001

>  <r_i_glide_gscore>  (227) 
-3.84808

>  <r_i_glide_lipo>  (227) 
-0.657114

>  <r_i_glide_hbond>  (227) 
-0.0745758

>  <r_i_glide_metal>  (227) 
-0

>  <r_i_glide_rewards>  (227) 
-1.89323

>  <r_i_glide_evdw>  (227) 
-22.4754

>  <r_i_glide_ecoul>  (227) 
-2.76736

>  <r_i_glide_erotb>  (227) 
0.341884

>  <r_i_glide_esite>  (227) 
-0.0261724

>  <r_i_glide_emodel>  (227) 
-28.2727

>  <r_i_glide_energy>  (227) 
-25.2427

>  <r_i_glide_einternal>  (227) 
5.52544

>  <r_i_glide_intrahb_reward>  (227) 
-0

>  <i_i_glide_confnum>  (227) 
3

>  <i_i_glide_posenum>  (227) 
23

>  <r_i_glide_eff_state_penalty>  (227) 
0

>  <ligand_id>  (227) 
60

>  <original_smiles>  (227) 
O=C1NCC2(CCCC2C2CCCCC2)N1

>  <smiles>  (227) 
[H]N1C(=O)N([H])C2(C1([H])[H])C([H])([H])C([H])([H])C([H])([H])C2([H])C1([H])C([H])([H])C([H])([H])C([H])([H])C([H])([H])C1([H])[H]

$$$$
60:0:1
     RDKit          3D

 38 40  0  0  1  0  0  0  0  0999 V2000
    2.1080   -0.2907    2.4874 O   0  0  0  0  0  0  0  0  0  0  0  0
    3.1452   -0.6503    1.9386 C   0  0  0  0  0  0  0  0  0  0  0  0
    4.2256    0.1066    1.7423 N   0  0  0  0  0  0  0  0  0  0  0  0
    5.3439   -0.6349    1.2109 C   0  0  0  0  0  0  0  0  0  0  0  0
    4.7831   -2.0628    1.0694 C   0  0  2  0  0  0  0  0  0  0  0  0
    5.4589   -3.0381    2.0481 C   0  0  0  0  0  0  0  0  0  0  0  0
    5.2606   -4.4353    1.4619 C   0  0  0  0  0  0  0  0  0  0  0  0
    4.7492   -4.2430    0.0339 C   0  0  0  0  0  0  0  0  0  0  0  0
    4.9431   -2.7635   -0.3085 C   0  0  1  0  0  0  0  0  0  0  0  0
    4.0526   -2.2925   -1.4890 C   0  0  0  0  0  0  0  0  0  0  0  0
    4.2450   -3.2273   -2.6963 C   0  0  0  0  0  0  0  0  0  0  0  0
    3.4485   -2.7738   -3.9189 C   0  0  0  0  0  0  0  0  0  0  0  0
    3.8107   -1.3392   -4.3189 C   0  0  0  0  0  0  0  0  0  0  0  0
    3.6158   -0.3908   -3.1439 C   0  0  0  0  0  0  0  0  0  0  0  0
    4.4058   -0.8616   -1.9262 C   0  0  0  0  0  0  0  0  0  0  0  0
    3.3903   -1.8680    1.4711 N   0  0  0  0  0  0  0  0  0  0  0  0
    4.2644    1.0896    1.9920 H   0  0  0  0  0  0  0  0  0  0  0  0
    5.6612   -0.1904    0.2720 H   0  0  0  0  0  0  0  0  0  0  0  0
    6.2056   -0.5767    1.8791 H   0  0  0  0  0  0  0  0  0  0  0  0
    6.5276   -2.8185    2.0861 H   0  0  0  0  0  0  0  0  0  0  0  0
    5.0649   -2.9500    3.0615 H   0  0  0  0  0  0  0  0  0  0  0  0
    6.2072   -4.9752    1.4590 H   0  0  0  0  0  0  0  0  0  0  0  0
    4.5373   -5.0094    2.0404 H   0  0  0  0  0  0  0  0  0  0  0  0
    5.2816   -4.8828   -0.6650 H   0  0  0  0  0  0  0  0  0  0  0  0
    3.6930   -4.5066   -0.0185 H   0  0  0  0  0  0  0  0  0  0  0  0
    5.9876   -2.6315   -0.5983 H   0  0  0  0  0  0  0  0  0  0  0  0
    2.9997   -2.3178   -1.1915 H   0  0  0  0  0  0  0  0  0  0  0  0
    5.3050   -3.2934   -2.9454 H   0  0  0  0  0  0  0  0  0  0  0  0
    3.9290   -4.2391   -2.4556 H   0  0  0  0  0  0  0  0  0  0  0  0
    3.6599   -3.4619   -4.7291 H   0  0  0  0  0  0  0  0  0  0  0  0
    2.3793   -2.8521   -3.7157 H   0  0  0  0  0  0  0  0  0  0  0  0
    4.8518   -1.2907   -4.6354 H   0  0  0  0  0  0  0  0  0  0  0  0
    3.2004   -1.0096   -5.1568 H   0  0  0  0  0  0  0  0  0  0  0  0
    3.9282    0.6170   -3.4135 H   0  0  0  0  0  0  0  0  0  0  0  0
    2.5610   -0.3265   -2.8799 H   0  0  0  0  0  0  0  0  0  0  0  0
    4.1864   -0.1765   -1.1238 H   0  0  0  0  0  0  0  0  0  0  0  0
    5.4723   -0.7791   -2.1225 H   0  0  0  0  0  0  0  0  0  0  0  0
    2.7593   -2.6480    1.6044 H   0  0  0  0  0  0  0  0  0  0  0  0
  1  2  2  0
  2 16  1  0
  2  3  1  0
  3  4  1  0
  3 17  1  0
  4  5  1  0
  4 18  1  0
  4 19  1  0
  5  9  1  0
  5  6  1  0
  5 16  1  1
  6  7  1  0
  6 20  1  0
  6 21  1  0
  7  8  1  0
  7 22  1  0
  7 23  1  0
  8  9  1  0
  8 24  1  0
  8 25  1  0
  9 10  1  0
  9 26  1  6
 10 15  1  0
 10 11  1  0
 10 27  1  0
 11 12  1  0
 11 28  1  0
 11 29  1  0
 12 13  1  0
 12 30  1  0
 12 31  1  0
 13 14  1  0
 13 32  1  0
 13 33  1  0
 14 15  1  0
 14 34  1  0
 14 35  1  0
 15 36  1  0
 15 37  1  0
 16 38  1  0
M  END
>  <i_m_ct_stereo_status>  (228) 
1

>  <s_m_source_file>  (228) 
/var/tmp/pbs.5076255.sched01/tmpyc7t0a4i/88yk12rjyo.sdf

>  <i_m_source_file_index>  (228) 
9

>  <i_lp_mmshare_version>  (228) 
48012

>  <i_f3d_flags>  (228) 
0

>  <s_epik_input>  (228) 
Tz1DKFtOSF0xKVtOSF1bQ0gyXVtDQEBdMTJbQ0gyXVtDSDJdW0NIMl1bQ0BIXTJbQ0hdM1tDSDJdW0NIMl1bQ0gyXVtDSDJdW0NIMl0z

>  <s_epik_cmdline>  (228) 
J2VwaWtfcHl0aG9uJywgJy1waHQnLCAnMi4wJywgJy1waCcsICc3LjAnLCAnLXRuJywgJzgnLCAnLW1hJywgJzIwMCcsICctaW1hZScsICc8aW5maWxlLm1hZT4nLCAnLW9tYWUnLCAnPG91dGZpbGUubWFlPic=

>  <r_lp_tautomer_probability>  (228) 
1

>  <r_epik_Ionization_Penalty>  (228) 
7.8425e-05

>  <r_epik_Ionization_Penalty_Charging>  (228) 
0

>  <r_epik_Ionization_Penalty_Neutral>  (228) 
7.8425e-05

>  <r_epik_State_Penalty>  (228) 
-0

>  <r_epik_Charging_Adjusted_Penalty>  (228) 
0

>  <i_epik_Tot_Q>  (228) 
0

>  <i_epik_Tot_abs_Q>  (228) 
0

>  <s_lp_Force_Field>  (228) 
OPLS3e

>  <r_lp_Energy>  (228) 
17.8837

>  <b_lp_Chiralities_Consistent>  (228) 
1

>  <s_lp_Variant>  (228) 
60:0-1

>  <s_i_glide_gridfile>  (228) 
pfpi4k_grid

>  <i_i_glide_lignum>  (228) 
9

>  <i_i_glide_rotatable_bonds>  (228) 
1

>  <r_i_docking_score>  (228) 
-3.6467

>  <r_i_glide_ligand_efficiency>  (228) 
-0.227919

>  <r_i_glide_ligand_efficiency_sa>  (228) 
-0.574319

>  <r_i_glide_ligand_efficiency_ln>  (228) 
-0.96663

>  <r_i_glide_gscore>  (228) 
-3.6467

>  <r_i_glide_lipo>  (228) 
-0.503297

>  <r_i_glide_hbond>  (228) 
-0.269969

>  <r_i_glide_metal>  (228) 
-0

>  <r_i_glide_rewards>  (228) 
-1.89323

>  <r_i_glide_evdw>  (228) 
-23.4031

>  <r_i_glide_ecoul>  (228) 
-0.771752

>  <r_i_glide_erotb>  (228) 
0.341884

>  <r_i_glide_esite>  (228) 
-0.0361699

>  <r_i_glide_emodel>  (228) 
-29.655

>  <r_i_glide_energy>  (228) 
-24.1748

>  <r_i_glide_einternal>  (228) 
0.232474

>  <r_i_glide_intrahb_reward>  (228) 
-0

>  <i_i_glide_confnum>  (228) 
1

>  <i_i_glide_posenum>  (228) 
33

>  <r_i_glide_eff_state_penalty>  (228) 
0

>  <ligand_id>  (228) 
60

>  <original_smiles>  (228) 
O=C1NCC2(CCCC2C2CCCCC2)N1

>  <smiles>  (228) 
[H]N1C(=O)N([H])C2(C1([H])[H])C([H])([H])C([H])([H])C([H])([H])C2([H])C1([H])C([H])([H])C([H])([H])C([H])([H])C([H])([H])C1([H])[H]

$$$$
60:0:2
     RDKit          3D

 38 40  0  0  1  0  0  0  0  0999 V2000
    1.8726   -3.0806    2.7502 O   0  0  0  0  0  0  0  0  0  0  0  0
    2.6540   -2.2574    2.2775 C   0  0  0  0  0  0  0  0  0  0  0  0
    2.5483   -0.9426    2.3947 N   0  0  0  0  0  0  0  0  0  0  0  0
    3.6291   -0.2291    1.7113 C   0  0  0  0  0  0  0  0  0  0  0  0
    4.5118   -1.3797    1.1875 C   0  0  2  0  0  0  0  0  0  0  0  0
    5.8804   -1.4776    1.8865 C   0  0  0  0  0  0  0  0  0  0  0  0
    6.8156   -2.1935    0.9016 C   0  0  0  0  0  0  0  0  0  0  0  0
    6.1353   -2.2074   -0.4554 C   0  0  0  0  0  0  0  0  0  0  0  0
    4.9075   -1.2900   -0.3274 C   0  0  1  0  0  0  0  0  0  0  0  0
    3.8198   -1.5451   -1.4160 C   0  0  0  0  0  0  0  0  0  0  0  0
    3.1958   -2.9670   -1.3772 C   0  0  0  0  0  0  0  0  0  0  0  0
    2.2114   -3.2214   -2.4948 C   0  0  0  0  0  0  0  0  0  0  0  0
    2.8638   -2.9838   -3.8525 C   0  0  0  0  0  0  0  0  0  0  0  0
    3.4173   -1.5524   -3.9445 C   0  0  0  0  0  0  0  0  0  0  0  0
    4.4121   -1.2650   -2.8178 C   0  0  0  0  0  0  0  0  0  0  0  0
    3.7493   -2.5408    1.5639 N   0  0  0  0  0  0  0  0  0  0  0  0
    1.8126   -0.4630    2.8504 H   0  0  0  0  0  0  0  0  0  0  0  0
    3.1981    0.3643    0.9172 H   0  0  0  0  0  0  0  0  0  0  0  0
    4.1342    0.3893    2.4402 H   0  0  0  0  0  0  0  0  0  0  0  0
    6.2653   -0.4868    2.1110 H   0  0  0  0  0  0  0  0  0  0  0  0
    5.8019   -2.0215    2.8342 H   0  0  0  0  0  0  0  0  0  0  0  0
    7.7700   -1.6746    0.8488 H   0  0  0  0  0  0  0  0  0  0  0  0
    6.9936   -3.2220    1.2144 H   0  0  0  0  0  0  0  0  0  0  0  0
    6.7974   -1.8858   -1.2543 H   0  0  0  0  0  0  0  0  0  0  0  0
    5.8679   -3.2360   -0.6634 H   0  0  0  0  0  0  0  0  0  0  0  0
    5.2580   -0.2657   -0.4629 H   0  0  0  0  0  0  0  0  0  0  0  0
    3.0201   -0.8180   -1.2644 H   0  0  0  0  0  0  0  0  0  0  0  0
    3.9505   -3.7477   -1.4344 H   0  0  0  0  0  0  0  0  0  0  0  0
    2.6023   -3.1237   -0.4857 H   0  0  0  0  0  0  0  0  0  0  0  0
    1.8536   -4.2459   -2.4013 H   0  0  0  0  0  0  0  0  0  0  0  0
    1.3424   -2.5919   -2.3533 H   0  0  0  0  0  0  0  0  0  0  0  0
    3.6672   -3.7089   -4.0015 H   0  0  0  0  0  0  0  0  0  0  0  0
    2.1196   -3.1637   -4.6260 H   0  0  0  0  0  0  0  0  0  0  0  0
    3.9078   -1.4090   -4.9058 H   0  0  0  0  0  0  0  0  0  0  0  0
    2.6091   -0.8259   -3.8994 H   0  0  0  0  0  0  0  0  0  0  0  0
    4.7579   -0.2310   -2.8863 H   0  0  0  0  0  0  0  0  0  0  0  0
    5.2825   -1.8973   -2.9868 H   0  0  0  0  0  0  0  0  0  0  0  0
    4.0422   -3.4844    1.3358 H   0  0  0  0  0  0  0  0  0  0  0  0
  1  2  2  0
  2 16  1  0
  2  3  1  0
  3  4  1  0
  3 17  1  0
  4  5  1  0
  4 18  1  0
  4 19  1  0
  5  9  1  0
  5  6  1  0
  5 16  1  6
  6  7  1  0
  6 20  1  0
  6 21  1  0
  7  8  1  0
  7 22  1  0
  7 23  1  0
  8  9  1  0
  8 24  1  0
  8 25  1  0
  9 10  1  0
  9 26  1  6
 10 15  1  0
 10 11  1  0
 10 27  1  0
 11 12  1  0
 11 28  1  0
 11 29  1  0
 12 13  1  0
 12 30  1  0
 12 31  1  0
 13 14  1  0
 13 32  1  0
 13 33  1  0
 14 15  1  0
 14 34  1  0
 14 35  1  0
 15 36  1  0
 15 37  1  0
 16 38  1  0
M  END
>  <i_m_ct_stereo_status>  (229) 
1

>  <s_m_source_file>  (229) 
/var/tmp/pbs.5076255.sched01/tmpyc7t0a4i/88yk12rjyo.sdf

>  <i_m_source_file_index>  (229) 
9

>  <i_lp_mmshare_version>  (229) 
48012

>  <i_f3d_flags>  (229) 
0

>  <s_epik_input>  (229) 
Tz1DKFtOSF0xKVtOSF1bQ0gyXVtDQEBdMTJbQ0gyXVtDSDJdW0NIMl1bQ0BIXTJbQ0hdM1tDSDJdW0NIMl1bQ0gyXVtDSDJdW0NIMl0z

>  <s_epik_cmdline>  (229) 
J2VwaWtfcHl0aG9uJywgJy1waHQnLCAnMi4wJywgJy1waCcsICc3LjAnLCAnLXRuJywgJzgnLCAnLW1hJywgJzIwMCcsICctaW1hZScsICc8aW5maWxlLm1hZT4nLCAnLW9tYWUnLCAnPG91dGZpbGUubWFlPic=

>  <r_lp_tautomer_probability>  (229) 
1

>  <r_epik_Ionization_Penalty>  (229) 
7.8425e-05

>  <r_epik_Ionization_Penalty_Charging>  (229) 
0

>  <r_epik_Ionization_Penalty_Neutral>  (229) 
7.8425e-05

>  <r_epik_State_Penalty>  (229) 
-0

>  <r_epik_Charging_Adjusted_Penalty>  (229) 
0

>  <i_epik_Tot_Q>  (229) 
0

>  <i_epik_Tot_abs_Q>  (229) 
0

>  <s_lp_Force_Field>  (229) 
OPLS3e

>  <r_lp_Energy>  (229) 
17.8837

>  <b_lp_Chiralities_Consistent>  (229) 
1

>  <s_lp_Variant>  (229) 
60:0-1

>  <s_i_glide_gridfile>  (229) 
pfpi4k_grid

>  <i_i_glide_lignum>  (229) 
9

>  <i_i_glide_rotatable_bonds>  (229) 
1

>  <r_i_docking_score>  (229) 
-3.21964

>  <r_i_glide_ligand_efficiency>  (229) 
-0.201228

>  <r_i_glide_ligand_efficiency_sa>  (229) 
-0.507062

>  <r_i_glide_ligand_efficiency_ln>  (229) 
-0.85343

>  <r_i_glide_gscore>  (229) 
-3.21964

>  <r_i_glide_lipo>  (229) 
-0.65162

>  <r_i_glide_hbond>  (229) 
0

>  <r_i_glide_metal>  (229) 
-0

>  <r_i_glide_rewards>  (229) 
-1.89323

>  <r_i_glide_evdw>  (229) 
-23.9602

>  <r_i_glide_ecoul>  (229) 
1.39626

>  <r_i_glide_erotb>  (229) 
0.341884

>  <r_i_glide_esite>  (229) 
-0.0281022

>  <r_i_glide_emodel>  (229) 
-24.5506

>  <r_i_glide_energy>  (229) 
-22.564

>  <r_i_glide_einternal>  (229) 
5.5213

>  <r_i_glide_intrahb_reward>  (229) 
-0

>  <i_i_glide_confnum>  (229) 
2

>  <i_i_glide_posenum>  (229) 
16

>  <r_i_glide_eff_state_penalty>  (229) 
0

>  <ligand_id>  (229) 
60

>  <original_smiles>  (229) 
O=C1NCC2(CCCC2C2CCCCC2)N1

>  <smiles>  (229) 
[H]N1C(=O)N([H])C2(C1([H])[H])C([H])([H])C([H])([H])C([H])([H])C2([H])C1([H])C([H])([H])C([H])([H])C([H])([H])C([H])([H])C1([H])[H]

$$$$
61:0:0
     RDKit          3D

 31 35  0  0  1  0  0  0  0  0999 V2000
    6.4586   -2.0499    0.0950 C   0  0  0  0  0  0  0  0  0  0  0  0
    5.2224   -2.5000    0.8782 C   0  0  0  0  0  0  0  0  0  0  0  0
    4.0886   -2.7156   -0.0449 N   0  0  2  0  0  0  0  0  0  0  0  0
    4.2186   -4.0815   -0.8195 C   0  0  0  0  0  0  0  0  0  0  0  0
    4.6481   -3.8218   -2.3898 C   0  0  1  0  0  0  0  0  0  0  0  0
    3.7417   -3.4454   -3.6763 C   0  0  0  0  0  0  0  0  0  0  0  0
    3.2441   -1.9507   -3.5173 C   0  0  2  0  0  0  0  0  0  0  0  0
    4.1382   -0.7426   -3.5131 C   0  0  0  0  0  0  0  0  0  0  0  0
    4.7746   -1.0287   -2.1570 C   0  0  1  0  0  0  0  0  0  0  0  0
    3.8531   -1.4668   -0.9496 C   0  0  1  0  0  0  0  0  0  0  0  0
    3.5129   -2.1765   -2.1409 C   0  0  2  0  0  0  0  0  0  0  0  0
    5.1911   -2.4796   -2.2298 C   0  0  2  0  0  0  0  0  0  0  0  0
    6.4925   -2.6254   -1.3378 C   0  0  0  0  0  0  0  0  0  0  0  0
    7.3610   -2.3413    0.6336 H   0  0  0  0  0  0  0  0  0  0  0  0
    6.4807   -0.9602    0.0653 H   0  0  0  0  0  0  0  0  0  0  0  0
    5.4300   -3.4123    1.4395 H   0  0  0  0  0  0  0  0  0  0  0  0
    4.9547   -1.7384    1.6129 H   0  0  0  0  0  0  0  0  0  0  0  0
    4.9483   -4.7292   -0.3325 H   0  0  0  0  0  0  0  0  0  0  0  0
    3.2748   -4.6233   -0.7637 H   0  0  0  0  0  0  0  0  0  0  0  0
    5.3854   -4.5654   -2.6954 H   0  0  0  0  0  0  0  0  0  0  0  0
    4.3344   -3.5404   -4.5885 H   0  0  0  0  0  0  0  0  0  0  0  0
    2.9004   -4.1313   -3.7855 H   0  0  0  0  0  0  0  0  0  0  0  0
    2.2032   -1.7674   -3.7620 H   0  0  0  0  0  0  0  0  0  0  0  0
    4.8504   -0.7550   -4.3374 H   0  0  0  0  0  0  0  0  0  0  0  0
    3.5862    0.1992   -3.5129 H   0  0  0  0  0  0  0  0  0  0  0  0
    5.5557   -0.3261   -1.8723 H   0  0  0  0  0  0  0  0  0  0  0  0
    3.0794   -0.7680   -0.6305 H   0  0  0  0  0  0  0  0  0  0  0  0
    2.6398   -2.7742   -1.8087 H   0  0  0  0  0  0  0  0  0  0  0  0
    7.3039   -2.1276   -1.8667 H   0  0  0  0  0  0  0  0  0  0  0  0
    6.8455   -3.6571   -1.2915 H   0  0  0  0  0  0  0  0  0  0  0  0
    3.2673   -2.8063    0.5354 H   0  0  0  0  0  0  0  0  0  0  0  0
  1 13  1  0
  1  2  1  0
  1 14  1  0
  1 15  1  0
  2  3  1  0
  2 16  1  0
  2 17  1  0
  3 10  1  0
  3  4  1  0
  3 31  1  1
  4  5  1  0
  4 18  1  0
  4 19  1  0
  5 12  1  0
  5  6  1  0
  5 20  1  6
  6  7  1  0
  6 21  1  0
  6 22  1  0
  7 11  1  0
  7  8  1  0
  7 23  1  1
  8  9  1  0
  8 24  1  0
  8 25  1  0
  9 12  1  0
  9 10  1  0
  9 26  1  1
 10 11  1  0
 10 27  1  1
 11 12  1  0
 11 28  1  1
 12 13  1  1
 13 29  1  0
 13 30  1  0
M  CHG  1   3   1
M  END
>  <i_m_ct_stereo_status>  (230) 
1

>  <s_m_source_file>  (230) 
/var/tmp/pbs.5076255.sched01/tmpyc7t0a4i/88yk12rjyo.sdf

>  <i_m_source_file_index>  (230) 
10

>  <i_lp_mmshare_version>  (230) 
48012

>  <i_f3d_flags>  (230) 
0

>  <s_epik_input>  (230) 
QzEyM1tDQEhdNFtDSDJdTihbQ0gyXVtDSDJdW0NIMl0zKVtDQEhdNVtDQEBIXTFbQ0gyXVtDQEBIXShbQ0gyXTQpW0NAQEhdMjU=

>  <s_epik_cmdline>  (230) 
J2VwaWtfcHl0aG9uJywgJy1waHQnLCAnMi4wJywgJy1waCcsICc3LjAnLCAnLXRuJywgJzgnLCAnLW1hJywgJzIwMCcsICctaW1hZScsICc8aW5maWxlLm1hZT4nLCAnLW9tYWUnLCAnPG91dGZpbGUubWFlPic=

>  <r_lp_tautomer_probability>  (230) 
1

>  <r_epik_Ionization_Penalty>  (230) 
0.000154006

>  <r_epik_Ionization_Penalty_Charging>  (230) 
0.000154006

>  <r_epik_Ionization_Penalty_Neutral>  (230) 
0

>  <r_epik_State_Penalty>  (230) 
-0

>  <r_epik_Charging_Adjusted_Penalty>  (230) 
0.000154006

>  <i_epik_Tot_Q>  (230) 
1

>  <i_epik_Tot_abs_Q>  (230) 
1

>  <s_lp_Force_Field>  (230) 
OPLS3e

>  <r_lp_Energy>  (230) 
267.332

>  <b_lp_Chiralities_Consistent>  (230) 
1

>  <s_lp_Variant>  (230) 
61:0-1

>  <s_i_glide_gridfile>  (230) 
pfpi4k_grid

>  <i_i_glide_lignum>  (230) 
10

>  <i_i_glide_rotatable_bonds>  (230) 
0

>  <r_i_docking_score>  (230) 
-4.37208

>  <r_i_glide_ligand_efficiency>  (230) 
-0.336314

>  <r_i_glide_ligand_efficiency_sa>  (230) 
-0.790787

>  <r_i_glide_ligand_efficiency_ln>  (230) 
-1.22641

>  <r_i_glide_gscore>  (230) 
-4.37208

>  <r_i_glide_lipo>  (230) 
-0.716187

>  <r_i_glide_hbond>  (230) 
0

>  <r_i_glide_metal>  (230) 
-0

>  <r_i_glide_rewards>  (230) 
-2.2072

>  <r_i_glide_evdw>  (230) 
-20.1978

>  <r_i_glide_ecoul>  (230) 
-2.88235

>  <r_i_glide_erotb>  (230) 
0

>  <r_i_glide_esite>  (230) 
-0.00645903

>  <r_i_glide_emodel>  (230) 
-29.4745

>  <r_i_glide_energy>  (230) 
-23.0801

>  <r_i_glide_einternal>  (230) 
0

>  <r_i_glide_intrahb_reward>  (230) 
-0

>  <i_i_glide_confnum>  (230) 
1

>  <i_i_glide_posenum>  (230) 
2

>  <r_i_glide_eff_state_penalty>  (230) 
0

>  <ligand_id>  (230) 
61

>  <original_smiles>  (230) 
C1CN2CC3CC4CC5C2C4C35C1

>  <smiles>  (230) 
[H]C1([H])C2([H])C([H])([H])C3([H])C45C([H])([H])C([H])([H])C([H])([H])[N+]([H])(C([H])([H])C14[H])C3([H])C25[H]

$$$$
61:0:1
     RDKit          3D

 31 35  0  0  1  0  0  0  0  0999 V2000
    5.5182   -1.4994    1.6453 C   0  0  0  0  0  0  0  0  0  0  0  0
    4.7362   -2.7805    1.9517 C   0  0  0  0  0  0  0  0  0  0  0  0
    4.2927   -3.4159    0.6971 N   0  0  2  0  0  0  0  0  0  0  0  0
    5.4617   -4.1923   -0.0183 C   0  0  0  0  0  0  0  0  0  0  0  0
    5.9871   -3.3636   -1.3396 C   0  0  1  0  0  0  0  0  0  0  0  0
    5.3995   -3.3351   -2.8445 C   0  0  0  0  0  0  0  0  0  0  0  0
    4.0297   -2.5317   -2.8416 C   0  0  2  0  0  0  0  0  0  0  0  0
    3.8948   -1.0640   -2.5080 C   0  0  0  0  0  0  0  0  0  0  0  0
    4.2059   -1.2151   -1.0236 C   0  0  1  0  0  0  0  0  0  0  0  0
    3.5339   -2.3954   -0.2069 C   0  0  1  0  0  0  0  0  0  0  0  0
    4.0383   -2.8597   -1.4580 C   0  0  2  0  0  0  0  0  0  0  0  0
    5.4634   -2.0514   -0.9778 C   0  0  2  0  0  0  0  0  0  0  0  0
    6.2673   -1.5724    0.3001 C   0  0  0  0  0  0  0  0  0  0  0  0
    6.2215   -1.2932    2.4528 H   0  0  0  0  0  0  0  0  0  0  0  0
    4.8327   -0.6511    1.6399 H   0  0  0  0  0  0  0  0  0  0  0  0
    5.3432   -3.4739    2.5367 H   0  0  0  0  0  0  0  0  0  0  0  0
    3.8674   -2.5365    2.5674 H   0  0  0  0  0  0  0  0  0  0  0  0
    6.2864   -4.3545    0.6783 H   0  0  0  0  0  0  0  0  0  0  0  0
    5.1255   -5.1902   -0.3064 H   0  0  0  0  0  0  0  0  0  0  0  0
    7.0771   -3.4068   -1.3906 H   0  0  0  0  0  0  0  0  0  0  0  0
    6.1089   -2.8405   -3.5091 H   0  0  0  0  0  0  0  0  0  0  0  0
    5.2684   -4.3469   -3.2301 H   0  0  0  0  0  0  0  0  0  0  0  0
    3.2108   -2.9726   -3.4121 H   0  0  0  0  0  0  0  0  0  0  0  0
    4.6133   -0.4318   -3.0291 H   0  0  0  0  0  0  0  0  0  0  0  0
    2.8837   -0.6887   -2.6738 H   0  0  0  0  0  0  0  0  0  0  0  0
    4.2462   -0.2712   -0.4752 H   0  0  0  0  0  0  0  0  0  0  0  0
    2.4447   -2.4094   -0.1550 H   0  0  0  0  0  0  0  0  0  0  0  0
    3.7161   -3.9211   -1.4516 H   0  0  0  0  0  0  0  0  0  0  0  0
    6.6249   -0.5619    0.1001 H   0  0  0  0  0  0  0  0  0  0  0  0
    7.1877   -2.1428    0.4431 H   0  0  0  0  0  0  0  0  0  0  0  0
    3.6255   -4.1225    0.9670 H   0  0  0  0  0  0  0  0  0  0  0  0
  1 13  1  0
  1  2  1  0
  1 14  1  0
  1 15  1  0
  2  3  1  0
  2 16  1  0
  2 17  1  0
  3 10  1  0
  3  4  1  0
  3 31  1  1
  4  5  1  0
  4 18  1  0
  4 19  1  0
  5 12  1  0
  5  6  1  0
  5 20  1  6
  6  7  1  0
  6 21  1  0
  6 22  1  0
  7 11  1  0
  7  8  1  0
  7 23  1  6
  8  9  1  0
  8 24  1  0
  8 25  1  0
  9 12  1  0
  9 10  1  0
  9 26  1  1
 10 11  1  0
 10 27  1  6
 11 12  1  0
 11 28  1  6
 12 13  1  1
 13 29  1  0
 13 30  1  0
M  CHG  1   3   1
M  END
>  <i_m_ct_stereo_status>  (231) 
1

>  <s_m_source_file>  (231) 
/var/tmp/pbs.5076255.sched01/tmpyc7t0a4i/88yk12rjyo.sdf

>  <i_m_source_file_index>  (231) 
10

>  <i_lp_mmshare_version>  (231) 
48012

>  <i_f3d_flags>  (231) 
0

>  <s_epik_input>  (231) 
QzEyM1tDQEhdNFtDSDJdTihbQ0gyXVtDSDJdW0NIMl0zKVtDQEhdNVtDQEBIXTFbQ0gyXVtDQEBIXShbQ0gyXTQpW0NAQEhdMjU=

>  <s_epik_cmdline>  (231) 
J2VwaWtfcHl0aG9uJywgJy1waHQnLCAnMi4wJywgJy1waCcsICc3LjAnLCAnLXRuJywgJzgnLCAnLW1hJywgJzIwMCcsICctaW1hZScsICc8aW5maWxlLm1hZT4nLCAnLW9tYWUnLCAnPG91dGZpbGUubWFlPic=

>  <r_lp_tautomer_probability>  (231) 
1

>  <r_epik_Ionization_Penalty>  (231) 
0.000154006

>  <r_epik_Ionization_Penalty_Charging>  (231) 
0.000154006

>  <r_epik_Ionization_Penalty_Neutral>  (231) 
0

>  <r_epik_State_Penalty>  (231) 
-0

>  <r_epik_Charging_Adjusted_Penalty>  (231) 
0.000154006

>  <i_epik_Tot_Q>  (231) 
1

>  <i_epik_Tot_abs_Q>  (231) 
1

>  <s_lp_Force_Field>  (231) 
OPLS3e

>  <r_lp_Energy>  (231) 
267.332

>  <b_lp_Chiralities_Consistent>  (231) 
1

>  <s_lp_Variant>  (231) 
61:0-1

>  <s_i_glide_gridfile>  (231) 
pfpi4k_grid

>  <i_i_glide_lignum>  (231) 
10

>  <i_i_glide_rotatable_bonds>  (231) 
0

>  <r_i_docking_score>  (231) 
-4.25883

>  <r_i_glide_ligand_efficiency>  (231) 
-0.327603

>  <r_i_glide_ligand_efficiency_sa>  (231) 
-0.770303

>  <r_i_glide_ligand_efficiency_ln>  (231) 
-1.19464

>  <r_i_glide_gscore>  (231) 
-4.25883

>  <r_i_glide_lipo>  (231) 
-0.725163

>  <r_i_glide_hbond>  (231) 
0

>  <r_i_glide_metal>  (231) 
-0

>  <r_i_glide_rewards>  (231) 
-2.2072

>  <r_i_glide_evdw>  (231) 
-19.5538

>  <r_i_glide_ecoul>  (231) 
-2.32525

>  <r_i_glide_erotb>  (231) 
0

>  <r_i_glide_esite>  (231) 
0

>  <r_i_glide_emodel>  (231) 
-28.1347

>  <r_i_glide_energy>  (231) 
-21.879

>  <r_i_glide_einternal>  (231) 
0

>  <r_i_glide_intrahb_reward>  (231) 
-0

>  <i_i_glide_confnum>  (231) 
1

>  <i_i_glide_posenum>  (231) 
9

>  <r_i_glide_eff_state_penalty>  (231) 
0

>  <ligand_id>  (231) 
61

>  <original_smiles>  (231) 
C1CN2CC3CC4CC5C2C4C35C1

>  <smiles>  (231) 
[H]C1([H])C2([H])C([H])([H])C3([H])C45C([H])([H])C([H])([H])C([H])([H])[N+]([H])(C([H])([H])C14[H])C3([H])C25[H]

$$$$
61:0:2
     RDKit          3D

 31 35  0  0  1  0  0  0  0  0999 V2000
    3.9225   -2.5262    1.8611 C   0  0  0  0  0  0  0  0  0  0  0  0
    3.3525   -3.8976    1.4854 C   0  0  0  0  0  0  0  0  0  0  0  0
    3.6139   -4.1855    0.0611 N   0  0  2  0  0  0  0  0  0  0  0  0
    5.1033   -4.6335   -0.1812 C   0  0  0  0  0  0  0  0  0  0  0  0
    5.9639   -3.4284   -0.8928 C   0  0  1  0  0  0  0  0  0  0  0  0
    6.0742   -3.0137   -2.4468 C   0  0  0  0  0  0  0  0  0  0  0  0
    4.7036   -2.3526   -2.9040 C   0  0  2  0  0  0  0  0  0  0  0  0
    4.1551   -1.0566   -2.3599 C   0  0  0  0  0  0  0  0  0  0  0  0
    3.8285   -1.6002   -0.9754 C   0  0  1  0  0  0  0  0  0  0  0  0
    3.1219   -3.0123   -0.8436 C   0  0  1  0  0  0  0  0  0  0  0  0
    4.1919   -3.0599   -1.7848 C   0  0  2  0  0  0  0  0  0  0  0  0
    5.0904   -2.3133   -0.5405 C   0  0  2  0  0  0  0  0  0  0  0  0
    5.1693   -2.1536    1.0321 C   0  0  0  0  0  0  0  0  0  0  0  0
    4.1654   -2.5035    2.9235 H   0  0  0  0  0  0  0  0  0  0  0  0
    3.1515   -1.7668    1.7278 H   0  0  0  0  0  0  0  0  0  0  0  0
    3.7806   -4.6798    2.1146 H   0  0  0  0  0  0  0  0  0  0  0  0
    2.2769   -3.9069    1.6704 H   0  0  0  0  0  0  0  0  0  0  0  0
    5.5704   -4.9223    0.7618 H   0  0  0  0  0  0  0  0  0  0  0  0
    5.1217   -5.5327   -0.7981 H   0  0  0  0  0  0  0  0  0  0  0  0
    6.9583   -3.3700   -0.4481 H   0  0  0  0  0  0  0  0  0  0  0  0
    6.8852   -2.2966   -2.5703 H   0  0  0  0  0  0  0  0  0  0  0  0
    6.3339   -3.8604   -3.0760 H   0  0  0  0  0  0  0  0  0  0  0  0
    4.3103   -2.6732   -3.8697 H   0  0  0  0  0  0  0  0  0  0  0  0
    4.8896   -0.2511   -2.3338 H   0  0  0  0  0  0  0  0  0  0  0  0
    3.2579   -0.7226   -2.8842 H   0  0  0  0  0  0  0  0  0  0  0  0
    3.4451   -0.8501   -0.2815 H   0  0  0  0  0  0  0  0  0  0  0  0
    2.1393   -3.1185   -1.3047 H   0  0  0  0  0  0  0  0  0  0  0  0
    4.1219   -4.1015   -2.1602 H   0  0  0  0  0  0  0  0  0  0  0  0
    5.3816   -1.1042    1.2433 H   0  0  0  0  0  0  0  0  0  0  0  0
    6.0351   -2.6686    1.4528 H   0  0  0  0  0  0  0  0  0  0  0  0
    3.0546   -4.9917   -0.1807 H   0  0  0  0  0  0  0  0  0  0  0  0
  1 13  1  0
  1  2  1  0
  1 14  1  0
  1 15  1  0
  2  3  1  0
  2 16  1  0
  2 17  1  0
  3 10  1  0
  3  4  1  0
  3 31  1  6
  4  5  1  0
  4 18  1  0
  4 19  1  0
  5 12  1  0
  5  6  1  0
  5 20  1  1
  6  7  1  0
  6 21  1  0
  6 22  1  0
  7 11  1  0
  7  8  1  0
  7 23  1  6
  8  9  1  0
  8 24  1  0
  8 25  1  0
  9 12  1  0
  9 10  1  0
  9 26  1  1
 10 11  1  0
 10 27  1  6
 11 12  1  0
 11 28  1  6
 12 13  1  1
 13 29  1  0
 13 30  1  0
M  CHG  1   3   1
M  END
>  <i_m_ct_stereo_status>  (232) 
1

>  <s_m_source_file>  (232) 
/var/tmp/pbs.5076255.sched01/tmpyc7t0a4i/88yk12rjyo.sdf

>  <i_m_source_file_index>  (232) 
10

>  <i_lp_mmshare_version>  (232) 
48012

>  <i_f3d_flags>  (232) 
0

>  <s_epik_input>  (232) 
QzEyM1tDQEhdNFtDSDJdTihbQ0gyXVtDSDJdW0NIMl0zKVtDQEhdNVtDQEBIXTFbQ0gyXVtDQEBIXShbQ0gyXTQpW0NAQEhdMjU=

>  <s_epik_cmdline>  (232) 
J2VwaWtfcHl0aG9uJywgJy1waHQnLCAnMi4wJywgJy1waCcsICc3LjAnLCAnLXRuJywgJzgnLCAnLW1hJywgJzIwMCcsICctaW1hZScsICc8aW5maWxlLm1hZT4nLCAnLW9tYWUnLCAnPG91dGZpbGUubWFlPic=

>  <r_lp_tautomer_probability>  (232) 
1

>  <r_epik_Ionization_Penalty>  (232) 
0.000154006

>  <r_epik_Ionization_Penalty_Charging>  (232) 
0.000154006

>  <r_epik_Ionization_Penalty_Neutral>  (232) 
0

>  <r_epik_State_Penalty>  (232) 
-0

>  <r_epik_Charging_Adjusted_Penalty>  (232) 
0.000154006

>  <i_epik_Tot_Q>  (232) 
1

>  <i_epik_Tot_abs_Q>  (232) 
1

>  <s_lp_Force_Field>  (232) 
OPLS3e

>  <r_lp_Energy>  (232) 
267.332

>  <b_lp_Chiralities_Consistent>  (232) 
1

>  <s_lp_Variant>  (232) 
61:0-1

>  <s_i_glide_gridfile>  (232) 
pfpi4k_grid

>  <i_i_glide_lignum>  (232) 
10

>  <i_i_glide_rotatable_bonds>  (232) 
0

>  <r_i_docking_score>  (232) 
-3.98841

>  <r_i_glide_ligand_efficiency>  (232) 
-0.306801

>  <r_i_glide_ligand_efficiency_sa>  (232) 
-0.721392

>  <r_i_glide_ligand_efficiency_ln>  (232) 
-1.11878

>  <r_i_glide_gscore>  (232) 
-3.98841

>  <r_i_glide_lipo>  (232) 
-0.489017

>  <r_i_glide_hbond>  (232) 
0

>  <r_i_glide_metal>  (232) 
-0

>  <r_i_glide_rewards>  (232) 
-2.2072

>  <r_i_glide_evdw>  (232) 
-17.7338

>  <r_i_glide_ecoul>  (232) 
-2.62858

>  <r_i_glide_erotb>  (232) 
0

>  <r_i_glide_esite>  (232) 
-0.0112233

>  <r_i_glide_emodel>  (232) 
-26.2034

>  <r_i_glide_energy>  (232) 
-20.3623

>  <r_i_glide_einternal>  (232) 
0

>  <r_i_glide_intrahb_reward>  (232) 
-0

>  <i_i_glide_confnum>  (232) 
2

>  <i_i_glide_posenum>  (232) 
14

>  <r_i_glide_eff_state_penalty>  (232) 
0

>  <ligand_id>  (232) 
61

>  <original_smiles>  (232) 
C1CN2CC3CC4CC5C2C4C35C1

>  <smiles>  (232) 
[H]C1([H])C2([H])C([H])([H])C3([H])C45C([H])([H])C([H])([H])C([H])([H])[N+]([H])(C([H])([H])C14[H])C3([H])C25[H]

$$$$
62:0:0
     RDKit          3D

 59 63  0  0  1  0  0  0  0  0999 V2000
    3.8741   -1.2979   -3.9682 C   0  0  0  0  0  0  0  0  0  0  0  0
    3.3498   -2.5957   -3.3259 C   0  0  2  0  0  0  0  0  0  0  0  0
    2.3440   -2.2544   -2.3933 O   0  0  0  0  0  0  0  0  0  0  0  0
    2.3734   -3.0698   -1.2683 C   0  0  1  0  0  0  0  0  0  0  0  0
    1.6474   -4.2549   -1.5138 O   0  0  0  0  0  0  0  0  0  0  0  0
    3.8714   -3.2971   -0.9927 C   0  0  2  0  0  0  0  0  0  0  0  0
    4.1968   -4.5864   -0.1396 C   0  0  2  0  0  0  0  0  0  0  0  0
    3.3435   -5.0280    1.0767 C   0  0  0  0  0  0  0  0  0  0  0  0
    3.4297   -4.2991    2.4340 C   0  0  1  0  0  0  0  0  0  0  0  0
    2.6698   -5.0820    3.3398 O   0  0  0  0  0  0  0  0  0  0  0  0
    4.8420   -4.0034    3.0353 C   0  0  0  0  0  0  0  0  0  0  0  0
    4.6294   -3.3727    4.4488 C   0  0  0  0  0  0  0  0  0  0  0  0
    5.6419   -5.3056    3.3416 C   0  0  0  0  0  0  0  0  0  0  0  0
    5.6220   -2.9630    2.1182 C   0  0  2  0  0  0  0  0  0  0  0  0
    4.9526   -1.5627    2.0608 C   0  0  0  0  0  0  0  0  0  0  0  0
    3.9914   -1.3827    0.8846 C   0  0  0  0  0  0  0  0  0  0  0  0
    4.5274   -1.9873   -0.4217 C   0  0  1  0  0  0  0  0  0  0  0  0
    6.0441   -2.2440   -0.3371 C   0  0  2  0  0  0  0  0  0  0  0  0
    6.5752   -2.3588   -1.7915 C   0  0  1  0  0  0  0  0  0  0  0  0
    7.9604   -2.6073   -1.9142 O   0  0  0  0  0  0  0  0  0  0  0  0
    5.8222   -3.2811   -2.7394 C   0  0  0  0  0  0  0  0  0  0  0  0
    4.3383   -3.4161   -2.4682 C   0  0  2  0  0  0  0  0  0  0  0  0
    6.2764   -3.3862    0.7279 C   0  0  1  0  0  0  0  0  0  0  0  0
    7.7945   -3.6419    0.8878 C   0  0  0  0  0  0  0  0  0  0  0  0
    5.6833   -4.6848    0.1769 C   0  0  0  0  0  0  0  0  0  0  0  0
    4.5850   -1.5070   -4.7639 H   0  0  0  0  0  0  0  0  0  0  0  0
    4.3775   -0.6619   -3.2456 H   0  0  0  0  0  0  0  0  0  0  0  0
    3.0537   -0.7219   -4.4022 H   0  0  0  0  0  0  0  0  0  0  0  0
    2.9083   -3.2257   -4.0998 H   0  0  0  0  0  0  0  0  0  0  0  0
    1.8810   -2.6636   -0.4004 H   0  0  0  0  0  0  0  0  0  0  0  0
    2.2170   -4.9156   -1.9422 H   0  0  0  0  0  0  0  0  0  0  0  0
    4.0423   -5.4323   -0.8009 H   0  0  0  0  0  0  0  0  0  0  0  0
    2.2945   -5.0805    0.7914 H   0  0  0  0  0  0  0  0  0  0  0  0
    3.6087   -6.0713    1.2545 H   0  0  0  0  0  0  0  0  0  0  0  0
    2.8735   -3.3759    2.3668 H   0  0  0  0  0  0  0  0  0  0  0  0
    3.0989   -5.9024    3.4589 H   0  0  0  0  0  0  0  0  0  0  0  0
    5.5460   -2.9357    4.8512 H   0  0  0  0  0  0  0  0  0  0  0  0
    4.2915   -4.1006    5.1863 H   0  0  0  0  0  0  0  0  0  0  0  0
    3.8577   -2.6069    4.4631 H   0  0  0  0  0  0  0  0  0  0  0  0
    6.7148   -5.1253    3.3912 H   0  0  0  0  0  0  0  0  0  0  0  0
    5.4625   -6.1179    2.6472 H   0  0  0  0  0  0  0  0  0  0  0  0
    5.3727   -5.7421    4.3043 H   0  0  0  0  0  0  0  0  0  0  0  0
    6.4724   -2.7022    2.7225 H   0  0  0  0  0  0  0  0  0  0  0  0
    4.4598   -1.2733    2.9799 H   0  0  0  0  0  0  0  0  0  0  0  0
    5.7479   -0.8183    1.9694 H   0  0  0  0  0  0  0  0  0  0  0  0
    2.9967   -1.7349    1.1273 H   0  0  0  0  0  0  0  0  0  0  0  0
    3.8709   -0.3031    0.7458 H   0  0  0  0  0  0  0  0  0  0  0  0
    4.3552   -1.1951   -1.1439 H   0  0  0  0  0  0  0  0  0  0  0  0
    6.5392   -1.3426    0.0281 H   0  0  0  0  0  0  0  0  0  0  0  0
    6.3885   -1.3866   -2.2265 H   0  0  0  0  0  0  0  0  0  0  0  0
    8.1960   -2.7318   -2.8342 H   0  0  0  0  0  0  0  0  0  0  0  0
    5.9818   -3.0257   -3.7815 H   0  0  0  0  0  0  0  0  0  0  0  0
    6.2678   -4.2483   -2.6835 H   0  0  0  0  0  0  0  0  0  0  0  0
    4.2172   -4.4243   -2.8319 H   0  0  0  0  0  0  0  0  0  0  0  0
    8.2556   -4.1299    0.0331 H   0  0  0  0  0  0  0  0  0  0  0  0
    7.9997   -4.2827    1.7436 H   0  0  0  0  0  0  0  0  0  0  0  0
    8.3296   -2.7077    1.0390 H   0  0  0  0  0  0  0  0  0  0  0  0
    5.9185   -5.5531    0.7804 H   0  0  0  0  0  0  0  0  0  0  0  0
    6.2128   -4.9255   -0.7202 H   0  0  0  0  0  0  0  0  0  0  0  0
  1  2  1  0
  1 26  1  0
  1 27  1  0
  1 28  1  0
  2 22  1  0
  2  3  1  0
  2 29  1  6
  3  4  1  0
  4  5  1  0
  6  4  1  6
  4 30  1  1
  5 31  1  0
  6 17  1  0
  6 22  1  0
  6  7  1  0
  7 25  1  0
  7  8  1  0
  7 32  1  6
  8  9  1  0
  8 33  1  0
  8 34  1  0
  9 10  1  0
  9 11  1  0
  9 35  1  6
 10 36  1  0
 11 12  1  0
 11 13  1  0
 11 14  1  0
 12 37  1  0
 12 38  1  0
 12 39  1  0
 13 40  1  0
 13 41  1  0
 13 42  1  0
 14 23  1  0
 14 15  1  0
 14 43  1  1
 15 16  1  0
 15 44  1  0
 15 45  1  0
 16 17  1  0
 16 46  1  0
 16 47  1  0
 17 18  1  0
 17 48  1  6
 18 19  1  0
 18 23  1  0
 18 49  1  1
 19 20  1  0
 19 21  1  0
 19 50  1  6
 20 51  1  0
 21 22  1  0
 21 52  1  0
 21 53  1  0
 22 54  1  6
 23 24  1  1
 23 25  1  0
 24 55  1  0
 24 56  1  0
 24 57  1  0
 25 58  1  0
 25 59  1  0
M  END
>  <i_m_ct_stereo_status>  (233) 
1

>  <s_m_source_file>  (233) 
/var/tmp/pbs.5076255.sched01/tmpyc7t0a4i/88yk12rjyo.sdf

>  <i_m_source_file_index>  (233) 
11

>  <i_lp_mmshare_version>  (233) 
48012

>  <i_f3d_flags>  (233) 
0

>  <s_epik_input>  (233) 
W09IXVtDQEBIXTFPW0NAQEhdKFtDSDNdKVtDQEhdMltDSDJdW0NASF0oW09IXSlbQ0BASF0oW0NAQEhdM1tDSDJdW0NIMl00KVtDQF0oW0NIM10pKFtDSDJdNSlbQ0BASF00QyhbQ0gzXSkoW0NIM10pW0NASF0oW09IXSlbQ0gyXVtDQEhdNVtDQF0xMjM=

>  <s_epik_cmdline>  (233) 
J2VwaWtfcHl0aG9uJywgJy1waHQnLCAnMi4wJywgJy1waCcsICc3LjAnLCAnLXRuJywgJzgnLCAnLW1hJywgJzIwMCcsICctaW1hZScsICc8aW5maWxlLm1hZT4nLCAnLW9tYWUnLCAnPG91dGZpbGUubWFlPic=

>  <r_lp_tautomer_probability>  (233) 
1

>  <r_epik_Ionization_Penalty>  (233) 
3.12829e-06

>  <r_epik_Ionization_Penalty_Charging>  (233) 
0

>  <r_epik_Ionization_Penalty_Neutral>  (233) 
3.12829e-06

>  <r_epik_State_Penalty>  (233) 
-0

>  <r_epik_Charging_Adjusted_Penalty>  (233) 
0

>  <i_epik_Tot_Q>  (233) 
0

>  <i_epik_Tot_abs_Q>  (233) 
0

>  <s_epik_Chemistry_Notes>  (233) 
This compound contains an acetal/aminal-like group ( X-CH(R)-Y where X, Y are N, S, or O) that may be acid/base labile, releasing an aldehyde.

>  <s_lp_Force_Field>  (233) 
OPLS3e

>  <r_lp_Energy>  (233) 
70.5965

>  <b_lp_Chiralities_Consistent>  (233) 
1

>  <s_lp_Variant>  (233) 
62:0-1

>  <s_i_glide_gridfile>  (233) 
pfpi4k_grid

>  <i_i_glide_lignum>  (233) 
11

>  <i_i_glide_rotatable_bonds>  (233) 
3

>  <r_i_docking_score>  (233) 
-4.80784

>  <r_i_glide_ligand_efficiency>  (233) 
-0.192314

>  <r_i_glide_ligand_efficiency_sa>  (233) 
-0.562328

>  <r_i_glide_ligand_efficiency_ln>  (233) 
-1.1396

>  <r_i_glide_gscore>  (233) 
-4.80784

>  <r_i_glide_lipo>  (233) 
-0.935977

>  <r_i_glide_hbond>  (233) 
-0.456

>  <r_i_glide_metal>  (233) 
-0

>  <r_i_glide_rewards>  (233) 
-1.01937

>  <r_i_glide_evdw>  (233) 
-14.2556

>  <r_i_glide_ecoul>  (233) 
-11.1194

>  <r_i_glide_erotb>  (233) 
0

>  <r_i_glide_esite>  (233) 
-0.0158064

>  <r_i_glide_emodel>  (233) 
-28.3328

>  <r_i_glide_energy>  (233) 
-25.375

>  <r_i_glide_einternal>  (233) 
0.875784

>  <r_i_glide_intrahb_reward>  (233) 
-0

>  <i_i_glide_confnum>  (233) 
2

>  <i_i_glide_posenum>  (233) 
4

>  <r_i_glide_eff_state_penalty>  (233) 
0

>  <ligand_id>  (233) 
62

>  <original_smiles>  (233) 
CC1OC(O)C23C4CC(O)C(C)(C)C5CCC2C(C(O)CC13)C5(C)C4

>  <smiles>  (233) 
[H]OC1([H])OC([H])(C([H])([H])[H])C2([H])C([H])([H])C([H])(O[H])C3([H])C4([H])C([H])([H])C([H])([H])C5([H])C(C([H])([H])[H])(C([H])([H])[H])C([H])(O[H])C([H])([H])C([H])(C([H])([H])C35C([H])([H])[H])C124

$$$$
62:0:1
     RDKit          3D

 59 63  0  0  1  0  0  0  0  0999 V2000
    3.8376   -1.2882   -3.9446 C   0  0  0  0  0  0  0  0  0  0  0  0
    3.3269   -2.5911   -3.2947 C   0  0  2  0  0  0  0  0  0  0  0  0
    2.3231   -2.2581   -2.3592 O   0  0  0  0  0  0  0  0  0  0  0  0
    2.3589   -3.0899   -1.2531 C   0  0  1  0  0  0  0  0  0  0  0  0
    1.5310   -4.1969   -1.5094 O   0  0  0  0  0  0  0  0  0  0  0  0
    3.8586   -3.3228   -0.9911 C   0  0  2  0  0  0  0  0  0  0  0  0
    4.1913   -4.6126   -0.1465 C   0  0  2  0  0  0  0  0  0  0  0  0
    3.3529   -5.0590    1.0761 C   0  0  0  0  0  0  0  0  0  0  0  0
    3.4663   -4.3361    2.4378 C   0  0  1  0  0  0  0  0  0  0  0  0
    2.7362   -5.1392    3.3448 O   0  0  0  0  0  0  0  0  0  0  0  0
    4.8857   -4.0429    3.0239 C   0  0  0  0  0  0  0  0  0  0  0  0
    4.6880   -3.4270    4.4442 C   0  0  0  0  0  0  0  0  0  0  0  0
    5.6929   -5.3443    3.3108 C   0  0  0  0  0  0  0  0  0  0  0  0
    5.6513   -2.9923    2.1103 C   0  0  2  0  0  0  0  0  0  0  0  0
    4.9784   -1.5949    2.0692 C   0  0  0  0  0  0  0  0  0  0  0  0
    4.0025   -1.4048    0.9048 C   0  0  0  0  0  0  0  0  0  0  0  0
    4.5167   -2.0161   -0.4150 C   0  0  1  0  0  0  0  0  0  0  0  0
    6.0370   -2.2559   -0.3421 C   0  0  2  0  0  0  0  0  0  0  0  0
    6.5547   -2.3546   -1.8044 C   0  0  1  0  0  0  0  0  0  0  0  0
    7.9455   -2.5807   -1.9214 O   0  0  0  0  0  0  0  0  0  0  0  0
    5.8080   -3.2892   -2.7406 C   0  0  0  0  0  0  0  0  0  0  0  0
    4.3199   -3.4200   -2.4636 C   0  0  2  0  0  0  0  0  0  0  0  0
    6.2841   -3.4051    0.7102 C   0  0  1  0  0  0  0  0  0  0  0  0
    7.8065   -3.6534    0.8689 C   0  0  0  0  0  0  0  0  0  0  0  0
    5.6802   -4.6984    0.1634 C   0  0  0  0  0  0  0  0  0  0  0  0
    4.5435   -1.4833   -4.7492 H   0  0  0  0  0  0  0  0  0  0  0  0
    4.3373   -0.6447   -3.2228 H   0  0  0  0  0  0  0  0  0  0  0  0
    3.0088   -0.7147   -4.3673 H   0  0  0  0  0  0  0  0  0  0  0  0
    2.8917   -3.2218   -4.0721 H   0  0  0  0  0  0  0  0  0  0  0  0
    1.8959   -2.6678   -0.3601 H   0  0  0  0  0  0  0  0  0  0  0  0
    1.6543   -4.4747   -2.4099 H   0  0  0  0  0  0  0  0  0  0  0  0
    4.0381   -5.4497   -0.8122 H   0  0  0  0  0  0  0  0  0  0  0  0
    2.3045   -5.1089    0.7848 H   0  0  0  0  0  0  0  0  0  0  0  0
    3.6327   -6.1008    1.2500 H   0  0  0  0  0  0  0  0  0  0  0  0
    2.8995   -3.4131    2.3895 H   0  0  0  0  0  0  0  0  0  0  0  0
    1.8803   -5.2841    2.9836 H   0  0  0  0  0  0  0  0  0  0  0  0
    5.6098   -2.9989    4.8383 H   0  0  0  0  0  0  0  0  0  0  0  0
    4.3573   -4.1676    5.1740 H   0  0  0  0  0  0  0  0  0  0  0  0
    3.9135   -2.6633    4.4762 H   0  0  0  0  0  0  0  0  0  0  0  0
    6.7636   -5.1636    3.3517 H   0  0  0  0  0  0  0  0  0  0  0  0
    5.5053   -6.1555    2.6172 H   0  0  0  0  0  0  0  0  0  0  0  0
    5.4319   -5.7897    4.2693 H   0  0  0  0  0  0  0  0  0  0  0  0
    6.5146   -2.7295    2.6979 H   0  0  0  0  0  0  0  0  0  0  0  0
    4.4798   -1.3170    2.9949 H   0  0  0  0  0  0  0  0  0  0  0  0
    5.7663   -0.8450    1.9809 H   0  0  0  0  0  0  0  0  0  0  0  0
    3.0159   -1.7678    1.1661 H   0  0  0  0  0  0  0  0  0  0  0  0
    3.8687   -0.3318    0.7717 H   0  0  0  0  0  0  0  0  0  0  0  0
    4.3428   -1.2095   -1.1247 H   0  0  0  0  0  0  0  0  0  0  0  0
    6.5351   -1.3619    0.0267 H   0  0  0  0  0  0  0  0  0  0  0  0
    6.3530   -1.3790   -2.2238 H   0  0  0  0  0  0  0  0  0  0  0  0
    8.1829   -2.7256   -2.8467 H   0  0  0  0  0  0  0  0  0  0  0  0
    5.9618   -3.0145   -3.7758 H   0  0  0  0  0  0  0  0  0  0  0  0
    6.2502   -4.2550   -2.6893 H   0  0  0  0  0  0  0  0  0  0  0  0
    4.2120   -4.4286   -2.8377 H   0  0  0  0  0  0  0  0  0  0  0  0
    8.2469   -4.1359    0.0017 H   0  0  0  0  0  0  0  0  0  0  0  0
    8.0354   -4.3057    1.7152 H   0  0  0  0  0  0  0  0  0  0  0  0
    8.3469   -2.7146    0.9924 H   0  0  0  0  0  0  0  0  0  0  0  0
    5.9352   -5.5676    0.7487 H   0  0  0  0  0  0  0  0  0  0  0  0
    6.1906   -4.9310   -0.7379 H   0  0  0  0  0  0  0  0  0  0  0  0
  1  2  1  0
  1 26  1  0
  1 27  1  0
  1 28  1  0
  2 22  1  0
  2  3  1  0
  2 29  1  6
  3  4  1  0
  4  5  1  0
  6  4  1  6
  4 30  1  1
  5 31  1  0
  6 17  1  0
  6 22  1  0
  6  7  1  0
  7 25  1  0
  7  8  1  0
  7 32  1  6
  8  9  1  0
  8 33  1  0
  8 34  1  0
  9 10  1  0
  9 11  1  0
  9 35  1  6
 10 36  1  0
 11 12  1  0
 11 13  1  0
 11 14  1  0
 12 37  1  0
 12 38  1  0
 12 39  1  0
 13 40  1  0
 13 41  1  0
 13 42  1  0
 14 23  1  0
 14 15  1  0
 14 43  1  1
 15 16  1  0
 15 44  1  0
 15 45  1  0
 16 17  1  0
 16 46  1  0
 16 47  1  0
 17 18  1  0
 17 48  1  6
 18 19  1  0
 18 23  1  0
 18 49  1  1
 19 20  1  0
 19 21  1  0
 19 50  1  6
 20 51  1  0
 21 22  1  0
 21 52  1  0
 21 53  1  0
 22 54  1  6
 23 24  1  1
 23 25  1  0
 24 55  1  0
 24 56  1  0
 24 57  1  0
 25 58  1  0
 25 59  1  0
M  END
>  <i_m_ct_stereo_status>  (234) 
1

>  <s_m_source_file>  (234) 
/var/tmp/pbs.5076255.sched01/tmpyc7t0a4i/88yk12rjyo.sdf

>  <i_m_source_file_index>  (234) 
11

>  <i_lp_mmshare_version>  (234) 
48012

>  <i_f3d_flags>  (234) 
0

>  <s_epik_input>  (234) 
W09IXVtDQEBIXTFPW0NAQEhdKFtDSDNdKVtDQEhdMltDSDJdW0NASF0oW09IXSlbQ0BASF0oW0NAQEhdM1tDSDJdW0NIMl00KVtDQF0oW0NIM10pKFtDSDJdNSlbQ0BASF00QyhbQ0gzXSkoW0NIM10pW0NASF0oW09IXSlbQ0gyXVtDQEhdNVtDQF0xMjM=

>  <s_epik_cmdline>  (234) 
J2VwaWtfcHl0aG9uJywgJy1waHQnLCAnMi4wJywgJy1waCcsICc3LjAnLCAnLXRuJywgJzgnLCAnLW1hJywgJzIwMCcsICctaW1hZScsICc8aW5maWxlLm1hZT4nLCAnLW9tYWUnLCAnPG91dGZpbGUubWFlPic=

>  <r_lp_tautomer_probability>  (234) 
1

>  <r_epik_Ionization_Penalty>  (234) 
3.12829e-06

>  <r_epik_Ionization_Penalty_Charging>  (234) 
0

>  <r_epik_Ionization_Penalty_Neutral>  (234) 
3.12829e-06

>  <r_epik_State_Penalty>  (234) 
-0

>  <r_epik_Charging_Adjusted_Penalty>  (234) 
0

>  <i_epik_Tot_Q>  (234) 
0

>  <i_epik_Tot_abs_Q>  (234) 
0

>  <s_epik_Chemistry_Notes>  (234) 
This compound contains an acetal/aminal-like group ( X-CH(R)-Y where X, Y are N, S, or O) that may be acid/base labile, releasing an aldehyde.

>  <s_lp_Force_Field>  (234) 
OPLS3e

>  <r_lp_Energy>  (234) 
70.5965

>  <b_lp_Chiralities_Consistent>  (234) 
1

>  <s_lp_Variant>  (234) 
62:0-1

>  <s_i_glide_gridfile>  (234) 
pfpi4k_grid

>  <i_i_glide_lignum>  (234) 
11

>  <i_i_glide_rotatable_bonds>  (234) 
3

>  <r_i_docking_score>  (234) 
-4.5057

>  <r_i_glide_ligand_efficiency>  (234) 
-0.180228

>  <r_i_glide_ligand_efficiency_sa>  (234) 
-0.52699

>  <r_i_glide_ligand_efficiency_ln>  (234) 
-1.06799

>  <r_i_glide_gscore>  (234) 
-4.5057

>  <r_i_glide_lipo>  (234) 
-0.951742

>  <r_i_glide_hbond>  (234) 
-0.48

>  <r_i_glide_metal>  (234) 
-0

>  <r_i_glide_rewards>  (234) 
-1.01937

>  <r_i_glide_evdw>  (234) 
-15.2196

>  <r_i_glide_ecoul>  (234) 
-8.52411

>  <r_i_glide_erotb>  (234) 
0

>  <r_i_glide_esite>  (234) 
-0.0149884

>  <r_i_glide_emodel>  (234) 
-25.389

>  <r_i_glide_energy>  (234) 
-23.7437

>  <r_i_glide_einternal>  (234) 
2.5838

>  <r_i_glide_intrahb_reward>  (234) 
-0

>  <i_i_glide_confnum>  (234) 
1

>  <i_i_glide_posenum>  (234) 
32

>  <r_i_glide_eff_state_penalty>  (234) 
0

>  <ligand_id>  (234) 
62

>  <original_smiles>  (234) 
CC1OC(O)C23C4CC(O)C(C)(C)C5CCC2C(C(O)CC13)C5(C)C4

>  <smiles>  (234) 
[H]OC1([H])OC([H])(C([H])([H])[H])C2([H])C([H])([H])C([H])(O[H])C3([H])C4([H])C([H])([H])C([H])([H])C5([H])C(C([H])([H])[H])(C([H])([H])[H])C([H])(O[H])C([H])([H])C([H])(C([H])([H])C35C([H])([H])[H])C124

$$$$
62:0:2
     RDKit          3D

 59 63  0  0  1  0  0  0  0  0999 V2000
    3.7944   -1.2256   -3.8555 C   0  0  0  0  0  0  0  0  0  0  0  0
    3.3063   -2.5499   -3.2491 C   0  0  2  0  0  0  0  0  0  0  0  0
    2.2799   -2.2568   -2.3316 O   0  0  0  0  0  0  0  0  0  0  0  0
    2.2945   -3.1006   -1.2144 C   0  0  1  0  0  0  0  0  0  0  0  0
    1.5369   -4.2457   -1.4739 O   0  0  0  0  0  0  0  0  0  0  0  0
    3.7921   -3.3278   -0.9364 C   0  0  2  0  0  0  0  0  0  0  0  0
    4.1328   -4.6376   -0.1177 C   0  0  2  0  0  0  0  0  0  0  0  0
    3.2650   -5.1378    1.0696 C   0  0  0  0  0  0  0  0  0  0  0  0
    3.3090   -4.4593    2.4501 C   0  0  1  0  0  0  0  0  0  0  0  0
    2.5645   -5.2932    3.3161 O   0  0  0  0  0  0  0  0  0  0  0  0
    4.7010   -4.1528    3.0766 C   0  0  0  0  0  0  0  0  0  0  0  0
    4.4663   -3.5720    4.5078 C   0  0  0  0  0  0  0  0  0  0  0  0
    5.5432   -5.4371    3.3509 C   0  0  0  0  0  0  0  0  0  0  0  0
    5.4554   -3.0634    2.2052 C   0  0  2  0  0  0  0  0  0  0  0  0
    4.7668   -1.6707    2.1886 C   0  0  0  0  0  0  0  0  0  0  0  0
    3.8253   -1.4637    1.0159 C   0  0  0  0  0  0  0  0  0  0  0  0
    4.3935   -2.0192   -0.3041 C   0  0  1  0  0  0  0  0  0  0  0  0
    5.9121   -2.2476   -0.2029 C   0  0  2  0  0  0  0  0  0  0  0  0
    6.4502   -2.2849   -1.6360 C   0  0  1  0  0  0  0  0  0  0  0  0
    7.8354   -2.4338   -1.6853 O   0  0  0  0  0  0  0  0  0  0  0  0
    5.7857   -3.2255   -2.6292 C   0  0  0  0  0  0  0  0  0  0  0  0
    4.2970   -3.3742   -2.4008 C   0  0  2  0  0  0  0  0  0  0  0  0
    6.1497   -3.4320    0.8094 C   0  0  1  0  0  0  0  0  0  0  0  0
    7.6628   -3.6617    0.9931 C   0  0  0  0  0  0  0  0  0  0  0  0
    5.6146   -4.7158    0.1943 C   0  0  0  0  0  0  0  0  0  0  0  0
    4.5077   -1.3883   -4.6576 H   0  0  0  0  0  0  0  0  0  0  0  0
    4.2561   -0.5987   -3.1032 H   0  0  0  0  0  0  0  0  0  0  0  0
    2.9503   -0.6668   -4.2685 H   0  0  0  0  0  0  0  0  0  0  0  0
    2.8885   -3.1823   -4.0426 H   0  0  0  0  0  0  0  0  0  0  0  0
    1.8137   -2.6560   -0.3602 H   0  0  0  0  0  0  0  0  0  0  0  0
    2.0333   -4.8371   -2.0305 H   0  0  0  0  0  0  0  0  0  0  0  0
    4.0045   -5.4577   -0.8105 H   0  0  0  0  0  0  0  0  0  0  0  0
    2.2256   -5.1987    0.7587 H   0  0  0  0  0  0  0  0  0  0  0  0
    3.5537   -6.1774    1.2154 H   0  0  0  0  0  0  0  0  0  0  0  0
    2.7273   -3.5465    2.4164 H   0  0  0  0  0  0  0  0  0  0  0  0
    3.0287   -6.1004    3.4176 H   0  0  0  0  0  0  0  0  0  0  0  0
    5.3715   -3.1300    4.9308 H   0  0  0  0  0  0  0  0  0  0  0  0
    4.1393   -4.3333    5.2121 H   0  0  0  0  0  0  0  0  0  0  0  0
    3.6773   -2.8266    4.5376 H   0  0  0  0  0  0  0  0  0  0  0  0
    6.6080   -5.2235    3.4322 H   0  0  0  0  0  0  0  0  0  0  0  0
    5.4009   -6.2325    2.6266 H   0  0  0  0  0  0  0  0  0  0  0  0
    5.2683   -5.9119    4.2943 H   0  0  0  0  0  0  0  0  0  0  0  0
    6.2719   -2.8047    2.8576 H   0  0  0  0  0  0  0  0  0  0  0  0
    4.2447   -1.4346    3.1017 H   0  0  0  0  0  0  0  0  0  0  0  0
    5.5549   -0.9112    2.1435 H   0  0  0  0  0  0  0  0  0  0  0  0
    2.8584   -1.8662    1.2491 H   0  0  0  0  0  0  0  0  0  0  0  0
    3.6634   -0.3839    0.8999 H   0  0  0  0  0  0  0  0  0  0  0  0
    4.2140   -1.2058   -1.0036 H   0  0  0  0  0  0  0  0  0  0  0  0
    6.3858   -1.3471    0.2083 H   0  0  0  0  0  0  0  0  0  0  0  0
    6.2067   -1.3092   -2.0250 H   0  0  0  0  0  0  0  0  0  0  0  0
    8.0443   -3.3543   -1.7405 H   0  0  0  0  0  0  0  0  0  0  0  0
    5.9476   -2.8760   -3.6379 H   0  0  0  0  0  0  0  0  0  0  0  0
    6.2177   -4.2272   -2.6438 H   0  0  0  0  0  0  0  0  0  0  0  0
    4.1841   -4.3562   -2.8223 H   0  0  0  0  0  0  0  0  0  0  0  0
    8.1545   -4.1059    0.1279 H   0  0  0  0  0  0  0  0  0  0  0  0
    7.8786   -4.3245    1.8286 H   0  0  0  0  0  0  0  0  0  0  0  0
    8.1613   -2.7126    1.1779 H   0  0  0  0  0  0  0  0  0  0  0  0
    5.8662   -5.5914    0.7684 H   0  0  0  0  0  0  0  0  0  0  0  0
    6.1557   -4.9085   -0.7138 H   0  0  0  0  0  0  0  0  0  0  0  0
  1  2  1  0
  1 26  1  0
  1 27  1  0
  1 28  1  0
  2 22  1  0
  2  3  1  0
  2 29  1  6
  3  4  1  0
  4  5  1  0
  6  4  1  6
  4 30  1  1
  5 31  1  0
  6 17  1  0
  6 22  1  0
  6  7  1  0
  7 25  1  0
  7  8  1  0
  7 32  1  6
  8  9  1  0
  8 33  1  0
  8 34  1  0
  9 10  1  0
  9 11  1  0
  9 35  1  6
 10 36  1  0
 11 12  1  0
 11 13  1  0
 11 14  1  0
 12 37  1  0
 12 38  1  0
 12 39  1  0
 13 40  1  0
 13 41  1  0
 13 42  1  0
 14 23  1  0
 14 15  1  0
 14 43  1  1
 15 16  1  0
 15 44  1  0
 15 45  1  0
 16 17  1  0
 16 46  1  0
 16 47  1  0
 17 18  1  0
 17 48  1  6
 18 19  1  0
 18 23  1  0
 18 49  1  1
 19 20  1  0
 19 21  1  0
 19 50  1  6
 20 51  1  0
 21 22  1  0
 21 52  1  0
 21 53  1  0
 22 54  1  6
 23 24  1  1
 23 25  1  0
 24 55  1  0
 24 56  1  0
 24 57  1  0
 25 58  1  0
 25 59  1  0
M  END
>  <i_m_ct_stereo_status>  (235) 
1

>  <s_m_source_file>  (235) 
/var/tmp/pbs.5076255.sched01/tmpyc7t0a4i/88yk12rjyo.sdf

>  <i_m_source_file_index>  (235) 
11

>  <i_lp_mmshare_version>  (235) 
48012

>  <i_f3d_flags>  (235) 
0

>  <s_epik_input>  (235) 
W09IXVtDQEBIXTFPW0NAQEhdKFtDSDNdKVtDQEhdMltDSDJdW0NASF0oW09IXSlbQ0BASF0oW0NAQEhdM1tDSDJdW0NIMl00KVtDQF0oW0NIM10pKFtDSDJdNSlbQ0BASF00QyhbQ0gzXSkoW0NIM10pW0NASF0oW09IXSlbQ0gyXVtDQEhdNVtDQF0xMjM=

>  <s_epik_cmdline>  (235) 
J2VwaWtfcHl0aG9uJywgJy1waHQnLCAnMi4wJywgJy1waCcsICc3LjAnLCAnLXRuJywgJzgnLCAnLW1hJywgJzIwMCcsICctaW1hZScsICc8aW5maWxlLm1hZT4nLCAnLW9tYWUnLCAnPG91dGZpbGUubWFlPic=

>  <r_lp_tautomer_probability>  (235) 
1

>  <r_epik_Ionization_Penalty>  (235) 
3.12829e-06

>  <r_epik_Ionization_Penalty_Charging>  (235) 
0

>  <r_epik_Ionization_Penalty_Neutral>  (235) 
3.12829e-06

>  <r_epik_State_Penalty>  (235) 
-0

>  <r_epik_Charging_Adjusted_Penalty>  (235) 
0

>  <i_epik_Tot_Q>  (235) 
0

>  <i_epik_Tot_abs_Q>  (235) 
0

>  <s_epik_Chemistry_Notes>  (235) 
This compound contains an acetal/aminal-like group ( X-CH(R)-Y where X, Y are N, S, or O) that may be acid/base labile, releasing an aldehyde.

>  <s_lp_Force_Field>  (235) 
OPLS3e

>  <r_lp_Energy>  (235) 
70.5965

>  <b_lp_Chiralities_Consistent>  (235) 
1

>  <s_lp_Variant>  (235) 
62:0-1

>  <s_i_glide_gridfile>  (235) 
pfpi4k_grid

>  <i_i_glide_lignum>  (235) 
11

>  <i_i_glide_rotatable_bonds>  (235) 
3

>  <r_i_docking_score>  (235) 
-3.96571

>  <r_i_glide_ligand_efficiency>  (235) 
-0.158629

>  <r_i_glide_ligand_efficiency_sa>  (235) 
-0.463833

>  <r_i_glide_ligand_efficiency_ln>  (235) 
-0.939993

>  <r_i_glide_gscore>  (235) 
-3.96571

>  <r_i_glide_lipo>  (235) 
-0.94354

>  <r_i_glide_hbond>  (235) 
-0.16

>  <r_i_glide_metal>  (235) 
-0

>  <r_i_glide_rewards>  (235) 
-1.01937

>  <r_i_glide_evdw>  (235) 
-15.9142

>  <r_i_glide_ecoul>  (235) 
-6.85783

>  <r_i_glide_erotb>  (235) 
0

>  <r_i_glide_esite>  (235) 
-0.0184185

>  <r_i_glide_emodel>  (235) 
-25.0913

>  <r_i_glide_energy>  (235) 
-22.7721

>  <r_i_glide_einternal>  (235) 
0.433784

>  <r_i_glide_intrahb_reward>  (235) 
-0

>  <i_i_glide_confnum>  (235) 
2

>  <i_i_glide_posenum>  (235) 
22

>  <r_i_glide_eff_state_penalty>  (235) 
0

>  <ligand_id>  (235) 
62

>  <original_smiles>  (235) 
CC1OC(O)C23C4CC(O)C(C)(C)C5CCC2C(C(O)CC13)C5(C)C4

>  <smiles>  (235) 
[H]OC1([H])OC([H])(C([H])([H])[H])C2([H])C([H])([H])C([H])(O[H])C3([H])C4([H])C([H])([H])C([H])([H])C5([H])C(C([H])([H])[H])(C([H])([H])[H])C([H])(O[H])C([H])([H])C([H])(C([H])([H])C35C([H])([H])[H])C124

$$$$
64:0:0
     RDKit          3D

 46 48  0  0  1  0  0  0  0  0999 V2000
    8.6338   -1.5293    0.1058 C   0  0  0  0  0  0  0  0  0  0  0  0
    7.3412   -1.1135    0.7927 C   0  0  0  0  0  0  0  0  0  0  0  0
    6.5442   -2.3122    1.2186 C   0  0  0  0  0  0  0  0  0  0  0  0
    5.2494   -1.8578    1.7982 N   0  0  2  0  0  0  0  0  0  0  0  0
    4.9805   -2.4146    3.1391 C   0  0  0  0  0  0  0  0  0  0  0  0
    3.6475   -1.8659    3.6745 C   0  0  0  0  0  0  0  0  0  0  0  0
    2.6097   -2.0698    2.7286 O   0  0  0  0  0  0  0  0  0  0  0  0
    2.8717   -1.4715    1.4682 C   0  0  0  0  0  0  0  0  0  0  0  0
    4.1451   -2.0904    0.8417 C   0  0  2  0  0  0  0  0  0  0  0  0
    3.9477   -3.6186    0.6248 C   0  0  0  0  0  0  0  0  0  0  0  0
    2.8624   -3.9154   -0.3859 C   0  0  0  0  0  0  0  0  0  0  0  0
    2.9378   -3.0476   -1.6259 C   0  0  0  0  0  0  0  0  0  0  0  0
    2.2051   -3.4443   -2.7478 C   0  0  0  0  0  0  0  0  0  0  0  0
    2.2348   -2.7088   -3.9109 C   0  0  0  0  0  0  0  0  0  0  0  0
    2.9880   -1.5383   -3.9987 C   0  0  0  0  0  0  0  0  0  0  0  0
    3.7054   -1.0881   -2.8724 C   0  0  0  0  0  0  0  0  0  0  0  0
    4.4327    0.0686   -2.9060 O   0  0  0  0  0  0  0  0  0  0  0  0
    4.2194    0.9499   -3.9969 C   0  0  0  0  0  0  0  0  0  0  0  0
    3.6707   -1.8416   -1.6805 C   0  0  0  0  0  0  0  0  0  0  0  0
    4.4676   -1.3642   -0.4987 C   0  0  0  0  0  0  0  0  0  0  0  0
    9.1605   -0.6219   -0.1365 H   0  0  0  0  0  0  0  0  0  0  0  0
    8.4764   -2.1247   -0.7954 H   0  0  0  0  0  0  0  0  0  0  0  0
    9.2549   -2.0928    0.7961 H   0  0  0  0  0  0  0  0  0  0  0  0
    7.5571   -0.6581    1.7740 H   0  0  0  0  0  0  0  0  0  0  0  0
    6.8051   -0.3910    0.1414 H   0  0  0  0  0  0  0  0  0  0  0  0
    6.4561   -2.9657    0.3565 H   0  0  0  0  0  0  0  0  0  0  0  0
    7.0834   -2.8819    1.9673 H   0  0  0  0  0  0  0  0  0  0  0  0
    4.9681   -3.5058    3.1054 H   0  0  0  0  0  0  0  0  0  0  0  0
    5.7844   -2.1555    3.8311 H   0  0  0  0  0  0  0  0  0  0  0  0
    3.3822   -2.3611    4.6073 H   0  0  0  0  0  0  0  0  0  0  0  0
    3.7344   -0.8016    3.8835 H   0  0  0  0  0  0  0  0  0  0  0  0
    2.0071   -1.6671    0.8469 H   0  0  0  0  0  0  0  0  0  0  0  0
    2.9299   -0.3843    1.5479 H   0  0  0  0  0  0  0  0  0  0  0  0
    4.8477   -4.1091    0.2574 H   0  0  0  0  0  0  0  0  0  0  0  0
    3.6752   -4.1395    1.5412 H   0  0  0  0  0  0  0  0  0  0  0  0
    2.9166   -4.9727   -0.6502 H   0  0  0  0  0  0  0  0  0  0  0  0
    1.8883   -3.7612    0.0730 H   0  0  0  0  0  0  0  0  0  0  0  0
    1.6073   -4.3293   -2.6717 H   0  0  0  0  0  0  0  0  0  0  0  0
    1.6313   -3.0482   -4.7510 H   0  0  0  0  0  0  0  0  0  0  0  0
    2.9672   -0.9923   -4.9227 H   0  0  0  0  0  0  0  0  0  0  0  0
    4.8617    1.7697   -3.8528 H   0  0  0  0  0  0  0  0  0  0  0  0
    3.1981    1.3315   -4.0820 H   0  0  0  0  0  0  0  0  0  0  0  0
    4.5063    0.5017   -4.9437 H   0  0  0  0  0  0  0  0  0  0  0  0
    4.4190   -0.2711   -0.3993 H   0  0  0  0  0  0  0  0  0  0  0  0
    5.4525   -1.6014   -0.8955 H   0  0  0  0  0  0  0  0  0  0  0  0
    5.3028   -0.8608    1.9388 H   0  0  0  0  0  0  0  0  0  0  0  0
  1  2  1  0
  1 21  1  0
  1 22  1  0
  1 23  1  0
  2  3  1  0
  2 24  1  0
  2 25  1  0
  3  4  1  0
  3 26  1  0
  3 27  1  0
  4  9  1  0
  4  5  1  0
  4 46  1  1
  5  6  1  0
  5 28  1  0
  5 29  1  0
  6  7  1  0
  6 30  1  0
  6 31  1  0
  7  8  1  0
  9  8  1  1
  8 32  1  0
  8 33  1  0
  9 20  1  0
  9 10  1  0
 10 11  1  0
 10 34  1  0
 10 35  1  0
 11 12  1  0
 11 36  1  0
 11 37  1  0
 12 19  2  0
 12 13  1  0
 13 14  2  0
 13 38  1  0
 14 15  1  0
 14 39  1  0
 15 16  2  0
 15 40  1  0
 16 17  1  0
 16 19  1  0
 17 18  1  0
 18 41  1  0
 18 42  1  0
 18 43  1  0
 19 20  1  0
 20 44  1  0
 20 45  1  0
M  CHG  1   4   1
M  END
>  <i_m_ct_stereo_status>  (236) 
1

>  <s_m_source_file>  (236) 
/var/tmp/pbs.5076255.sched01/tmpyc7t0a4i/88yk12rjyo.sdf

>  <i_m_source_file_index>  (236) 
13

>  <i_lp_mmshare_version>  (236) 
48012

>  <i_f3d_flags>  (236) 
0

>  <s_epik_input>  (236) 
W0NIMl0xT1tDSDJdW0NIMl1OKFtDSDJdW0NIMl1bQ0gzXSlbQ0BAXTEyW0NIMl1bQ0gyXWMzYyhbQ0gyXTIpYyhPW0NIM10pW2NIXVtjSF1bY0hdMw==

>  <s_epik_cmdline>  (236) 
J2VwaWtfcHl0aG9uJywgJy1waHQnLCAnMi4wJywgJy1waCcsICc3LjAnLCAnLXRuJywgJzgnLCAnLW1hJywgJzIwMCcsICctaW1hZScsICc8aW5maWxlLm1hZT4nLCAnLW9tYWUnLCAnPG91dGZpbGUubWFlPic=

>  <r_lp_tautomer_probability>  (236) 
1

>  <r_epik_Ionization_Penalty>  (236) 
0.310422

>  <r_epik_Ionization_Penalty_Charging>  (236) 
0.310422

>  <r_epik_Ionization_Penalty_Neutral>  (236) 
5.26233e-16

>  <r_epik_State_Penalty>  (236) 
0.30442

>  <r_epik_Charging_Adjusted_Penalty>  (236) 
0.614842

>  <i_epik_Tot_Q>  (236) 
1

>  <i_epik_Tot_abs_Q>  (236) 
1

>  <s_lp_Force_Field>  (236) 
OPLS3e

>  <r_lp_Energy>  (236) 
34.2851

>  <b_lp_Chiralities_Consistent>  (236) 
1

>  <s_lp_Variant>  (236) 
64:0-1

>  <s_i_glide_gridfile>  (236) 
pfpi4k_grid

>  <i_i_glide_lignum>  (236) 
13

>  <i_i_glide_rotatable_bonds>  (236) 
3

>  <r_i_docking_score>  (236) 
-2.72477

>  <r_i_glide_ligand_efficiency>  (236) 
-0.136238

>  <r_i_glide_ligand_efficiency_sa>  (236) 
-0.369808

>  <r_i_glide_ligand_efficiency_ln>  (236) 
-0.68192

>  <r_i_glide_gscore>  (236) 
-2.72477

>  <r_i_glide_lipo>  (236) 
-0.652305

>  <r_i_glide_hbond>  (236) 
0

>  <r_i_glide_metal>  (236) 
-0

>  <r_i_glide_rewards>  (236) 
-1.52459

>  <r_i_glide_evdw>  (236) 
-6.90612

>  <r_i_glide_ecoul>  (236) 
-2.92048

>  <r_i_glide_erotb>  (236) 
0.235502

>  <r_i_glide_esite>  (236) 
0

>  <r_i_glide_emodel>  (236) 
-9.98608

>  <r_i_glide_energy>  (236) 
-9.82659

>  <r_i_glide_einternal>  (236) 
0.370325

>  <r_i_glide_intrahb_reward>  (236) 
-0

>  <i_i_glide_confnum>  (236) 
6

>  <i_i_glide_posenum>  (236) 
14

>  <r_i_glide_eff_state_penalty>  (236) 
0

>  <ligand_id>  (236) 
64

>  <original_smiles>  (236) 
CCCN1CCOCC12CCc1cccc(OC)c1C2

>  <smiles>  (236) 
[H]c1c([H])c(OC([H])([H])[H])c2c(c1[H])C([H])([H])C([H])([H])C1(C([H])([H])OC([H])([H])C([H])([H])[N+]1([H])C([H])([H])C([H])([H])C([H])([H])[H])C2([H])[H]

$$$$
64:0:1
     RDKit          3D

 46 48  0  0  1  0  0  0  0  0999 V2000
    6.6877   -5.9840    0.8661 C   0  0  0  0  0  0  0  0  0  0  0  0
    5.8516   -5.4437   -0.2664 C   0  0  0  0  0  0  0  0  0  0  0  0
    4.6526   -4.7027    0.1667 C   0  0  0  0  0  0  0  0  0  0  0  0
    3.9691   -4.0468   -0.9780 N   0  0  2  0  0  0  0  0  0  0  0  0
    4.6341   -4.0725   -2.3309 C   0  0  0  0  0  0  0  0  0  0  0  0
    3.7020   -3.5240   -3.4209 C   0  0  0  0  0  0  0  0  0  0  0  0
    3.3283   -2.2251   -3.0686 O   0  0  0  0  0  0  0  0  0  0  0  0
    2.7049   -2.1806   -1.7935 C   0  0  0  0  0  0  0  0  0  0  0  0
    3.5726   -2.6838   -0.6181 C   0  0  2  0  0  0  0  0  0  0  0  0
    4.8036   -1.7638   -0.5057 C   0  0  0  0  0  0  0  0  0  0  0  0
    4.4457   -0.3672   -0.0729 C   0  0  0  0  0  0  0  0  0  0  0  0
    3.3921   -0.2707    1.0442 C   0  0  0  0  0  0  0  0  0  0  0  0
    3.2048    0.9439    1.6889 C   0  0  0  0  0  0  0  0  0  0  0  0
    2.3104    1.0686    2.7571 C   0  0  0  0  0  0  0  0  0  0  0  0
    1.5539   -0.0474    3.1815 C   0  0  0  0  0  0  0  0  0  0  0  0
    1.6951   -1.2920    2.5258 C   0  0  0  0  0  0  0  0  0  0  0  0
    0.9958   -2.4166    2.9246 O   0  0  0  0  0  0  0  0  0  0  0  0
    0.1086   -2.2725    4.0168 C   0  0  0  0  0  0  0  0  0  0  0  0
    2.6059   -1.4009    1.4284 C   0  0  0  0  0  0  0  0  0  0  0  0
    2.7813   -2.7233    0.7250 C   0  0  0  0  0  0  0  0  0  0  0  0
    7.5361   -6.5642    0.4872 H   0  0  0  0  0  0  0  0  0  0  0  0
    6.0823   -6.6217    1.5124 H   0  0  0  0  0  0  0  0  0  0  0  0
    7.0932   -5.1574    1.4572 H   0  0  0  0  0  0  0  0  0  0  0  0
    6.5087   -4.7189   -0.7508 H   0  0  0  0  0  0  0  0  0  0  0  0
    5.4673   -6.2347   -0.9111 H   0  0  0  0  0  0  0  0  0  0  0  0
    3.9562   -5.3410    0.7287 H   0  0  0  0  0  0  0  0  0  0  0  0
    5.0780   -3.9705    0.8467 H   0  0  0  0  0  0  0  0  0  0  0  0
    5.5733   -3.5104   -2.3609 H   0  0  0  0  0  0  0  0  0  0  0  0
    4.8908   -5.0730   -2.6619 H   0  0  0  0  0  0  0  0  0  0  0  0
    4.2222   -3.4617   -4.3795 H   0  0  0  0  0  0  0  0  0  0  0  0
    2.7991   -4.1232   -3.5668 H   0  0  0  0  0  0  0  0  0  0  0  0
    2.6199   -1.1066   -1.7177 H   0  0  0  0  0  0  0  0  0  0  0  0
    1.7260   -2.6819   -1.8418 H   0  0  0  0  0  0  0  0  0  0  0  0
    5.5281   -2.1141    0.2251 H   0  0  0  0  0  0  0  0  0  0  0  0
    5.3155   -1.6352   -1.4637 H   0  0  0  0  0  0  0  0  0  0  0  0
    5.3569    0.1472    0.2155 H   0  0  0  0  0  0  0  0  0  0  0  0
    4.1772    0.1488   -0.9845 H   0  0  0  0  0  0  0  0  0  0  0  0
    3.8134    1.7820    1.3851 H   0  0  0  0  0  0  0  0  0  0  0  0
    2.2010    2.0178    3.2367 H   0  0  0  0  0  0  0  0  0  0  0  0
    0.8683    0.1231    4.0102 H   0  0  0  0  0  0  0  0  0  0  0  0
   -0.3808   -3.2234    4.1958 H   0  0  0  0  0  0  0  0  0  0  0  0
   -0.6527   -1.5314    3.7881 H   0  0  0  0  0  0  0  0  0  0  0  0
    0.6428   -1.9850    4.9180 H   0  0  0  0  0  0  0  0  0  0  0  0
    1.8427   -3.2169    0.5783 H   0  0  0  0  0  0  0  0  0  0  0  0
    3.2386   -3.3087    1.5169 H   0  0  0  0  0  0  0  0  0  0  0  0
    3.1228   -4.5821   -1.1410 H   0  0  0  0  0  0  0  0  0  0  0  0
  1  2  1  0
  1 21  1  0
  1 22  1  0
  1 23  1  0
  2  3  1  0
  2 24  1  0
  2 25  1  0
  3  4  1  0
  3 26  1  0
  3 27  1  0
  4  9  1  0
  4  5  1  0
  4 46  1  6
  5  6  1  0
  5 28  1  0
  5 29  1  0
  6  7  1  0
  6 30  1  0
  6 31  1  0
  7  8  1  0
  9  8  1  6
  8 32  1  0
  8 33  1  0
  9 20  1  0
  9 10  1  0
 10 11  1  0
 10 34  1  0
 10 35  1  0
 11 12  1  0
 11 36  1  0
 11 37  1  0
 12 19  2  0
 12 13  1  0
 13 14  2  0
 13 38  1  0
 14 15  1  0
 14 39  1  0
 15 16  2  0
 15 40  1  0
 16 17  1  0
 16 19  1  0
 17 18  1  0
 18 41  1  0
 18 42  1  0
 18 43  1  0
 19 20  1  0
 20 44  1  0
 20 45  1  0
M  CHG  1   4   1
M  END
>  <i_m_ct_stereo_status>  (237) 
1

>  <s_m_source_file>  (237) 
/var/tmp/pbs.5076255.sched01/tmpyc7t0a4i/88yk12rjyo.sdf

>  <i_m_source_file_index>  (237) 
13

>  <i_lp_mmshare_version>  (237) 
48012

>  <i_f3d_flags>  (237) 
0

>  <s_epik_input>  (237) 
W0NIMl0xT1tDSDJdW0NIMl1OKFtDSDJdW0NIMl1bQ0gzXSlbQ0BAXTEyW0NIMl1bQ0gyXWMzYyhbQ0gyXTIpYyhPW0NIM10pW2NIXVtjSF1bY0hdMw==

>  <s_epik_cmdline>  (237) 
J2VwaWtfcHl0aG9uJywgJy1waHQnLCAnMi4wJywgJy1waCcsICc3LjAnLCAnLXRuJywgJzgnLCAnLW1hJywgJzIwMCcsICctaW1hZScsICc8aW5maWxlLm1hZT4nLCAnLW9tYWUnLCAnPG91dGZpbGUubWFlPic=

>  <r_lp_tautomer_probability>  (237) 
1

>  <r_epik_Ionization_Penalty>  (237) 
0.310422

>  <r_epik_Ionization_Penalty_Charging>  (237) 
0.310422

>  <r_epik_Ionization_Penalty_Neutral>  (237) 
5.26233e-16

>  <r_epik_State_Penalty>  (237) 
0.30442

>  <r_epik_Charging_Adjusted_Penalty>  (237) 
0.614842

>  <i_epik_Tot_Q>  (237) 
1

>  <i_epik_Tot_abs_Q>  (237) 
1

>  <s_lp_Force_Field>  (237) 
OPLS3e

>  <r_lp_Energy>  (237) 
34.2851

>  <b_lp_Chiralities_Consistent>  (237) 
1

>  <s_lp_Variant>  (237) 
64:0-1

>  <s_i_glide_gridfile>  (237) 
pfpi4k_grid

>  <i_i_glide_lignum>  (237) 
13

>  <i_i_glide_rotatable_bonds>  (237) 
3

>  <r_i_docking_score>  (237) 
-2.48562

>  <r_i_glide_ligand_efficiency>  (237) 
-0.124281

>  <r_i_glide_ligand_efficiency_sa>  (237) 
-0.337351

>  <r_i_glide_ligand_efficiency_ln>  (237) 
-0.622069

>  <r_i_glide_gscore>  (237) 
-2.48562

>  <r_i_glide_lipo>  (237) 
-0.410133

>  <r_i_glide_hbond>  (237) 
0

>  <r_i_glide_metal>  (237) 
-0

>  <r_i_glide_rewards>  (237) 
-1.52459

>  <r_i_glide_evdw>  (237) 
-0.954368

>  <r_i_glide_ecoul>  (237) 
-4.73336

>  <r_i_glide_erotb>  (237) 
0.235502

>  <r_i_glide_esite>  (237) 
-0.028682

>  <r_i_glide_emodel>  (237) 
-1.40095

>  <r_i_glide_energy>  (237) 
-5.68773

>  <r_i_glide_einternal>  (237) 
6.89579

>  <r_i_glide_intrahb_reward>  (237) 
-0

>  <i_i_glide_confnum>  (237) 
3

>  <i_i_glide_posenum>  (237) 
1

>  <r_i_glide_eff_state_penalty>  (237) 
0

>  <ligand_id>  (237) 
64

>  <original_smiles>  (237) 
CCCN1CCOCC12CCc1cccc(OC)c1C2

>  <smiles>  (237) 
[H]c1c([H])c(OC([H])([H])[H])c2c(c1[H])C([H])([H])C([H])([H])C1(C([H])([H])OC([H])([H])C([H])([H])[N+]1([H])C([H])([H])C([H])([H])C([H])([H])[H])C2([H])[H]

$$$$
64:0:2
     RDKit          3D

 46 48  0  0  1  0  0  0  0  0999 V2000
    5.5858   -6.3378    0.5898 C   0  0  0  0  0  0  0  0  0  0  0  0
    4.6242   -5.8111   -0.4613 C   0  0  0  0  0  0  0  0  0  0  0  0
    5.2022   -4.5742   -1.1770 C   0  0  0  0  0  0  0  0  0  0  0  0
    4.2175   -3.8407   -2.0042 N   0  0  2  0  0  0  0  0  0  0  0  0
    4.6551   -3.6018   -3.3856 C   0  0  0  0  0  0  0  0  0  0  0  0
    3.4944   -2.9642   -4.1486 C   0  0  0  0  0  0  0  0  0  0  0  0
    3.0674   -1.7950   -3.5295 O   0  0  0  0  0  0  0  0  0  0  0  0
    2.6166   -2.0615   -2.2358 C   0  0  0  0  0  0  0  0  0  0  0  0
    3.7322   -2.6358   -1.3262 C   0  0  2  0  0  0  0  0  0  0  0  0
    4.9013   -1.6234   -1.2187 C   0  0  0  0  0  0  0  0  0  0  0  0
    4.5075   -0.4068   -0.4756 C   0  0  0  0  0  0  0  0  0  0  0  0
    3.6336   -0.6390    0.7662 C   0  0  0  0  0  0  0  0  0  0  0  0
    3.4696    0.4122    1.6699 C   0  0  0  0  0  0  0  0  0  0  0  0
    2.7597    0.2557    2.8681 C   0  0  0  0  0  0  0  0  0  0  0  0
    2.1926   -0.9888    3.1677 C   0  0  0  0  0  0  0  0  0  0  0  0
    2.3200   -2.0691    2.2652 C   0  0  0  0  0  0  0  0  0  0  0  0
    1.8176   -3.3287    2.5179 O   0  0  0  0  0  0  0  0  0  0  0  0
    1.0273   -3.4831    3.6809 C   0  0  0  0  0  0  0  0  0  0  0  0
    3.0143   -1.8677    1.0477 C   0  0  0  0  0  0  0  0  0  0  0  0
    3.1622   -3.0018    0.0867 C   0  0  0  0  0  0  0  0  0  0  0  0
    5.1502   -7.2353    1.0256 H   0  0  0  0  0  0  0  0  0  0  0  0
    5.7794   -5.5910    1.3579 H   0  0  0  0  0  0  0  0  0  0  0  0
    6.5480   -6.5913    0.1775 H   0  0  0  0  0  0  0  0  0  0  0  0
    4.4030   -6.6560   -1.1244 H   0  0  0  0  0  0  0  0  0  0  0  0
    3.6571   -5.6001    0.0050 H   0  0  0  0  0  0  0  0  0  0  0  0
    5.6276   -3.9738   -0.3828 H   0  0  0  0  0  0  0  0  0  0  0  0
    6.0543   -4.6507   -1.7982 H   0  0  0  0  0  0  0  0  0  0  0  0
    5.5538   -2.9770   -3.4346 H   0  0  0  0  0  0  0  0  0  0  0  0
    4.9315   -4.5327   -3.8745 H   0  0  0  0  0  0  0  0  0  0  0  0
    3.8445   -2.5926   -5.0976 H   0  0  0  0  0  0  0  0  0  0  0  0
    2.6625   -3.6518   -4.3187 H   0  0  0  0  0  0  0  0  0  0  0  0
    2.3409   -1.0631   -1.9570 H   0  0  0  0  0  0  0  0  0  0  0  0
    1.7205   -2.6962   -2.2236 H   0  0  0  0  0  0  0  0  0  0  0  0
    5.7821   -1.9843   -0.6994 H   0  0  0  0  0  0  0  0  0  0  0  0
    5.2448   -1.2718   -2.1901 H   0  0  0  0  0  0  0  0  0  0  0  0
    5.4243    0.0971   -0.2069 H   0  0  0  0  0  0  0  0  0  0  0  0
    4.0569    0.1464   -1.2799 H   0  0  0  0  0  0  0  0  0  0  0  0
    3.8880    1.3523    1.4102 H   0  0  0  0  0  0  0  0  0  0  0  0
    2.6516    1.0864    3.5469 H   0  0  0  0  0  0  0  0  0  0  0  0
    1.6534   -1.0713    4.0957 H   0  0  0  0  0  0  0  0  0  0  0  0
    0.6643   -4.5075    3.7507 H   0  0  0  0  0  0  0  0  0  0  0  0
    0.1597   -2.8191    3.6627 H   0  0  0  0  0  0  0  0  0  0  0  0
    1.6105   -3.2752    4.5793 H   0  0  0  0  0  0  0  0  0  0  0  0
    2.2427   -3.5842    0.0118 H   0  0  0  0  0  0  0  0  0  0  0  0
    3.8447   -3.5749    0.7061 H   0  0  0  0  0  0  0  0  0  0  0  0
    3.4188   -4.4650   -2.1241 H   0  0  0  0  0  0  0  0  0  0  0  0
  1  2  1  0
  1 21  1  0
  1 22  1  0
  1 23  1  0
  2  3  1  0
  2 24  1  0
  2 25  1  0
  3  4  1  0
  3 26  1  0
  3 27  1  0
  4  9  1  0
  4  5  1  0
  4 46  1  6
  5  6  1  0
  5 28  1  0
  5 29  1  0
  6  7  1  0
  6 30  1  0
  6 31  1  0
  7  8  1  0
  9  8  1  6
  8 32  1  0
  8 33  1  0
  9 20  1  0
  9 10  1  0
 10 11  1  0
 10 34  1  0
 10 35  1  0
 11 12  1  0
 11 36  1  0
 11 37  1  0
 12 19  2  0
 12 13  1  0
 13 14  2  0
 13 38  1  0
 14 15  1  0
 14 39  1  0
 15 16  2  0
 15 40  1  0
 16 17  1  0
 16 19  1  0
 17 18  1  0
 18 41  1  0
 18 42  1  0
 18 43  1  0
 19 20  1  0
 20 44  1  0
 20 45  1  0
M  CHG  1   4   1
M  END
>  <i_m_ct_stereo_status>  (238) 
1

>  <s_m_source_file>  (238) 
/var/tmp/pbs.5076255.sched01/tmpyc7t0a4i/88yk12rjyo.sdf

>  <i_m_source_file_index>  (238) 
13

>  <i_lp_mmshare_version>  (238) 
48012

>  <i_f3d_flags>  (238) 
0

>  <s_epik_input>  (238) 
W0NIMl0xT1tDSDJdW0NIMl1OKFtDSDJdW0NIMl1bQ0gzXSlbQ0BAXTEyW0NIMl1bQ0gyXWMzYyhbQ0gyXTIpYyhPW0NIM10pW2NIXVtjSF1bY0hdMw==

>  <s_epik_cmdline>  (238) 
J2VwaWtfcHl0aG9uJywgJy1waHQnLCAnMi4wJywgJy1waCcsICc3LjAnLCAnLXRuJywgJzgnLCAnLW1hJywgJzIwMCcsICctaW1hZScsICc8aW5maWxlLm1hZT4nLCAnLW9tYWUnLCAnPG91dGZpbGUubWFlPic=

>  <r_lp_tautomer_probability>  (238) 
1

>  <r_epik_Ionization_Penalty>  (238) 
0.310422

>  <r_epik_Ionization_Penalty_Charging>  (238) 
0.310422

>  <r_epik_Ionization_Penalty_Neutral>  (238) 
5.26233e-16

>  <r_epik_State_Penalty>  (238) 
0.30442

>  <r_epik_Charging_Adjusted_Penalty>  (238) 
0.614842

>  <i_epik_Tot_Q>  (238) 
1

>  <i_epik_Tot_abs_Q>  (238) 
1

>  <s_lp_Force_Field>  (238) 
OPLS3e

>  <r_lp_Energy>  (238) 
34.2851

>  <b_lp_Chiralities_Consistent>  (238) 
1

>  <s_lp_Variant>  (238) 
64:0-1

>  <s_i_glide_gridfile>  (238) 
pfpi4k_grid

>  <i_i_glide_lignum>  (238) 
13

>  <i_i_glide_rotatable_bonds>  (238) 
3

>  <r_i_docking_score>  (238) 
-2.38684

>  <r_i_glide_ligand_efficiency>  (238) 
-0.119342

>  <r_i_glide_ligand_efficiency_sa>  (238) 
-0.323944

>  <r_i_glide_ligand_efficiency_ln>  (238) 
-0.597348

>  <r_i_glide_gscore>  (238) 
-2.38684

>  <r_i_glide_lipo>  (238) 
-0.308448

>  <r_i_glide_hbond>  (238) 
0

>  <r_i_glide_metal>  (238) 
-0

>  <r_i_glide_rewards>  (238) 
-1.52459

>  <r_i_glide_evdw>  (238) 
-2.95616

>  <r_i_glide_ecoul>  (238) 
-4.00016

>  <r_i_glide_erotb>  (238) 
0.235502

>  <r_i_glide_esite>  (238) 
-0.0414776

>  <r_i_glide_emodel>  (238) 
-5.69961

>  <r_i_glide_energy>  (238) 
-6.95632

>  <r_i_glide_einternal>  (238) 
0.0433591

>  <r_i_glide_intrahb_reward>  (238) 
-0

>  <i_i_glide_confnum>  (238) 
2

>  <i_i_glide_posenum>  (238) 
27

>  <r_i_glide_eff_state_penalty>  (238) 
0

>  <ligand_id>  (238) 
64

>  <original_smiles>  (238) 
CCCN1CCOCC12CCc1cccc(OC)c1C2

>  <smiles>  (238) 
[H]c1c([H])c(OC([H])([H])[H])c2c(c1[H])C([H])([H])C([H])([H])C1(C([H])([H])OC([H])([H])C([H])([H])[N+]1([H])C([H])([H])C([H])([H])C([H])([H])[H])C2([H])[H]

$$$$
64:1:0
     RDKit          3D

 45 47  0  0  1  0  0  0  0  0999 V2000
    3.0733   -0.4701   -3.5765 C   0  0  0  0  0  0  0  0  0  0  0  0
    4.2404   -0.7634   -2.6347 C   0  0  0  0  0  0  0  0  0  0  0  0
    3.8022   -1.5440   -1.3952 C   0  0  0  0  0  0  0  0  0  0  0  0
    4.9223   -1.8673   -0.5037 N   0  0  0  0  0  0  0  0  0  0  0  0
    5.1356   -0.7971    0.4724 C   0  0  0  0  0  0  0  0  0  0  0  0
    6.3243   -1.0629    1.4039 C   0  0  0  0  0  0  0  0  0  0  0  0
    6.1429   -2.3105    2.0403 O   0  0  0  0  0  0  0  0  0  0  0  0
    6.0194   -3.3835    1.1191 C   0  0  0  0  0  0  0  0  0  0  0  0
    4.7947   -3.1720    0.1757 C   0  0  2  0  0  0  0  0  0  0  0  0
    4.7912   -4.3240   -0.8660 C   0  0  0  0  0  0  0  0  0  0  0  0
    4.7817   -5.7058   -0.2333 C   0  0  0  0  0  0  0  0  0  0  0  0
    3.7236   -5.8208    0.8633 C   0  0  0  0  0  0  0  0  0  0  0  0
    3.3479   -7.1069    1.2937 C   0  0  0  0  0  0  0  0  0  0  0  0
    2.3917   -7.2653    2.3084 C   0  0  0  0  0  0  0  0  0  0  0  0
    1.8095   -6.1410    2.9227 C   0  0  0  0  0  0  0  0  0  0  0  0
    2.1828   -4.8360    2.5123 C   0  0  0  0  0  0  0  0  0  0  0  0
    1.6439   -3.6947    3.0739 O   0  0  0  0  0  0  0  0  0  0  0  0
    0.8625   -3.8206    4.2516 C   0  0  0  0  0  0  0  0  0  0  0  0
    3.1313   -4.6821    1.4763 C   0  0  0  0  0  0  0  0  0  0  0  0
    3.4962   -3.2760    1.0251 C   0  0  0  0  0  0  0  0  0  0  0  0
    3.3965    0.1062   -4.4391 H   0  0  0  0  0  0  0  0  0  0  0  0
    2.3046    0.1043   -3.0652 H   0  0  0  0  0  0  0  0  0  0  0  0
    2.6167   -1.3892   -3.9390 H   0  0  0  0  0  0  0  0  0  0  0  0
    4.9957   -1.3391   -3.1646 H   0  0  0  0  0  0  0  0  0  0  0  0
    4.7196    0.1675   -2.3446 H   0  0  0  0  0  0  0  0  0  0  0  0
    3.0355   -0.9861   -0.8553 H   0  0  0  0  0  0  0  0  0  0  0  0
    3.3138   -2.4442   -1.7544 H   0  0  0  0  0  0  0  0  0  0  0  0
    5.3034    0.1473   -0.0421 H   0  0  0  0  0  0  0  0  0  0  0  0
    4.2399   -0.6509    1.0729 H   0  0  0  0  0  0  0  0  0  0  0  0
    7.2705   -1.0561    0.8617 H   0  0  0  0  0  0  0  0  0  0  0  0
    6.3723   -0.3011    2.1803 H   0  0  0  0  0  0  0  0  0  0  0  0
    6.9477   -3.4931    0.5526 H   0  0  0  0  0  0  0  0  0  0  0  0
    5.9267   -4.2781    1.7335 H   0  0  0  0  0  0  0  0  0  0  0  0
    3.8992   -4.2523   -1.4909 H   0  0  0  0  0  0  0  0  0  0  0  0
    5.6353   -4.2303   -1.5612 H   0  0  0  0  0  0  0  0  0  0  0  0
    4.6137   -6.4712   -0.9906 H   0  0  0  0  0  0  0  0  0  0  0  0
    5.7469   -5.9507    0.2002 H   0  0  0  0  0  0  0  0  0  0  0  0
    3.7985   -7.9745    0.8412 H   0  0  0  0  0  0  0  0  0  0  0  0
    2.1040   -8.2565    2.6306 H   0  0  0  0  0  0  0  0  0  0  0  0
    1.0861   -6.3189    3.7024 H   0  0  0  0  0  0  0  0  0  0  0  0
    0.4914   -2.8432    4.5820 H   0  0  0  0  0  0  0  0  0  0  0  0
    1.4647   -4.2414    5.0603 H   0  0  0  0  0  0  0  0  0  0  0  0
   -0.0102   -4.4556    4.0875 H   0  0  0  0  0  0  0  0  0  0  0  0
    3.5847   -2.6413    1.9033 H   0  0  0  0  0  0  0  0  0  0  0  0
    2.6277   -2.9010    0.4831 H   0  0  0  0  0  0  0  0  0  0  0  0
  1  2  1  0
  1 21  1  0
  1 22  1  0
  1 23  1  0
  2  3  1  0
  2 24  1  0
  2 25  1  0
  3  4  1  0
  3 26  1  0
  3 27  1  0
  9  4  1  6
  4  5  1  0
  5  6  1  0
  5 28  1  0
  5 29  1  0
  6  7  1  0
  6 30  1  0
  6 31  1  0
  7  8  1  0
  8  9  1  0
  8 32  1  0
  8 33  1  0
  9 20  1  0
  9 10  1  0
 10 11  1  0
 10 34  1  0
 10 35  1  0
 11 12  1  0
 11 36  1  0
 11 37  1  0
 12 19  2  0
 12 13  1  0
 13 14  2  0
 13 38  1  0
 14 15  1  0
 14 39  1  0
 15 16  2  0
 15 40  1  0
 16 17  1  0
 16 19  1  0
 17 18  1  0
 18 41  1  0
 18 42  1  0
 18 43  1  0
 19 20  1  0
 20 44  1  0
 20 45  1  0
M  END
>  <i_m_ct_stereo_status>  (239) 
1

>  <s_m_source_file>  (239) 
/var/tmp/pbs.5076255.sched01/tmpyc7t0a4i/88yk12rjyo.sdf

>  <i_m_source_file_index>  (239) 
14

>  <i_lp_mmshare_version>  (239) 
48012

>  <i_f3d_flags>  (239) 
0

>  <s_epik_input>  (239) 
W0NIMl0xT1tDSDJdW0NIMl1OKFtDSDJdW0NIMl1bQ0gzXSlbQ0BAXTEyW0NIMl1bQ0gyXWMzYyhbQ0gyXTIpYyhPW0NIM10pW2NIXVtjSF1bY0hdMw==

>  <s_epik_cmdline>  (239) 
J2VwaWtfcHl0aG9uJywgJy1waHQnLCAnMi4wJywgJy1waCcsICc3LjAnLCAnLXRuJywgJzgnLCAnLW1hJywgJzIwMCcsICctaW1hZScsICc8aW5maWxlLm1hZT4nLCAnLW9tYWUnLCAnPG91dGZpbGUubWFlPic=

>  <r_lp_tautomer_probability>  (239) 
1

>  <r_epik_Ionization_Penalty>  (239) 
0.53143

>  <r_epik_Ionization_Penalty_Charging>  (239) 
0

>  <r_epik_Ionization_Penalty_Neutral>  (239) 
0.53143

>  <r_epik_State_Penalty>  (239) 
0.540254

>  <r_epik_Charging_Adjusted_Penalty>  (239) 
0.540254

>  <i_epik_Tot_Q>  (239) 
0

>  <i_epik_Tot_abs_Q>  (239) 
0

>  <s_lp_Force_Field>  (239) 
OPLS3e

>  <r_lp_Energy>  (239) 
37.8414

>  <b_lp_Chiralities_Consistent>  (239) 
1

>  <s_lp_Variant>  (239) 
64:0-2

>  <s_i_glide_gridfile>  (239) 
pfpi4k_grid

>  <i_i_glide_lignum>  (239) 
14

>  <i_i_glide_rotatable_bonds>  (239) 
3

>  <r_i_docking_score>  (239) 
-3.25084

>  <r_i_glide_ligand_efficiency>  (239) 
-0.162542

>  <r_i_glide_ligand_efficiency_sa>  (239) 
-0.441206

>  <r_i_glide_ligand_efficiency_ln>  (239) 
-0.813577

>  <r_i_glide_gscore>  (239) 
-3.25084

>  <r_i_glide_lipo>  (239) 
-0.735247

>  <r_i_glide_hbond>  (239) 
0

>  <r_i_glide_metal>  (239) 
-0

>  <r_i_glide_rewards>  (239) 
-1.53146

>  <r_i_glide_evdw>  (239) 
-19.7782

>  <r_i_glide_ecoul>  (239) 
-1.5481

>  <r_i_glide_erotb>  (239) 
0.236999

>  <r_i_glide_esite>  (239) 
0

>  <r_i_glide_emodel>  (239) 
-24.6064

>  <r_i_glide_energy>  (239) 
-21.3263

>  <r_i_glide_einternal>  (239) 
2.05417

>  <r_i_glide_intrahb_reward>  (239) 
-0

>  <i_i_glide_confnum>  (239) 
4

>  <i_i_glide_posenum>  (239) 
13

>  <r_i_glide_eff_state_penalty>  (239) 
0

>  <ligand_id>  (239) 
64

>  <original_smiles>  (239) 
CCCN1CCOCC12CCc1cccc(OC)c1C2

>  <smiles>  (239) 
[H]c1c([H])c(OC([H])([H])[H])c2c(c1[H])C([H])([H])C([H])([H])C1(N(C([H])([H])C([H])([H])C([H])([H])[H])C([H])([H])C([H])([H])OC1([H])[H])C2([H])[H]

$$$$
64:1:1
     RDKit          3D

 45 47  0  0  1  0  0  0  0  0999 V2000
    4.6831    0.2492    4.3154 C   0  0  0  0  0  0  0  0  0  0  0  0
    3.4105   -0.5801    4.1669 C   0  0  0  0  0  0  0  0  0  0  0  0
    2.2434    0.0359    4.9338 C   0  0  0  0  0  0  0  0  0  0  0  0
    0.9793   -0.7175    4.8494 N   0  0  0  0  0  0  0  0  0  0  0  0
    1.0833   -2.0126    5.5293 C   0  0  0  0  0  0  0  0  0  0  0  0
   -0.1899   -2.8533    5.4067 C   0  0  0  0  0  0  0  0  0  0  0  0
   -1.3063   -2.1206    5.8835 O   0  0  0  0  0  0  0  0  0  0  0  0
   -1.4758   -0.8964    5.1868 C   0  0  0  0  0  0  0  0  0  0  0  0
   -0.2140    0.0291    5.3190 C   0  0  2  0  0  0  0  0  0  0  0  0
   -0.4533    1.2933    4.4423 C   0  0  0  0  0  0  0  0  0  0  0  0
   -1.7369    2.0459    4.8212 C   0  0  0  0  0  0  0  0  0  0  0  0
   -1.8749    2.2371    6.3171 C   0  0  0  0  0  0  0  0  0  0  0  0
   -2.7862    3.1967    6.7789 C   0  0  0  0  0  0  0  0  0  0  0  0
   -2.9482    3.4273    8.1565 C   0  0  0  0  0  0  0  0  0  0  0  0
   -2.1968    2.7067    9.0909 C   0  0  0  0  0  0  0  0  0  0  0  0
   -1.2674    1.7400    8.6499 C   0  0  0  0  0  0  0  0  0  0  0  0
   -0.4855    0.9818    9.5142 O   0  0  0  0  0  0  0  0  0  0  0  0
   -0.5601    1.2743   10.9061 C   0  0  0  0  0  0  0  0  0  0  0  0
   -1.1135    1.4953    7.2633 C   0  0  0  0  0  0  0  0  0  0  0  0
   -0.0910    0.4733    6.8048 C   0  0  0  0  0  0  0  0  0  0  0  0
    5.5117   -0.2252    3.7924 H   0  0  0  0  0  0  0  0  0  0  0  0
    4.9622    0.3398    5.3636 H   0  0  0  0  0  0  0  0  0  0  0  0
    4.5645    1.2560    3.9206 H   0  0  0  0  0  0  0  0  0  0  0  0
    3.1414   -0.6590    3.1102 H   0  0  0  0  0  0  0  0  0  0  0  0
    3.6328   -1.5903    4.5161 H   0  0  0  0  0  0  0  0  0  0  0  0
    2.5425    0.1384    5.9781 H   0  0  0  0  0  0  0  0  0  0  0  0
    2.1101    1.0416    4.5351 H   0  0  0  0  0  0  0  0  0  0  0  0
    1.8862   -2.6028    5.1045 H   0  0  0  0  0  0  0  0  0  0  0  0
    1.3263   -1.8600    6.5812 H   0  0  0  0  0  0  0  0  0  0  0  0
   -0.3572   -3.1422    4.3686 H   0  0  0  0  0  0  0  0  0  0  0  0
   -0.0934   -3.7694    5.9899 H   0  0  0  0  0  0  0  0  0  0  0  0
   -1.7115   -1.0928    4.1393 H   0  0  0  0  0  0  0  0  0  0  0  0
   -2.3688   -0.4428    5.6228 H   0  0  0  0  0  0  0  0  0  0  0  0
    0.3409    2.0236    4.5917 H   0  0  0  0  0  0  0  0  0  0  0  0
   -0.4392    1.0508    3.3879 H   0  0  0  0  0  0  0  0  0  0  0  0
   -1.7584    3.0073    4.3176 H   0  0  0  0  0  0  0  0  0  0  0  0
   -2.5910    1.4918    4.4436 H   0  0  0  0  0  0  0  0  0  0  0  0
   -3.3702    3.7470    6.0667 H   0  0  0  0  0  0  0  0  0  0  0  0
   -3.6599    4.1632    8.5070 H   0  0  0  0  0  0  0  0  0  0  0  0
   -2.3541    2.9129   10.1439 H   0  0  0  0  0  0  0  0  0  0  0  0
    0.0965    0.6128   11.4823 H   0  0  0  0  0  0  0  0  0  0  0  0
   -1.5728    1.1348   11.2884 H   0  0  0  0  0  0  0  0  0  0  0  0
   -0.2433    2.3038   11.0963 H   0  0  0  0  0  0  0  0  0  0  0  0
   -0.1510   -0.3967    7.4563 H   0  0  0  0  0  0  0  0  0  0  0  0
    0.8717    0.9387    7.0112 H   0  0  0  0  0  0  0  0  0  0  0  0
  1  2  1  0
  1 21  1  0
  1 22  1  0
  1 23  1  0
  2  3  1  0
  2 24  1  0
  2 25  1  0
  3  4  1  0
  3 26  1  0
  3 27  1  0
  9  4  1  6
  4  5  1  0
  5  6  1  0
  5 28  1  0
  5 29  1  0
  6  7  1  0
  6 30  1  0
  6 31  1  0
  7  8  1  0
  8  9  1  0
  8 32  1  0
  8 33  1  0
  9 20  1  0
  9 10  1  0
 10 11  1  0
 10 34  1  0
 10 35  1  0
 11 12  1  0
 11 36  1  0
 11 37  1  0
 12 19  2  0
 12 13  1  0
 13 14  2  0
 13 38  1  0
 14 15  1  0
 14 39  1  0
 15 16  2  0
 15 40  1  0
 16 17  1  0
 16 19  1  0
 17 18  1  0
 18 41  1  0
 18 42  1  0
 18 43  1  0
 19 20  1  0
 20 44  1  0
 20 45  1  0
M  END
>  <i_m_ct_stereo_status>  (240) 
1

>  <s_m_source_file>  (240) 
/var/tmp/pbs.5076255.sched01/tmpyc7t0a4i/88yk12rjyo.sdf

>  <i_m_source_file_index>  (240) 
14

>  <i_lp_mmshare_version>  (240) 
48012

>  <i_f3d_flags>  (240) 
0

>  <s_epik_input>  (240) 
W0NIMl0xT1tDSDJdW0NIMl1OKFtDSDJdW0NIMl1bQ0gzXSlbQ0BAXTEyW0NIMl1bQ0gyXWMzYyhbQ0gyXTIpYyhPW0NIM10pW2NIXVtjSF1bY0hdMw==

>  <s_epik_cmdline>  (240) 
J2VwaWtfcHl0aG9uJywgJy1waHQnLCAnMi4wJywgJy1waCcsICc3LjAnLCAnLXRuJywgJzgnLCAnLW1hJywgJzIwMCcsICctaW1hZScsICc8aW5maWxlLm1hZT4nLCAnLW9tYWUnLCAnPG91dGZpbGUubWFlPic=

>  <r_lp_tautomer_probability>  (240) 
1

>  <r_epik_Ionization_Penalty>  (240) 
0.53143

>  <r_epik_Ionization_Penalty_Charging>  (240) 
0

>  <r_epik_Ionization_Penalty_Neutral>  (240) 
0.53143

>  <r_epik_State_Penalty>  (240) 
0.540254

>  <r_epik_Charging_Adjusted_Penalty>  (240) 
0.540254

>  <i_epik_Tot_Q>  (240) 
0

>  <i_epik_Tot_abs_Q>  (240) 
0

>  <s_lp_Force_Field>  (240) 
OPLS3e

>  <r_lp_Energy>  (240) 
37.8414

>  <b_lp_Chiralities_Consistent>  (240) 
1

>  <s_lp_Variant>  (240) 
64:0-2

>  <s_i_glide_gridfile>  (240) 
pfpi4k_grid

>  <i_i_glide_lignum>  (240) 
14

>  <i_i_glide_rotatable_bonds>  (240) 
3

>  <r_i_docking_score>  (240) 
-2.86337

>  <r_i_glide_ligand_efficiency>  (240) 
-0.143169

>  <r_i_glide_ligand_efficiency_sa>  (240) 
-0.388619

>  <r_i_glide_ligand_efficiency_ln>  (240) 
-0.716607

>  <r_i_glide_gscore>  (240) 
-2.86337

>  <r_i_glide_lipo>  (240) 
-0.332278

>  <r_i_glide_hbond>  (240) 
0

>  <r_i_glide_metal>  (240) 
-0

>  <r_i_glide_rewards>  (240) 
-1.53146

>  <r_i_glide_evdw>  (240) 
-16.4527

>  <r_i_glide_ecoul>  (240) 
-2.75999

>  <r_i_glide_erotb>  (240) 
0.236999

>  <r_i_glide_esite>  (240) 
0

>  <r_i_glide_emodel>  (240) 
-23.1281

>  <r_i_glide_energy>  (240) 
-19.2127

>  <r_i_glide_einternal>  (240) 
0.055999

>  <r_i_glide_intrahb_reward>  (240) 
-0

>  <i_i_glide_confnum>  (240) 
4

>  <i_i_glide_posenum>  (240) 
9

>  <r_i_glide_eff_state_penalty>  (240) 
0

>  <ligand_id>  (240) 
64

>  <original_smiles>  (240) 
CCCN1CCOCC12CCc1cccc(OC)c1C2

>  <smiles>  (240) 
[H]c1c([H])c(OC([H])([H])[H])c2c(c1[H])C([H])([H])C([H])([H])C1(N(C([H])([H])C([H])([H])C([H])([H])[H])C([H])([H])C([H])([H])OC1([H])[H])C2([H])[H]

$$$$
64:1:2
     RDKit          3D

 45 47  0  0  1  0  0  0  0  0999 V2000
    1.7029    1.6279    2.2313 C   0  0  0  0  0  0  0  0  0  0  0  0
    2.3552    1.1581    3.5361 C   0  0  0  0  0  0  0  0  0  0  0  0
    1.4599    1.4339    4.7472 C   0  0  0  0  0  0  0  0  0  0  0  0
    0.2278    0.6297    4.8086 N   0  0  0  0  0  0  0  0  0  0  0  0
    0.5144   -0.7859    5.0551 C   0  0  0  0  0  0  0  0  0  0  0  0
   -0.7456   -1.6595    5.0635 C   0  0  0  0  0  0  0  0  0  0  0  0
   -1.6782   -1.1592    6.0047 O   0  0  0  0  0  0  0  0  0  0  0  0
   -2.0315    0.1895    5.7361 C   0  0  0  0  0  0  0  0  0  0  0  0
   -0.7835    1.1355    5.7679 C   0  0  2  0  0  0  0  0  0  0  0  0
   -1.2598    2.5636    5.3801 C   0  0  0  0  0  0  0  0  0  0  0  0
   -2.3835    3.0766    6.2801 C   0  0  0  0  0  0  0  0  0  0  0  0
   -2.0847    2.8814    7.7538 C   0  0  0  0  0  0  0  0  0  0  0  0
   -2.8251    3.6219    8.6925 C   0  0  0  0  0  0  0  0  0  0  0  0
   -2.5888    3.4655   10.0627 C   0  0  0  0  0  0  0  0  0  0  0  0
   -1.6039    2.5723   10.5147 C   0  0  0  0  0  0  0  0  0  0  0  0
   -0.8493    1.8122    9.5917 C   0  0  0  0  0  0  0  0  0  0  0  0
    0.1344    0.9134    9.9753 O   0  0  0  0  0  0  0  0  0  0  0  0
    0.3362    0.7008   11.3683 C   0  0  0  0  0  0  0  0  0  0  0  0
   -1.0931    1.9715    8.2104 C   0  0  0  0  0  0  0  0  0  0  0  0
   -0.2451    1.1828    7.2268 C   0  0  0  0  0  0  0  0  0  0  0  0
    2.3443    1.4109    1.3804 H   0  0  0  0  0  0  0  0  0  0  0  0
    1.5063    2.6991    2.2424 H   0  0  0  0  0  0  0  0  0  0  0  0
    0.7509    1.1296    2.0623 H   0  0  0  0  0  0  0  0  0  0  0  0
    2.6335    0.1049    3.4634 H   0  0  0  0  0  0  0  0  0  0  0  0
    3.2925    1.6989    3.6753 H   0  0  0  0  0  0  0  0  0  0  0  0
    2.0535    1.2599    5.6435 H   0  0  0  0  0  0  0  0  0  0  0  0
    1.2248    2.4962    4.7173 H   0  0  0  0  0  0  0  0  0  0  0  0
    1.1641   -1.1816    4.2829 H   0  0  0  0  0  0  0  0  0  0  0  0
    1.0426   -0.8990    5.9997 H   0  0  0  0  0  0  0  0  0  0  0  0
   -1.2102   -1.6790    4.0807 H   0  0  0  0  0  0  0  0  0  0  0  0
   -0.4935   -2.6874    5.3242 H   0  0  0  0  0  0  0  0  0  0  0  0
   -2.5545    0.2477    4.7792 H   0  0  0  0  0  0  0  0  0  0  0  0
   -2.7603    0.4497    6.5035 H   0  0  0  0  0  0  0  0  0  0  0  0
   -0.4440    3.2809    5.4897 H   0  0  0  0  0  0  0  0  0  0  0  0
   -1.5486    2.6085    4.3282 H   0  0  0  0  0  0  0  0  0  0  0  0
   -2.5285    4.1400    6.0813 H   0  0  0  0  0  0  0  0  0  0  0  0
   -3.3350    2.6044    6.0483 H   0  0  0  0  0  0  0  0  0  0  0  0
   -3.5799    4.3156    8.3657 H   0  0  0  0  0  0  0  0  0  0  0  0
   -3.1609    4.0248   10.7885 H   0  0  0  0  0  0  0  0  0  0  0  0
   -1.4573    2.4879   11.5824 H   0  0  0  0  0  0  0  0  0  0  0  0
    1.1402   -0.0233   11.5410 H   0  0  0  0  0  0  0  0  0  0  0  0
   -0.5721    0.3049   11.8336 H   0  0  0  0  0  0  0  0  0  0  0  0
    0.6242    1.6296   11.8704 H   0  0  0  0  0  0  0  0  0  0  0  0
   -0.1198    0.1710    7.6097 H   0  0  0  0  0  0  0  0  0  0  0  0
    0.7395    1.6465    7.2810 H   0  0  0  0  0  0  0  0  0  0  0  0
  1  2  1  0
  1 21  1  0
  1 22  1  0
  1 23  1  0
  2  3  1  0
  2 24  1  0
  2 25  1  0
  3  4  1  0
  3 26  1  0
  3 27  1  0
  9  4  1  6
  4  5  1  0
  5  6  1  0
  5 28  1  0
  5 29  1  0
  6  7  1  0
  6 30  1  0
  6 31  1  0
  7  8  1  0
  8  9  1  0
  8 32  1  0
  8 33  1  0
  9 20  1  0
  9 10  1  0
 10 11  1  0
 10 34  1  0
 10 35  1  0
 11 12  1  0
 11 36  1  0
 11 37  1  0
 12 19  2  0
 12 13  1  0
 13 14  2  0
 13 38  1  0
 14 15  1  0
 14 39  1  0
 15 16  2  0
 15 40  1  0
 16 17  1  0
 16 19  1  0
 17 18  1  0
 18 41  1  0
 18 42  1  0
 18 43  1  0
 19 20  1  0
 20 44  1  0
 20 45  1  0
M  END
>  <i_m_ct_stereo_status>  (241) 
1

>  <s_m_source_file>  (241) 
/var/tmp/pbs.5076255.sched01/tmpyc7t0a4i/88yk12rjyo.sdf

>  <i_m_source_file_index>  (241) 
14

>  <i_lp_mmshare_version>  (241) 
48012

>  <i_f3d_flags>  (241) 
0

>  <s_epik_input>  (241) 
W0NIMl0xT1tDSDJdW0NIMl1OKFtDSDJdW0NIMl1bQ0gzXSlbQ0BAXTEyW0NIMl1bQ0gyXWMzYyhbQ0gyXTIpYyhPW0NIM10pW2NIXVtjSF1bY0hdMw==

>  <s_epik_cmdline>  (241) 
J2VwaWtfcHl0aG9uJywgJy1waHQnLCAnMi4wJywgJy1waCcsICc3LjAnLCAnLXRuJywgJzgnLCAnLW1hJywgJzIwMCcsICctaW1hZScsICc8aW5maWxlLm1hZT4nLCAnLW9tYWUnLCAnPG91dGZpbGUubWFlPic=

>  <r_lp_tautomer_probability>  (241) 
1

>  <r_epik_Ionization_Penalty>  (241) 
0.53143

>  <r_epik_Ionization_Penalty_Charging>  (241) 
0

>  <r_epik_Ionization_Penalty_Neutral>  (241) 
0.53143

>  <r_epik_State_Penalty>  (241) 
0.540254

>  <r_epik_Charging_Adjusted_Penalty>  (241) 
0.540254

>  <i_epik_Tot_Q>  (241) 
0

>  <i_epik_Tot_abs_Q>  (241) 
0

>  <s_lp_Force_Field>  (241) 
OPLS3e

>  <r_lp_Energy>  (241) 
37.8414

>  <b_lp_Chiralities_Consistent>  (241) 
1

>  <s_lp_Variant>  (241) 
64:0-2

>  <s_i_glide_gridfile>  (241) 
pfpi4k_grid

>  <i_i_glide_lignum>  (241) 
14

>  <i_i_glide_rotatable_bonds>  (241) 
3

>  <r_i_docking_score>  (241) 
-2.84656

>  <r_i_glide_ligand_efficiency>  (241) 
-0.142328

>  <r_i_glide_ligand_efficiency_sa>  (241) 
-0.386337

>  <r_i_glide_ligand_efficiency_ln>  (241) 
-0.7124

>  <r_i_glide_gscore>  (241) 
-2.84656

>  <r_i_glide_lipo>  (241) 
-0.202964

>  <r_i_glide_hbond>  (241) 
-0.0559235

>  <r_i_glide_metal>  (241) 
-0

>  <r_i_glide_rewards>  (241) 
-1.53146

>  <r_i_glide_evdw>  (241) 
-17.0614

>  <r_i_glide_ecoul>  (241) 
-2.93426

>  <r_i_glide_erotb>  (241) 
0.236999

>  <r_i_glide_esite>  (241) 
0

>  <r_i_glide_emodel>  (241) 
-22.8186

>  <r_i_glide_energy>  (241) 
-19.9957

>  <r_i_glide_einternal>  (241) 
2.18737

>  <r_i_glide_intrahb_reward>  (241) 
-0

>  <i_i_glide_confnum>  (241) 
4

>  <i_i_glide_posenum>  (241) 
25

>  <r_i_glide_eff_state_penalty>  (241) 
0

>  <ligand_id>  (241) 
64

>  <original_smiles>  (241) 
CCCN1CCOCC12CCc1cccc(OC)c1C2

>  <smiles>  (241) 
[H]c1c([H])c(OC([H])([H])[H])c2c(c1[H])C([H])([H])C([H])([H])C1(N(C([H])([H])C([H])([H])C([H])([H])[H])C([H])([H])C([H])([H])OC1([H])[H])C2([H])[H]

$$$$
65:0:0
     RDKit          3D

 47 50  0  0  1  0  0  0  0  0999 V2000
    0.3041  -10.5810    2.7616 C   0  0  0  0  0  0  0  0  0  0  0  0
    0.6831   -9.1107    2.6859 C   0  0  0  0  0  0  0  0  0  0  0  0
    2.0403   -8.7488    2.4977 C   0  0  0  0  0  0  0  0  0  0  0  0
    2.3171   -7.3744    2.4250 C   0  0  0  0  0  0  0  0  0  0  0  0
    1.2966   -6.4539    2.5344 C   0  0  0  0  0  0  0  0  0  0  0  0
   -0.0077   -6.7531    2.6778 N   0  0  0  0  0  0  0  0  0  0  0  0
   -0.3031   -8.0778    2.7691 C   0  0  0  0  0  0  0  0  0  0  0  0
   -1.7803   -8.3783    2.9585 C   0  0  0  0  0  0  0  0  0  0  0  0
    1.7389   -5.1662    2.4941 O   0  0  0  0  0  0  0  0  0  0  0  0
    3.1712   -5.2126    2.6922 C   0  0  1  0  0  0  0  0  0  0  0  0
    3.6068   -6.6391    2.2132 C   0  0  2  0  0  0  0  0  0  0  0  0
    3.9896   -6.6864    0.7213 C   0  0  0  0  0  0  0  0  0  0  0  0
    4.9282   -5.5531    0.3132 C   0  0  0  0  0  0  0  0  0  0  0  0
    4.3330   -4.1992    0.6500 C   0  0  0  0  0  0  0  0  0  0  0  0
    4.1561   -3.2500   -0.2881 C   0  0  0  0  0  0  0  0  0  0  0  0
    3.6335   -1.8535   -0.0120 C   0  0  0  0  0  0  0  0  0  0  0  0
    3.6258   -1.4982    1.4873 C   0  0  1  0  0  0  0  0  0  0  0  0
    2.8415   -0.2016    1.7870 C   0  0  0  0  0  0  0  0  0  0  0  0
    1.4441   -0.3943    1.6847 O   0  0  0  0  0  0  0  0  0  0  0  0
    3.1364   -2.6949    2.3234 C   0  0  0  0  0  0  0  0  0  0  0  0
    3.9684   -3.9895    2.1206 C   0  0  1  0  0  0  0  0  0  0  0  0
    5.2931   -3.8322    2.9157 C   0  0  0  0  0  0  0  0  0  0  0  0
    1.1782  -11.2235    2.6711 H   0  0  0  0  0  0  0  0  0  0  0  0
   -0.3694  -10.8353    1.9448 H   0  0  0  0  0  0  0  0  0  0  0  0
   -0.1801  -10.8179    3.7089 H   0  0  0  0  0  0  0  0  0  0  0  0
    2.8204   -9.4905    2.4115 H   0  0  0  0  0  0  0  0  0  0  0  0
   -2.0104   -9.4430    2.9990 H   0  0  0  0  0  0  0  0  0  0  0  0
   -2.3547   -7.9536    2.1352 H   0  0  0  0  0  0  0  0  0  0  0  0
   -2.1432   -7.9344    3.8868 H   0  0  0  0  0  0  0  0  0  0  0  0
    3.2669   -5.1866    3.7798 H   0  0  0  0  0  0  0  0  0  0  0  0
    4.4112   -7.0308    2.8358 H   0  0  0  0  0  0  0  0  0  0  0  0
    4.4139   -7.6589    0.4652 H   0  0  0  0  0  0  0  0  0  0  0  0
    3.0911   -6.5787    0.1154 H   0  0  0  0  0  0  0  0  0  0  0  0
    5.8842   -5.6608    0.8251 H   0  0  0  0  0  0  0  0  0  0  0  0
    5.1362   -5.6113   -0.7559 H   0  0  0  0  0  0  0  0  0  0  0  0
    4.3919   -3.4586   -1.3211 H   0  0  0  0  0  0  0  0  0  0  0  0
    4.2431   -1.1286   -0.5575 H   0  0  0  0  0  0  0  0  0  0  0  0
    2.6250   -1.8089   -0.4227 H   0  0  0  0  0  0  0  0  0  0  0  0
    4.6610   -1.2942    1.7659 H   0  0  0  0  0  0  0  0  0  0  0  0
    3.0582    0.1335    2.8025 H   0  0  0  0  0  0  0  0  0  0  0  0
    3.1520    0.6074    1.1216 H   0  0  0  0  0  0  0  0  0  0  0  0
    1.2288   -0.5899    0.7570 H   0  0  0  0  0  0  0  0  0  0  0  0
    3.0884   -2.4257    3.3782 H   0  0  0  0  0  0  0  0  0  0  0  0
    2.1094   -2.8845    2.0148 H   0  0  0  0  0  0  0  0  0  0  0  0
    5.1173   -3.5262    3.9491 H   0  0  0  0  0  0  0  0  0  0  0  0
    5.9342   -3.0721    2.4625 H   0  0  0  0  0  0  0  0  0  0  0  0
    5.8721   -4.7570    2.9420 H   0  0  0  0  0  0  0  0  0  0  0  0
  1  2  1  0
  1 23  1  0
  1 24  1  0
  1 25  1  0
  2  7  2  0
  2  3  1  0
  3  4  2  0
  3 26  1  0
  4 11  1  0
  4  5  1  0
  5  6  2  0
  5  9  1  0
  6  7  1  0
  7  8  1  0
  8 27  1  0
  8 28  1  0
  8 29  1  0
  9 10  1  0
 10 21  1  0
 10 11  1  0
 10 30  1  1
 11 12  1  0
 11 31  1  1
 12 13  1  0
 12 32  1  0
 12 33  1  0
 13 14  1  0
 13 34  1  0
 13 35  1  0
 14 21  1  0
 14 15  2  0
 15 16  1  0
 15 36  1  0
 16 17  1  0
 16 37  1  0
 16 38  1  0
 17 18  1  0
 17 20  1  0
 17 39  1  1
 18 19  1  0
 18 40  1  0
 18 41  1  0
 19 42  1  0
 20 21  1  0
 20 43  1  0
 20 44  1  0
 21 22  1  1
 22 45  1  0
 22 46  1  0
 22 47  1  0
M  END
>  <i_m_ct_stereo_status>  (242) 
1

>  <s_m_source_file>  (242) 
/var/tmp/pbs.5076255.sched01/tmpyc7t0a4i/88yk12rjyo.sdf

>  <i_m_source_file_index>  (242) 
15

>  <i_lp_mmshare_version>  (242) 
48012

>  <i_f3d_flags>  (242) 
0

>  <s_epik_input>  (242) 
W0NIM11jKFtjSF0xKWMoW0NIM10pbmMoTzIpYzFbQ0BIXShbQ0BIXTJbQ0BAXTM0W0NIM10pW0NIMl1bQ0gyXUMzPVtDSF1bQ0gyXVtDQEhdKFtDSDJdNClbQ0gyXVtPSF0=

>  <s_epik_cmdline>  (242) 
J2VwaWtfcHl0aG9uJywgJy1waHQnLCAnMi4wJywgJy1waCcsICc3LjAnLCAnLXRuJywgJzgnLCAnLW1hJywgJzIwMCcsICctaW1hZScsICc8aW5maWxlLm1hZT4nLCAnLW9tYWUnLCAnPG91dGZpbGUubWFlPic=

>  <r_lp_tautomer_probability>  (242) 
1

>  <r_epik_Ionization_Penalty>  (242) 
0.00240665

>  <r_epik_Ionization_Penalty_Charging>  (242) 
0

>  <r_epik_Ionization_Penalty_Neutral>  (242) 
0.00240665

>  <r_epik_State_Penalty>  (242) 
0.00166429

>  <r_epik_Charging_Adjusted_Penalty>  (242) 
0.00166429

>  <i_epik_Tot_Q>  (242) 
0

>  <i_epik_Tot_abs_Q>  (242) 
0

>  <s_lp_Force_Field>  (242) 
OPLS3e

>  <r_lp_Energy>  (242) 
23.9873

>  <b_lp_Chiralities_Consistent>  (242) 
1

>  <s_lp_Variant>  (242) 
65:0-1

>  <s_i_glide_gridfile>  (242) 
pfpi4k_grid

>  <i_i_glide_lignum>  (242) 
15

>  <i_i_glide_rotatable_bonds>  (242) 
2

>  <r_i_docking_score>  (242) 
-3.74631

>  <r_i_glide_ligand_efficiency>  (242) 
-0.170287

>  <r_i_glide_ligand_efficiency_sa>  (242) 
-0.477151

>  <r_i_glide_ligand_efficiency_ln>  (242) 
-0.915735

>  <r_i_glide_gscore>  (242) 
-3.74631

>  <r_i_glide_lipo>  (242) 
-0.412779

>  <r_i_glide_hbond>  (242) 
-0.27021

>  <r_i_glide_metal>  (242) 
-0

>  <r_i_glide_rewards>  (242) 
-1.36768

>  <r_i_glide_evdw>  (242) 
-21.1432

>  <r_i_glide_ecoul>  (242) 
-5.62241

>  <r_i_glide_erotb>  (242) 
0.204874

>  <r_i_glide_esite>  (242) 
0

>  <r_i_glide_emodel>  (242) 
-33.7059

>  <r_i_glide_energy>  (242) 
-26.7656

>  <r_i_glide_einternal>  (242) 
1.83726

>  <r_i_glide_intrahb_reward>  (242) 
-0

>  <i_i_glide_confnum>  (242) 
3

>  <i_i_glide_posenum>  (242) 
28

>  <r_i_glide_eff_state_penalty>  (242) 
0

>  <ligand_id>  (242) 
65

>  <original_smiles>  (242) 
Cc1cc2c(nc1C)OC1C2CCC2=CCC(CO)CC21C

>  <smiles>  (242) 
[H]OC([H])([H])C1([H])C([H])([H])C([H])=C2C([H])([H])C([H])([H])C3([H])c4c(nc(C([H])([H])[H])c(C([H])([H])[H])c4[H])OC3([H])C2(C([H])([H])[H])C1([H])[H]

$$$$
65:0:1
     RDKit          3D

 47 50  0  0  1  0  0  0  0  0999 V2000
   -0.2243   -8.9959    5.2992 C   0  0  0  0  0  0  0  0  0  0  0  0
    0.2711   -8.0255    4.2381 C   0  0  0  0  0  0  0  0  0  0  0  0
    1.3897   -7.2023    4.5174 C   0  0  0  0  0  0  0  0  0  0  0  0
    1.8134   -6.3489    3.4867 C   0  0  0  0  0  0  0  0  0  0  0  0
    1.1482   -6.3454    2.2808 C   0  0  0  0  0  0  0  0  0  0  0  0
    0.0644   -7.0782    1.9857 N   0  0  0  0  0  0  0  0  0  0  0  0
   -0.3500   -7.9371    2.9539 C   0  0  0  0  0  0  0  0  0  0  0  0
   -1.5335   -8.8021    2.5507 C   0  0  0  0  0  0  0  0  0  0  0  0
    1.6764   -5.4551    1.3928 O   0  0  0  0  0  0  0  0  0  0  0  0
    2.4956   -4.5459    2.1648 C   0  0  1  0  0  0  0  0  0  0  0  0
    2.9524   -5.3770    3.4099 C   0  0  2  0  0  0  0  0  0  0  0  0
    4.2699   -6.1397    3.1739 C   0  0  0  0  0  0  0  0  0  0  0  0
    5.3535   -5.2631    2.5482 C   0  0  0  0  0  0  0  0  0  0  0  0
    4.8757   -4.6421    1.2486 C   0  0  0  0  0  0  0  0  0  0  0  0
    5.5376   -4.8137    0.0912 C   0  0  0  0  0  0  0  0  0  0  0  0
    5.1594   -4.1595   -1.2265 C   0  0  0  0  0  0  0  0  0  0  0  0
    4.1459   -3.0082   -1.0572 C   0  0  1  0  0  0  0  0  0  0  0  0
    3.5383   -2.5764   -2.4071 C   0  0  0  0  0  0  0  0  0  0  0  0
    3.0215   -1.2642   -2.3236 O   0  0  0  0  0  0  0  0  0  0  0  0
    3.0558   -3.4217   -0.0534 C   0  0  0  0  0  0  0  0  0  0  0  0
    3.6051   -3.7972    1.3517 C   0  0  1  0  0  0  0  0  0  0  0  0
    3.9754   -2.4788    2.0852 C   0  0  0  0  0  0  0  0  0  0  0  0
    0.3620   -8.9255    6.2149 H   0  0  0  0  0  0  0  0  0  0  0  0
   -0.1597  -10.0246    4.9466 H   0  0  0  0  0  0  0  0  0  0  0  0
   -1.2628   -8.7916    5.5534 H   0  0  0  0  0  0  0  0  0  0  0  0
    1.8967   -7.2260    5.4716 H   0  0  0  0  0  0  0  0  0  0  0  0
   -1.8570   -9.4786    3.3363 H   0  0  0  0  0  0  0  0  0  0  0  0
   -1.2853   -9.4120    1.6814 H   0  0  0  0  0  0  0  0  0  0  0  0
   -2.3872   -8.1780    2.2899 H   0  0  0  0  0  0  0  0  0  0  0  0
    1.7889   -3.7910    2.5147 H   0  0  0  0  0  0  0  0  0  0  0  0
    3.0141   -4.7502    4.2986 H   0  0  0  0  0  0  0  0  0  0  0  0
    4.6176   -6.5910    4.1041 H   0  0  0  0  0  0  0  0  0  0  0  0
    4.0884   -6.9688    2.4885 H   0  0  0  0  0  0  0  0  0  0  0  0
    5.6338   -4.4698    3.2399 H   0  0  0  0  0  0  0  0  0  0  0  0
    6.2529   -5.8523    2.3705 H   0  0  0  0  0  0  0  0  0  0  0  0
    6.4127   -5.4459    0.0659 H   0  0  0  0  0  0  0  0  0  0  0  0
    6.0682   -3.7802   -1.6995 H   0  0  0  0  0  0  0  0  0  0  0  0
    4.7637   -4.9344   -1.8828 H   0  0  0  0  0  0  0  0  0  0  0  0
    4.7025   -2.1609   -0.6555 H   0  0  0  0  0  0  0  0  0  0  0  0
    4.3020   -2.5752   -3.1862 H   0  0  0  0  0  0  0  0  0  0  0  0
    2.7548   -3.2631   -2.7322 H   0  0  0  0  0  0  0  0  0  0  0  0
    2.2766   -1.2394   -1.7234 H   0  0  0  0  0  0  0  0  0  0  0  0
    2.3017   -2.6417    0.0345 H   0  0  0  0  0  0  0  0  0  0  0  0
    2.5500   -4.2802   -0.4920 H   0  0  0  0  0  0  0  0  0  0  0  0
    3.1601   -1.7531    2.0629 H   0  0  0  0  0  0  0  0  0  0  0  0
    4.8397   -1.9979    1.6204 H   0  0  0  0  0  0  0  0  0  0  0  0
    4.2376   -2.6451    3.1310 H   0  0  0  0  0  0  0  0  0  0  0  0
  1  2  1  0
  1 23  1  0
  1 24  1  0
  1 25  1  0
  2  7  2  0
  2  3  1  0
  3  4  2  0
  3 26  1  0
  4 11  1  0
  4  5  1  0
  5  6  2  0
  5  9  1  0
  6  7  1  0
  7  8  1  0
  8 27  1  0
  8 28  1  0
  8 29  1  0
  9 10  1  0
 10 21  1  0
 10 11  1  0
 10 30  1  1
 11 12  1  0
 11 31  1  1
 12 13  1  0
 12 32  1  0
 12 33  1  0
 13 14  1  0
 13 34  1  0
 13 35  1  0
 14 21  1  0
 14 15  2  0
 15 16  1  0
 15 36  1  0
 16 17  1  0
 16 37  1  0
 16 38  1  0
 17 18  1  0
 17 20  1  0
 17 39  1  1
 18 19  1  0
 18 40  1  0
 18 41  1  0
 19 42  1  0
 20 21  1  0
 20 43  1  0
 20 44  1  0
 21 22  1  1
 22 45  1  0
 22 46  1  0
 22 47  1  0
M  END
>  <i_m_ct_stereo_status>  (243) 
1

>  <s_m_source_file>  (243) 
/var/tmp/pbs.5076255.sched01/tmpyc7t0a4i/88yk12rjyo.sdf

>  <i_m_source_file_index>  (243) 
15

>  <i_lp_mmshare_version>  (243) 
48012

>  <i_f3d_flags>  (243) 
0

>  <s_epik_input>  (243) 
W0NIM11jKFtjSF0xKWMoW0NIM10pbmMoTzIpYzFbQ0BIXShbQ0BIXTJbQ0BAXTM0W0NIM10pW0NIMl1bQ0gyXUMzPVtDSF1bQ0gyXVtDQEhdKFtDSDJdNClbQ0gyXVtPSF0=

>  <s_epik_cmdline>  (243) 
J2VwaWtfcHl0aG9uJywgJy1waHQnLCAnMi4wJywgJy1waCcsICc3LjAnLCAnLXRuJywgJzgnLCAnLW1hJywgJzIwMCcsICctaW1hZScsICc8aW5maWxlLm1hZT4nLCAnLW9tYWUnLCAnPG91dGZpbGUubWFlPic=

>  <r_lp_tautomer_probability>  (243) 
1

>  <r_epik_Ionization_Penalty>  (243) 
0.00240665

>  <r_epik_Ionization_Penalty_Charging>  (243) 
0

>  <r_epik_Ionization_Penalty_Neutral>  (243) 
0.00240665

>  <r_epik_State_Penalty>  (243) 
0.00166429

>  <r_epik_Charging_Adjusted_Penalty>  (243) 
0.00166429

>  <i_epik_Tot_Q>  (243) 
0

>  <i_epik_Tot_abs_Q>  (243) 
0

>  <s_lp_Force_Field>  (243) 
OPLS3e

>  <r_lp_Energy>  (243) 
23.9873

>  <b_lp_Chiralities_Consistent>  (243) 
1

>  <s_lp_Variant>  (243) 
65:0-1

>  <s_i_glide_gridfile>  (243) 
pfpi4k_grid

>  <i_i_glide_lignum>  (243) 
15

>  <i_i_glide_rotatable_bonds>  (243) 
2

>  <r_i_docking_score>  (243) 
-3.6144

>  <r_i_glide_ligand_efficiency>  (243) 
-0.164291

>  <r_i_glide_ligand_efficiency_sa>  (243) 
-0.46035

>  <r_i_glide_ligand_efficiency_ln>  (243) 
-0.883492

>  <r_i_glide_gscore>  (243) 
-3.6144

>  <r_i_glide_lipo>  (243) 
-0.227097

>  <r_i_glide_hbond>  (243) 
-0.259976

>  <r_i_glide_metal>  (243) 
-0

>  <r_i_glide_rewards>  (243) 
-1.36768

>  <r_i_glide_evdw>  (243) 
-20.6266

>  <r_i_glide_ecoul>  (243) 
-6.2213

>  <r_i_glide_erotb>  (243) 
0.204874

>  <r_i_glide_esite>  (243) 
0

>  <r_i_glide_emodel>  (243) 
-34.1406

>  <r_i_glide_energy>  (243) 
-26.8479

>  <r_i_glide_einternal>  (243) 
0.524621

>  <r_i_glide_intrahb_reward>  (243) 
-0

>  <i_i_glide_confnum>  (243) 
3

>  <i_i_glide_posenum>  (243) 
11

>  <r_i_glide_eff_state_penalty>  (243) 
0

>  <ligand_id>  (243) 
65

>  <original_smiles>  (243) 
Cc1cc2c(nc1C)OC1C2CCC2=CCC(CO)CC21C

>  <smiles>  (243) 
[H]OC([H])([H])C1([H])C([H])([H])C([H])=C2C([H])([H])C([H])([H])C3([H])c4c(nc(C([H])([H])[H])c(C([H])([H])[H])c4[H])OC3([H])C2(C([H])([H])[H])C1([H])[H]

$$$$
65:0:2
     RDKit          3D

 47 50  0  0  1  0  0  0  0  0999 V2000
    0.6062  -10.6619    3.0676 C   0  0  0  0  0  0  0  0  0  0  0  0
    0.9993   -9.2131    2.8257 C   0  0  0  0  0  0  0  0  0  0  0  0
    2.3577   -8.8324    2.9259 C   0  0  0  0  0  0  0  0  0  0  0  0
    2.6546   -7.4829    2.6723 C   0  0  0  0  0  0  0  0  0  0  0  0
    1.6431   -6.6044    2.3475 C   0  0  0  0  0  0  0  0  0  0  0  0
    0.3418   -6.9232    2.2252 N   0  0  0  0  0  0  0  0  0  0  0  0
    0.0330   -8.2245    2.4730 C   0  0  0  0  0  0  0  0  0  0  0  0
   -1.4422   -8.5528    2.3175 C   0  0  0  0  0  0  0  0  0  0  0  0
    2.0879   -5.3220    2.1806 O   0  0  0  0  0  0  0  0  0  0  0  0
    3.4162   -5.2784    2.7429 C   0  0  1  0  0  0  0  0  0  0  0  0
    3.9552   -6.7456    2.6657 C   0  0  2  0  0  0  0  0  0  0  0  0
    4.7179   -7.0509    1.3614 C   0  0  0  0  0  0  0  0  0  0  0  0
    5.7380   -5.9686    1.0139 C   0  0  0  0  0  0  0  0  0  0  0  0
    5.0797   -4.6043    0.9186 C   0  0  0  0  0  0  0  0  0  0  0  0
    5.1612   -3.8442   -0.1909 C   0  0  0  0  0  0  0  0  0  0  0  0
    4.5961   -2.4402   -0.3162 C   0  0  0  0  0  0  0  0  0  0  0  0
    4.2258   -1.8211    1.0479 C   0  0  1  0  0  0  0  0  0  0  0  0
    3.3876   -0.5404    0.8795 C   0  0  0  0  0  0  0  0  0  0  0  0
    3.2772    0.1434    2.1084 O   0  0  0  0  0  0  0  0  0  0  0  0
    3.4998   -2.8697    1.9111 C   0  0  0  0  0  0  0  0  0  0  0  0
    4.3412   -4.1476    2.1815 C   0  0  1  0  0  0  0  0  0  0  0  0
    5.4077   -3.7934    3.2489 C   0  0  0  0  0  0  0  0  0  0  0  0
    1.4685  -11.2777    3.3207 H   0  0  0  0  0  0  0  0  0  0  0  0
    0.1579  -11.0857    2.1692 H   0  0  0  0  0  0  0  0  0  0  0  0
   -0.1092  -10.7434    3.8870 H   0  0  0  0  0  0  0  0  0  0  0  0
    3.1312   -9.5393    3.1857 H   0  0  0  0  0  0  0  0  0  0  0  0
   -1.6803   -9.6010    2.4886 H   0  0  0  0  0  0  0  0  0  0  0  0
   -1.7549   -8.3188    1.3022 H   0  0  0  0  0  0  0  0  0  0  0  0
   -2.0421   -7.9592    3.0087 H   0  0  0  0  0  0  0  0  0  0  0  0
    3.2313   -5.0502    3.7939 H   0  0  0  0  0  0  0  0  0  0  0  0
    4.5633   -6.9853    3.5385 H   0  0  0  0  0  0  0  0  0  0  0  0
    5.1898   -8.0335    1.4169 H   0  0  0  0  0  0  0  0  0  0  0  0
    4.0095   -7.1071    0.5343 H   0  0  0  0  0  0  0  0  0  0  0  0
    6.5227   -5.9385    1.7684 H   0  0  0  0  0  0  0  0  0  0  0  0
    6.2299   -6.2083    0.0757 H   0  0  0  0  0  0  0  0  0  0  0  0
    5.6660   -4.2211   -1.0676 H   0  0  0  0  0  0  0  0  0  0  0  0
    5.3371   -1.8086   -0.8109 H   0  0  0  0  0  0  0  0  0  0  0  0
    3.7234   -2.4877   -0.9706 H   0  0  0  0  0  0  0  0  0  0  0  0
    5.1540   -1.5308    1.5397 H   0  0  0  0  0  0  0  0  0  0  0  0
    3.8504    0.1334    0.1581 H   0  0  0  0  0  0  0  0  0  0  0  0
    2.3912   -0.7761    0.5125 H   0  0  0  0  0  0  0  0  0  0  0  0
    2.7188    0.8988    1.9834 H   0  0  0  0  0  0  0  0  0  0  0  0
    3.1794   -2.4307    2.8557 H   0  0  0  0  0  0  0  0  0  0  0  0
    2.5882   -3.1315    1.3769 H   0  0  0  0  0  0  0  0  0  0  0  0
    4.9692   -3.3124    4.1257 H   0  0  0  0  0  0  0  0  0  0  0  0
    6.1430   -3.1021    2.8365 H   0  0  0  0  0  0  0  0  0  0  0  0
    5.9510   -4.6729    3.5937 H   0  0  0  0  0  0  0  0  0  0  0  0
  1  2  1  0
  1 23  1  0
  1 24  1  0
  1 25  1  0
  2  7  2  0
  2  3  1  0
  3  4  2  0
  3 26  1  0
  4 11  1  0
  4  5  1  0
  5  6  2  0
  5  9  1  0
  6  7  1  0
  7  8  1  0
  8 27  1  0
  8 28  1  0
  8 29  1  0
  9 10  1  0
 10 21  1  0
 10 11  1  0
 10 30  1  1
 11 12  1  0
 11 31  1  1
 12 13  1  0
 12 32  1  0
 12 33  1  0
 13 14  1  0
 13 34  1  0
 13 35  1  0
 14 21  1  0
 14 15  2  0
 15 16  1  0
 15 36  1  0
 16 17  1  0
 16 37  1  0
 16 38  1  0
 17 18  1  0
 17 20  1  0
 17 39  1  1
 18 19  1  0
 18 40  1  0
 18 41  1  0
 19 42  1  0
 20 21  1  0
 20 43  1  0
 20 44  1  0
 21 22  1  1
 22 45  1  0
 22 46  1  0
 22 47  1  0
M  END
>  <i_m_ct_stereo_status>  (244) 
1

>  <s_m_source_file>  (244) 
/var/tmp/pbs.5076255.sched01/tmpyc7t0a4i/88yk12rjyo.sdf

>  <i_m_source_file_index>  (244) 
15

>  <i_lp_mmshare_version>  (244) 
48012

>  <i_f3d_flags>  (244) 
0

>  <s_epik_input>  (244) 
W0NIM11jKFtjSF0xKWMoW0NIM10pbmMoTzIpYzFbQ0BIXShbQ0BIXTJbQ0BAXTM0W0NIM10pW0NIMl1bQ0gyXUMzPVtDSF1bQ0gyXVtDQEhdKFtDSDJdNClbQ0gyXVtPSF0=

>  <s_epik_cmdline>  (244) 
J2VwaWtfcHl0aG9uJywgJy1waHQnLCAnMi4wJywgJy1waCcsICc3LjAnLCAnLXRuJywgJzgnLCAnLW1hJywgJzIwMCcsICctaW1hZScsICc8aW5maWxlLm1hZT4nLCAnLW9tYWUnLCAnPG91dGZpbGUubWFlPic=

>  <r_lp_tautomer_probability>  (244) 
1

>  <r_epik_Ionization_Penalty>  (244) 
0.00240665

>  <r_epik_Ionization_Penalty_Charging>  (244) 
0

>  <r_epik_Ionization_Penalty_Neutral>  (244) 
0.00240665

>  <r_epik_State_Penalty>  (244) 
0.00166429

>  <r_epik_Charging_Adjusted_Penalty>  (244) 
0.00166429

>  <i_epik_Tot_Q>  (244) 
0

>  <i_epik_Tot_abs_Q>  (244) 
0

>  <s_lp_Force_Field>  (244) 
OPLS3e

>  <r_lp_Energy>  (244) 
23.9873

>  <b_lp_Chiralities_Consistent>  (244) 
1

>  <s_lp_Variant>  (244) 
65:0-1

>  <s_i_glide_gridfile>  (244) 
pfpi4k_grid

>  <i_i_glide_lignum>  (244) 
15

>  <i_i_glide_rotatable_bonds>  (244) 
2

>  <r_i_docking_score>  (244) 
-3.03759

>  <r_i_glide_ligand_efficiency>  (244) 
-0.138072

>  <r_i_glide_ligand_efficiency_sa>  (244) 
-0.386884

>  <r_i_glide_ligand_efficiency_ln>  (244) 
-0.742499

>  <r_i_glide_gscore>  (244) 
-3.03759

>  <r_i_glide_lipo>  (244) 
-0.478424

>  <r_i_glide_hbond>  (244) 
0

>  <r_i_glide_metal>  (244) 
-0

>  <r_i_glide_rewards>  (244) 
-1.36768

>  <r_i_glide_evdw>  (244) 
-20.7905

>  <r_i_glide_ecoul>  (244) 
-2.37893

>  <r_i_glide_erotb>  (244) 
0.204874

>  <r_i_glide_esite>  (244) 
0

>  <r_i_glide_emodel>  (244) 
-29.3775

>  <r_i_glide_energy>  (244) 
-23.1695

>  <r_i_glide_einternal>  (244) 
0.4326

>  <r_i_glide_intrahb_reward>  (244) 
-0

>  <i_i_glide_confnum>  (244) 
3

>  <i_i_glide_posenum>  (244) 
6

>  <r_i_glide_eff_state_penalty>  (244) 
0

>  <ligand_id>  (244) 
65

>  <original_smiles>  (244) 
Cc1cc2c(nc1C)OC1C2CCC2=CCC(CO)CC21C

>  <smiles>  (244) 
[H]OC([H])([H])C1([H])C([H])([H])C([H])=C2C([H])([H])C([H])([H])C3([H])c4c(nc(C([H])([H])[H])c(C([H])([H])[H])c4[H])OC3([H])C2(C([H])([H])[H])C1([H])[H]

$$$$
67:0:0
     RDKit          3D

 41 44  0  0  1  0  0  0  0  0999 V2000
    2.9811   -2.9927   -3.7867 C   0  0  0  0  0  0  0  0  0  0  0  0
    3.9896   -2.4333   -2.7622 C   0  0  0  0  0  0  0  0  0  0  0  0
    4.5406   -1.1672   -3.4363 C   0  0  0  0  0  0  0  0  0  0  0  0
    3.2304   -2.1014   -1.4052 C   0  0  2  0  0  0  0  0  0  0  0  0
    4.0552   -1.2561   -0.4218 C   0  0  0  0  0  0  0  0  0  0  0  0
    5.1579   -2.3144   -0.3896 C   0  0  1  0  0  0  0  0  0  0  0  0
    6.3561   -2.5316    0.4324 C   0  0  1  0  0  0  0  0  0  0  0  0
    5.7588   -3.3643    1.5962 C   0  0  0  0  0  0  0  0  0  0  0  0
    6.3842   -4.3141    2.0718 O   0  0  0  0  0  0  0  0  0  0  0  0
    4.2644   -3.1077    2.0175 C   0  0  0  0  0  0  0  0  0  0  0  0
    3.0483   -3.4609    1.0195 C   0  0  0  0  0  0  0  0  0  0  0  0
    3.1646   -3.4115   -0.5917 C   0  0  1  0  0  0  0  0  0  0  0  0
    2.1446   -4.2517   -1.0982 O   0  0  0  0  0  0  0  0  0  0  0  0
    4.5700   -3.7321   -0.9426 C   0  0  2  0  0  0  0  0  0  0  0  0
    4.8968   -5.2091   -0.4695 C   0  0  0  0  0  0  0  0  0  0  0  0
    5.0490   -3.5477   -2.3549 C   0  0  2  0  0  0  0  0  0  0  0  0
    6.6642   -3.3506   -2.1799 C   0  0  0  0  0  0  0  0  0  0  0  0
    7.2355   -3.2598   -0.6686 C   0  0  0  0  0  0  0  0  0  0  0  0
    8.3366   -3.7456   -0.3773 O   0  0  0  0  0  0  0  0  0  0  0  0
    2.1551   -2.2999   -3.9457 H   0  0  0  0  0  0  0  0  0  0  0  0
    2.5473   -3.9445   -3.4995 H   0  0  0  0  0  0  0  0  0  0  0  0
    3.4631   -3.1537   -4.7494 H   0  0  0  0  0  0  0  0  0  0  0  0
    5.3085   -0.6621   -2.8626 H   0  0  0  0  0  0  0  0  0  0  0  0
    3.7578   -0.4319   -3.6266 H   0  0  0  0  0  0  0  0  0  0  0  0
    4.9576   -1.4326   -4.4063 H   0  0  0  0  0  0  0  0  0  0  0  0
    2.2653   -1.7226   -1.7133 H   0  0  0  0  0  0  0  0  0  0  0  0
    4.3402   -0.2736   -0.8105 H   0  0  0  0  0  0  0  0  0  0  0  0
    3.5550   -1.0702    0.5199 H   0  0  0  0  0  0  0  0  0  0  0  0
    5.6606   -1.6386   -1.0848 H   0  0  0  0  0  0  0  0  0  0  0  0
    6.8180   -1.6004    0.7780 H   0  0  0  0  0  0  0  0  0  0  0  0
    4.0981   -3.6812    2.9213 H   0  0  0  0  0  0  0  0  0  0  0  0
    4.1820   -2.0660    2.3230 H   0  0  0  0  0  0  0  0  0  0  0  0
    2.7585   -4.4789    1.2703 H   0  0  0  0  0  0  0  0  0  0  0  0
    2.1813   -2.8639    1.3102 H   0  0  0  0  0  0  0  0  0  0  0  0
    2.5274   -4.8323   -1.7412 H   0  0  0  0  0  0  0  0  0  0  0  0
    4.3084   -5.9229   -1.0304 H   0  0  0  0  0  0  0  0  0  0  0  0
    4.6803   -5.4399    0.5722 H   0  0  0  0  0  0  0  0  0  0  0  0
    5.9252   -5.5080   -0.6400 H   0  0  0  0  0  0  0  0  0  0  0  0
    4.8608   -4.4398   -2.9508 H   0  0  0  0  0  0  0  0  0  0  0  0
    7.1442   -4.1416   -2.7224 H   0  0  0  0  0  0  0  0  0  0  0  0
    6.9891   -2.4540   -2.7098 H   0  0  0  0  0  0  0  0  0  0  0  0
  1  2  1  0
  1 20  1  0
  1 21  1  0
  1 22  1  0
  2 16  1  0
  2  3  1  0
  2  4  1  0
  3 23  1  0
  3 24  1  0
  3 25  1  0
  4 12  1  0
  4  5  1  0
  4 26  1  6
  5  6  1  0
  5 27  1  0
  5 28  1  0
  6 14  1  0
  6  7  1  0
  6 29  1  6
  7 18  1  0
  7  8  1  0
  7 30  1  1
  8  9  2  0
  8 10  1  0
 10 11  1  0
 10 31  1  0
 10 32  1  0
 11 12  1  0
 11 33  1  0
 11 34  1  0
 12 13  1  6
 12 14  1  0
 13 35  1  0
 14 15  1  1
 14 16  1  0
 15 36  1  0
 15 37  1  0
 15 38  1  0
 16 17  1  0
 16 39  1  6
 17 18  1  0
 17 40  1  0
 17 41  1  0
 18 19  2  0
M  END
>  <i_m_ct_stereo_status>  (245) 
1

>  <s_m_source_file>  (245) 
/var/tmp/pbs.5076255.sched01/tmpyc7t0a4i/88yk12rjyo.sdf

>  <i_m_source_file_index>  (245) 
17

>  <i_lp_mmshare_version>  (245) 
48012

>  <i_f3d_flags>  (245) 
0

>  <s_epik_input>  (245) 
W09IXVtDQEBdMTJbQ0BASF0zQyhbQ0gzXSkoW0NIM10pW0NAQEhdNFtDQEBdMihbQ0gzXSlbQ0BASF0oW0NIMl0zKVtDQEhdKEMoPU8pW0NIMl00KUMoPU8pW0NIMl1bQ0gyXTE=

>  <s_epik_cmdline>  (245) 
J2VwaWtfcHl0aG9uJywgJy1waHQnLCAnMi4wJywgJy1waCcsICc3LjAnLCAnLXRuJywgJzgnLCAnLW1hJywgJzIwMCcsICctaW1hZScsICc8aW5maWxlLm1hZT4nLCAnLW9tYWUnLCAnPG91dGZpbGUubWFlPic=

>  <r_lp_tautomer_probability>  (245) 
1

>  <r_epik_Ionization_Penalty>  (245) 
0.000413033

>  <r_epik_Ionization_Penalty_Charging>  (245) 
0

>  <r_epik_Ionization_Penalty_Neutral>  (245) 
0.000413033

>  <r_epik_State_Penalty>  (245) 
-0

>  <r_epik_Charging_Adjusted_Penalty>  (245) 
0

>  <i_epik_Tot_Q>  (245) 
0

>  <i_epik_Tot_abs_Q>  (245) 
0

>  <s_lp_Force_Field>  (245) 
OPLS3e

>  <r_lp_Energy>  (245) 
163.259

>  <b_lp_Chiralities_Consistent>  (245) 
1

>  <s_lp_Variant>  (245) 
67:0-1

>  <s_i_glide_gridfile>  (245) 
pfpi4k_grid

>  <i_i_glide_lignum>  (245) 
17

>  <i_i_glide_rotatable_bonds>  (245) 
1

>  <r_i_docking_score>  (245) 
-4.41635

>  <r_i_glide_ligand_efficiency>  (245) 
-0.232439

>  <r_i_glide_ligand_efficiency_sa>  (245) 
-0.620241

>  <r_i_glide_ligand_efficiency_ln>  (245) 
-1.11964

>  <r_i_glide_gscore>  (245) 
-4.41635

>  <r_i_glide_lipo>  (245) 
-0.688815

>  <r_i_glide_hbond>  (245) 
-0.32

>  <r_i_glide_metal>  (245) 
-0

>  <r_i_glide_rewards>  (245) 
-1.89792

>  <r_i_glide_evdw>  (245) 
-11.0858

>  <r_i_glide_ecoul>  (245) 
-6.36881

>  <r_i_glide_erotb>  (245) 
0

>  <r_i_glide_esite>  (245) 
0

>  <r_i_glide_emodel>  (245) 
-21.1746

>  <r_i_glide_energy>  (245) 
-17.4546

>  <r_i_glide_einternal>  (245) 
0.951227

>  <r_i_glide_intrahb_reward>  (245) 
-0

>  <i_i_glide_confnum>  (245) 
1

>  <i_i_glide_posenum>  (245) 
10

>  <r_i_glide_eff_state_penalty>  (245) 
0

>  <ligand_id>  (245) 
67

>  <original_smiles>  (245) 
CC1(C)C2CC3C4C(=O)CCC2(O)C3(C)C1CC4=O

>  <smiles>  (245) 
[H]OC12C([H])([H])C([H])([H])C(=O)C3([H])C(=O)C([H])([H])C4([H])C(C([H])([H])[H])(C([H])([H])[H])C1([H])C([H])([H])C3([H])C42C([H])([H])[H]

$$$$
67:0:1
     RDKit          3D

 41 44  0  0  1  0  0  0  0  0999 V2000
    3.1347   -2.2251   -2.7343 C   0  0  0  0  0  0  0  0  0  0  0  0
    4.2198   -2.0389   -1.6461 C   0  0  0  0  0  0  0  0  0  0  0  0
    4.9049   -0.7217   -2.0203 C   0  0  0  0  0  0  0  0  0  0  0  0
    3.5587   -2.0469   -0.1670 C   0  0  2  0  0  0  0  0  0  0  0  0
    4.5417   -1.5985    0.9027 C   0  0  0  0  0  0  0  0  0  0  0  0
    5.5309   -2.6912    0.5237 C   0  0  1  0  0  0  0  0  0  0  0  0
    6.7373   -3.2133    1.1278 C   0  0  1  0  0  0  0  0  0  0  0  0
    6.1727   -4.3099    2.0568 C   0  0  0  0  0  0  0  0  0  0  0  0
    6.8421   -5.2876    2.4061 O   0  0  0  0  0  0  0  0  0  0  0  0
    4.7366   -4.0949    2.6529 C   0  0  0  0  0  0  0  0  0  0  0  0
    3.4319   -4.0494    1.7178 C   0  0  0  0  0  0  0  0  0  0  0  0
    3.4489   -3.5395    0.2018 C   0  0  1  0  0  0  0  0  0  0  0  0
    2.3939   -4.2122   -0.4595 O   0  0  0  0  0  0  0  0  0  0  0  0
    4.8013   -3.8261   -0.3472 C   0  0  2  0  0  0  0  0  0  0  0  0
    5.0162   -5.3812   -0.3434 C   0  0  0  0  0  0  0  0  0  0  0  0
    5.2170   -3.2707   -1.6803 C   0  0  2  0  0  0  0  0  0  0  0  0
    6.8404   -3.2035   -1.6118 C   0  0  0  0  0  0  0  0  0  0  0  0
    7.5032   -3.6177   -0.1867 C   0  0  0  0  0  0  0  0  0  0  0  0
    8.5964   -4.1710   -0.1343 O   0  0  0  0  0  0  0  0  0  0  0  0
    2.3539   -1.4731   -2.6295 H   0  0  0  0  0  0  0  0  0  0  0  0
    2.6567   -3.2004   -2.7078 H   0  0  0  0  0  0  0  0  0  0  0  0
    3.5473   -2.1211   -3.7422 H   0  0  0  0  0  0  0  0  0  0  0  0
    5.7345   -0.4192   -1.3993 H   0  0  0  0  0  0  0  0  0  0  0  0
    4.2157    0.1081   -1.9911 H   0  0  0  0  0  0  0  0  0  0  0  0
    5.2456   -0.7578   -3.0470 H   0  0  0  0  0  0  0  0  0  0  0  0
    2.6337   -1.4775   -0.0812 H   0  0  0  0  0  0  0  0  0  0  0  0
    4.8870   -0.5674    0.7688 H   0  0  0  0  0  0  0  0  0  0  0  0
    4.1264   -1.6573    1.9034 H   0  0  0  0  0  0  0  0  0  0  0  0
    6.0360   -1.8765    0.0173 H   0  0  0  0  0  0  0  0  0  0  0  0
    7.2870   -2.4346    1.6628 H   0  0  0  0  0  0  0  0  0  0  0  0
    4.5760   -4.8837    3.3859 H   0  0  0  0  0  0  0  0  0  0  0  0
    4.7725   -3.1771    3.2474 H   0  0  0  0  0  0  0  0  0  0  0  0
    3.0821   -5.0803    1.6850 H   0  0  0  0  0  0  0  0  0  0  0  0
    2.6393   -3.5234    2.2413 H   0  0  0  0  0  0  0  0  0  0  0  0
    2.6538   -4.3912   -1.3582 H   0  0  0  0  0  0  0  0  0  0  0  0
    4.3940   -5.8329   -1.0999 H   0  0  0  0  0  0  0  0  0  0  0  0
    4.8075   -5.9192    0.5769 H   0  0  0  0  0  0  0  0  0  0  0  0
    6.0110   -5.6666   -0.6223 H   0  0  0  0  0  0  0  0  0  0  0  0
    4.9280   -3.9469   -2.4899 H   0  0  0  0  0  0  0  0  0  0  0  0
    7.2525   -3.7815   -2.4266 H   0  0  0  0  0  0  0  0  0  0  0  0
    7.2126   -2.2199   -1.8760 H   0  0  0  0  0  0  0  0  0  0  0  0
  1  2  1  0
  1 20  1  0
  1 21  1  0
  1 22  1  0
  2 16  1  0
  2  3  1  0
  2  4  1  0
  3 23  1  0
  3 24  1  0
  3 25  1  0
  4 12  1  0
  4  5  1  0
  4 26  1  6
  5  6  1  0
  5 27  1  0
  5 28  1  0
  6 14  1  0
  6  7  1  0
  6 29  1  6
  7 18  1  0
  7  8  1  0
  7 30  1  1
  8  9  2  0
  8 10  1  0
 10 11  1  0
 10 31  1  0
 10 32  1  0
 11 12  1  0
 11 33  1  0
 11 34  1  0
 12 13  1  6
 12 14  1  0
 13 35  1  0
 14 15  1  1
 14 16  1  0
 15 36  1  0
 15 37  1  0
 15 38  1  0
 16 17  1  0
 16 39  1  6
 17 18  1  0
 17 40  1  0
 17 41  1  0
 18 19  2  0
M  END
>  <i_m_ct_stereo_status>  (246) 
1

>  <s_m_source_file>  (246) 
/var/tmp/pbs.5076255.sched01/tmpyc7t0a4i/88yk12rjyo.sdf

>  <i_m_source_file_index>  (246) 
17

>  <i_lp_mmshare_version>  (246) 
48012

>  <i_f3d_flags>  (246) 
0

>  <s_epik_input>  (246) 
W09IXVtDQEBdMTJbQ0BASF0zQyhbQ0gzXSkoW0NIM10pW0NAQEhdNFtDQEBdMihbQ0gzXSlbQ0BASF0oW0NIMl0zKVtDQEhdKEMoPU8pW0NIMl00KUMoPU8pW0NIMl1bQ0gyXTE=

>  <s_epik_cmdline>  (246) 
J2VwaWtfcHl0aG9uJywgJy1waHQnLCAnMi4wJywgJy1waCcsICc3LjAnLCAnLXRuJywgJzgnLCAnLW1hJywgJzIwMCcsICctaW1hZScsICc8aW5maWxlLm1hZT4nLCAnLW9tYWUnLCAnPG91dGZpbGUubWFlPic=

>  <r_lp_tautomer_probability>  (246) 
1

>  <r_epik_Ionization_Penalty>  (246) 
0.000413033

>  <r_epik_Ionization_Penalty_Charging>  (246) 
0

>  <r_epik_Ionization_Penalty_Neutral>  (246) 
0.000413033

>  <r_epik_State_Penalty>  (246) 
-0

>  <r_epik_Charging_Adjusted_Penalty>  (246) 
0

>  <i_epik_Tot_Q>  (246) 
0

>  <i_epik_Tot_abs_Q>  (246) 
0

>  <s_lp_Force_Field>  (246) 
OPLS3e

>  <r_lp_Energy>  (246) 
163.259

>  <b_lp_Chiralities_Consistent>  (246) 
1

>  <s_lp_Variant>  (246) 
67:0-1

>  <s_i_glide_gridfile>  (246) 
pfpi4k_grid

>  <i_i_glide_lignum>  (246) 
17

>  <i_i_glide_rotatable_bonds>  (246) 
1

>  <r_i_docking_score>  (246) 
-3.73377

>  <r_i_glide_ligand_efficiency>  (246) 
-0.196514

>  <r_i_glide_ligand_efficiency_sa>  (246) 
-0.524379

>  <r_i_glide_ligand_efficiency_ln>  (246) 
-0.94659

>  <r_i_glide_gscore>  (246) 
-3.73377

>  <r_i_glide_lipo>  (246) 
-0.359797

>  <r_i_glide_hbond>  (246) 
-0.173462

>  <r_i_glide_metal>  (246) 
-0

>  <r_i_glide_rewards>  (246) 
-1.8899

>  <r_i_glide_evdw>  (246) 
-16.2074

>  <r_i_glide_ecoul>  (246) 
-3.33495

>  <r_i_glide_erotb>  (246) 
0

>  <r_i_glide_esite>  (246) 
0

>  <r_i_glide_emodel>  (246) 
-22.7018

>  <r_i_glide_energy>  (246) 
-19.5423

>  <r_i_glide_einternal>  (246) 
0.671039

>  <r_i_glide_intrahb_reward>  (246) 
-0

>  <i_i_glide_confnum>  (246) 
2

>  <i_i_glide_posenum>  (246) 
32

>  <r_i_glide_eff_state_penalty>  (246) 
0

>  <ligand_id>  (246) 
67

>  <original_smiles>  (246) 
CC1(C)C2CC3C4C(=O)CCC2(O)C3(C)C1CC4=O

>  <smiles>  (246) 
[H]OC12C([H])([H])C([H])([H])C(=O)C3([H])C(=O)C([H])([H])C4([H])C(C([H])([H])[H])(C([H])([H])[H])C1([H])C([H])([H])C3([H])C42C([H])([H])[H]

$$$$
67:0:2
     RDKit          3D

 41 44  0  0  1  0  0  0  0  0999 V2000
    4.1864   -0.5296   -2.4989 C   0  0  0  0  0  0  0  0  0  0  0  0
    4.3395   -2.0253   -2.1898 C   0  0  0  0  0  0  0  0  0  0  0  0
    4.0114   -2.7265   -3.5324 C   0  0  0  0  0  0  0  0  0  0  0  0
    5.8255   -2.2879   -1.6142 C   0  0  2  0  0  0  0  0  0  0  0  0
    6.1239   -3.7635   -1.5313 C   0  0  0  0  0  0  0  0  0  0  0  0
    4.9273   -4.0579   -0.6275 C   0  0  1  0  0  0  0  0  0  0  0  0
    4.4877   -5.2154    0.1537 C   0  0  1  0  0  0  0  0  0  0  0  0
    5.2530   -5.0133    1.4834 C   0  0  0  0  0  0  0  0  0  0  0  0
    4.8331   -5.4731    2.5446 O   0  0  0  0  0  0  0  0  0  0  0  0
    6.6165   -4.2287    1.4411 C   0  0  0  0  0  0  0  0  0  0  0  0
    6.7257   -2.6895    0.9700 C   0  0  0  0  0  0  0  0  0  0  0  0
    5.7512   -2.0047   -0.0964 C   0  0  1  0  0  0  0  0  0  0  0  0
    5.7767   -0.6223    0.1680 O   0  0  0  0  0  0  0  0  0  0  0  0
    4.4305   -2.6754    0.0361 C   0  0  2  0  0  0  0  0  0  0  0  0
    3.8222   -2.3891    1.4665 C   0  0  0  0  0  0  0  0  0  0  0  0
    3.3715   -2.4163   -0.9826 C   0  0  2  0  0  0  0  0  0  0  0  0
    2.4017   -3.7222   -0.8482 C   0  0  0  0  0  0  0  0  0  0  0  0
    2.9216   -4.9395    0.0943 C   0  0  0  0  0  0  0  0  0  0  0  0
    2.1159   -5.6246    0.7221 O   0  0  0  0  0  0  0  0  0  0  0  0
    4.9722   -0.1903   -3.1610 H   0  0  0  0  0  0  0  0  0  0  0  0
    4.2306    0.0893   -1.6093 H   0  0  0  0  0  0  0  0  0  0  0  0
    3.2204   -0.3135   -2.9613 H   0  0  0  0  0  0  0  0  0  0  0  0
    4.0445   -3.8147   -3.5059 H   0  0  0  0  0  0  0  0  0  0  0  0
    4.7013   -2.4041   -4.3104 H   0  0  0  0  0  0  0  0  0  0  0  0
    3.0104   -2.4562   -3.8710 H   0  0  0  0  0  0  0  0  0  0  0  0
    6.6201   -1.7656   -2.1427 H   0  0  0  0  0  0  0  0  0  0  0  0
    6.1055   -4.2352   -2.5159 H   0  0  0  0  0  0  0  0  0  0  0  0
    7.1098   -3.9335   -1.1101 H   0  0  0  0  0  0  0  0  0  0  0  0
    4.4583   -4.4088   -1.5496 H   0  0  0  0  0  0  0  0  0  0  0  0
    4.7532   -6.1699   -0.3124 H   0  0  0  0  0  0  0  0  0  0  0  0
    7.0117   -4.2850    2.4540 H   0  0  0  0  0  0  0  0  0  0  0  0
    7.3014   -4.8305    0.8445 H   0  0  0  0  0  0  0  0  0  0  0  0
    6.6240   -2.1034    1.8832 H   0  0  0  0  0  0  0  0  0  0  0  0
    7.7529   -2.5023    0.6496 H   0  0  0  0  0  0  0  0  0  0  0  0
    5.0699   -0.2055   -0.3032 H   0  0  0  0  0  0  0  0  0  0  0  0
    3.5969   -1.3254    1.5501 H   0  0  0  0  0  0  0  0  0  0  0  0
    4.4827   -2.6057    2.3023 H   0  0  0  0  0  0  0  0  0  0  0  0
    2.8802   -2.8876    1.6776 H   0  0  0  0  0  0  0  0  0  0  0  0
    2.8056   -1.5349   -0.6925 H   0  0  0  0  0  0  0  0  0  0  0  0
    1.4417   -3.3910   -0.4584 H   0  0  0  0  0  0  0  0  0  0  0  0
    2.1908   -4.1288   -1.8379 H   0  0  0  0  0  0  0  0  0  0  0  0
  1  2  1  0
  1 20  1  0
  1 21  1  0
  1 22  1  0
  2 16  1  0
  2  3  1  0
  2  4  1  0
  3 23  1  0
  3 24  1  0
  3 25  1  0
  4 12  1  0
  4  5  1  0
  4 26  1  6
  5  6  1  0
  5 27  1  0
  5 28  1  0
  6 14  1  0
  6  7  1  0
  6 29  1  6
  7 18  1  0
  7  8  1  0
  7 30  1  6
  8  9  2  0
  8 10  1  0
 10 11  1  0
 10 31  1  0
 10 32  1  0
 11 12  1  0
 11 33  1  0
 11 34  1  0
 12 13  1  6
 12 14  1  0
 13 35  1  0
 14 15  1  1
 14 16  1  0
 15 36  1  0
 15 37  1  0
 15 38  1  0
 16 17  1  0
 16 39  1  1
 17 18  1  0
 17 40  1  0
 17 41  1  0
 18 19  2  0
M  END
>  <i_m_ct_stereo_status>  (247) 
1

>  <s_m_source_file>  (247) 
/var/tmp/pbs.5076255.sched01/tmpyc7t0a4i/88yk12rjyo.sdf

>  <i_m_source_file_index>  (247) 
17

>  <i_lp_mmshare_version>  (247) 
48012

>  <i_f3d_flags>  (247) 
0

>  <s_epik_input>  (247) 
W09IXVtDQEBdMTJbQ0BASF0zQyhbQ0gzXSkoW0NIM10pW0NAQEhdNFtDQEBdMihbQ0gzXSlbQ0BASF0oW0NIMl0zKVtDQEhdKEMoPU8pW0NIMl00KUMoPU8pW0NIMl1bQ0gyXTE=

>  <s_epik_cmdline>  (247) 
J2VwaWtfcHl0aG9uJywgJy1waHQnLCAnMi4wJywgJy1waCcsICc3LjAnLCAnLXRuJywgJzgnLCAnLW1hJywgJzIwMCcsICctaW1hZScsICc8aW5maWxlLm1hZT4nLCAnLW9tYWUnLCAnPG91dGZpbGUubWFlPic=

>  <r_lp_tautomer_probability>  (247) 
1

>  <r_epik_Ionization_Penalty>  (247) 
0.000413033

>  <r_epik_Ionization_Penalty_Charging>  (247) 
0

>  <r_epik_Ionization_Penalty_Neutral>  (247) 
0.000413033

>  <r_epik_State_Penalty>  (247) 
-0

>  <r_epik_Charging_Adjusted_Penalty>  (247) 
0

>  <i_epik_Tot_Q>  (247) 
0

>  <i_epik_Tot_abs_Q>  (247) 
0

>  <s_lp_Force_Field>  (247) 
OPLS3e

>  <r_lp_Energy>  (247) 
163.259

>  <b_lp_Chiralities_Consistent>  (247) 
1

>  <s_lp_Variant>  (247) 
67:0-1

>  <s_i_glide_gridfile>  (247) 
pfpi4k_grid

>  <i_i_glide_lignum>  (247) 
17

>  <i_i_glide_rotatable_bonds>  (247) 
1

>  <r_i_docking_score>  (247) 
-3.61816

>  <r_i_glide_ligand_efficiency>  (247) 
-0.19043

>  <r_i_glide_ligand_efficiency_sa>  (247) 
-0.508143

>  <r_i_glide_ligand_efficiency_ln>  (247) 
-0.917282

>  <r_i_glide_gscore>  (247) 
-3.61816

>  <r_i_glide_lipo>  (247) 
-0.624725

>  <r_i_glide_hbond>  (247) 
-0.0246714

>  <r_i_glide_metal>  (247) 
-0

>  <r_i_glide_rewards>  (247) 
-1.68034

>  <r_i_glide_evdw>  (247) 
-16.3551

>  <r_i_glide_ecoul>  (247) 
-2.86731

>  <r_i_glide_erotb>  (247) 
0

>  <r_i_glide_esite>  (247) 
-0.0405747

>  <r_i_glide_emodel>  (247) 
-23.0763

>  <r_i_glide_energy>  (247) 
-19.2224

>  <r_i_glide_einternal>  (247) 
0.101757

>  <r_i_glide_intrahb_reward>  (247) 
-0

>  <i_i_glide_confnum>  (247) 
1

>  <i_i_glide_posenum>  (247) 
1

>  <r_i_glide_eff_state_penalty>  (247) 
0

>  <ligand_id>  (247) 
67

>  <original_smiles>  (247) 
CC1(C)C2CC3C4C(=O)CCC2(O)C3(C)C1CC4=O

>  <smiles>  (247) 
[H]OC12C([H])([H])C([H])([H])C(=O)C3([H])C(=O)C([H])([H])C4([H])C(C([H])([H])[H])(C([H])([H])[H])C1([H])C([H])([H])C3([H])C42C([H])([H])[H]

$$$$
68:0:0
     RDKit          3D

 64 69  0  0  1  0  0  0  0  0999 V2000
    4.5989   -6.9667    0.6250 C   0  0  0  0  0  0  0  0  0  0  0  0
    4.1880   -6.0638    1.8104 C   0  0  2  0  0  0  0  0  0  0  0  0
    4.1769   -4.5753    1.4087 C   0  0  1  0  0  0  0  0  0  0  0  0
    3.4627   -4.3908    0.2055 O   0  0  0  0  0  0  0  0  0  0  0  0
    3.4759   -3.7625    2.4924 C   0  0  0  0  0  0  0  0  0  0  0  0
    4.1468   -3.9768    3.8583 C   0  0  0  0  0  0  0  0  0  0  0  0
    4.3087   -5.4628    4.3164 C   0  0  1  0  0  0  0  0  0  0  0  0
    5.3046   -5.3540    5.5137 C   0  0  0  0  0  0  0  0  0  0  0  0
    2.8801   -6.0504    4.7841 C   0  0  2  0  0  0  0  0  0  0  0  0
    2.5461   -5.6632    6.3550 C   0  0  0  0  0  0  0  0  0  0  0  0
    1.4757   -6.5326    7.1721 C   0  0  0  0  0  0  0  0  0  0  0  0
    0.8490   -7.4241    6.1228 C   0  0  2  0  0  0  0  0  0  0  0  0
   -0.1002   -6.4791    5.2565 C   0  0  1  0  0  0  0  0  0  0  0  0
   -0.1904   -5.1230    5.6223 O   0  0  0  0  0  0  0  0  0  0  0  0
    0.2344   -6.6286    3.8989 O   0  0  0  0  0  0  0  0  0  0  0  0
    0.9965   -7.8010    3.6071 C   0  0  2  0  0  0  0  0  0  0  0  0
    0.9069   -7.9020    2.0668 C   0  0  0  0  0  0  0  0  0  0  0  0
    0.1026   -8.9453    4.2744 C   0  0  1  0  0  0  0  0  0  0  0  0
    0.2193  -10.2201    3.6921 O   0  0  0  0  0  0  0  0  0  0  0  0
    0.3580   -8.8976    5.8122 C   0  0  1  0  0  0  0  0  0  0  0  0
    1.6760   -9.4474    6.2329 C   0  0  1  0  0  0  0  0  0  0  0  0
    2.1680  -10.6549    5.7180 O   0  0  0  0  0  0  0  0  0  0  0  0
    2.1921   -8.1258    5.6828 C   0  0  1  0  0  0  0  0  0  0  0  0
    2.4427   -7.5773    4.3271 C   0  0  2  0  0  0  0  0  0  0  0  0
    3.5407   -8.3951    3.5973 C   0  0  0  0  0  0  0  0  0  0  0  0
    4.9409   -7.7910    3.5896 C   0  0  0  0  0  0  0  0  0  0  0  0
    4.9673   -6.3076    3.1509 C   0  0  1  0  0  0  0  0  0  0  0  0
    6.4647   -5.9601    2.9037 C   0  0  0  0  0  0  0  0  0  0  0  0
    5.5406   -6.6474    0.1811 H   0  0  0  0  0  0  0  0  0  0  0  0
    3.8414   -6.9208   -0.1550 H   0  0  0  0  0  0  0  0  0  0  0  0
    4.6793   -8.0181    0.8973 H   0  0  0  0  0  0  0  0  0  0  0  0
    3.1531   -6.2991    2.0086 H   0  0  0  0  0  0  0  0  0  0  0  0
    5.1920   -4.2053    1.2569 H   0  0  0  0  0  0  0  0  0  0  0  0
    3.9081   -4.8680   -0.4845 H   0  0  0  0  0  0  0  0  0  0  0  0
    3.4975   -2.7016    2.2305 H   0  0  0  0  0  0  0  0  0  0  0  0
    2.4202   -4.0339    2.5331 H   0  0  0  0  0  0  0  0  0  0  0  0
    5.1250   -3.5008    3.8039 H   0  0  0  0  0  0  0  0  0  0  0  0
    3.5972   -3.4050    4.6086 H   0  0  0  0  0  0  0  0  0  0  0  0
    5.4264   -6.2889    6.0570 H   0  0  0  0  0  0  0  0  0  0  0  0
    4.9990   -4.5909    6.2262 H   0  0  0  0  0  0  0  0  0  0  0  0
    6.2929   -5.0140    5.2259 H   0  0  0  0  0  0  0  0  0  0  0  0
    2.1880   -5.4325    4.2187 H   0  0  0  0  0  0  0  0  0  0  0  0
    3.4182   -5.7291    6.9991 H   0  0  0  0  0  0  0  0  0  0  0  0
    2.2661   -4.6108    6.4025 H   0  0  0  0  0  0  0  0  0  0  0  0
    1.9745   -7.1160    7.9506 H   0  0  0  0  0  0  0  0  0  0  0  0
    0.7583   -5.9201    7.7238 H   0  0  0  0  0  0  0  0  0  0  0  0
   -1.1296   -6.8389    5.3409 H   0  0  0  0  0  0  0  0  0  0  0  0
    0.7018   -4.7894    5.6259 H   0  0  0  0  0  0  0  0  0  0  0  0
    1.4135   -8.7831    1.6716 H   0  0  0  0  0  0  0  0  0  0  0  0
    1.2786   -7.0156    1.5623 H   0  0  0  0  0  0  0  0  0  0  0  0
   -0.1342   -8.0145    1.7626 H   0  0  0  0  0  0  0  0  0  0  0  0
   -0.9448   -8.7184    4.0842 H   0  0  0  0  0  0  0  0  0  0  0  0
   -0.3991  -10.7843    4.1517 H   0  0  0  0  0  0  0  0  0  0  0  0
   -0.4624   -9.2352    6.4438 H   0  0  0  0  0  0  0  0  0  0  0  0
    1.7338   -9.4766    7.3302 H   0  0  0  0  0  0  0  0  0  0  0  0
    1.8427  -11.3445    6.2994 H   0  0  0  0  0  0  0  0  0  0  0  0
    3.0806   -8.0263    6.3108 H   0  0  0  0  0  0  0  0  0  0  0  0
    3.6027   -9.4023    3.9996 H   0  0  0  0  0  0  0  0  0  0  0  0
    3.2859   -8.5471    2.5570 H   0  0  0  0  0  0  0  0  0  0  0  0
    5.3786   -7.9071    4.5807 H   0  0  0  0  0  0  0  0  0  0  0  0
    5.5835   -8.3876    2.9424 H   0  0  0  0  0  0  0  0  0  0  0  0
    7.1134   -6.3252    3.7006 H   0  0  0  0  0  0  0  0  0  0  0  0
    6.6346   -4.8910    2.8078 H   0  0  0  0  0  0  0  0  0  0  0  0
    6.8449   -6.4224    1.9949 H   0  0  0  0  0  0  0  0  0  0  0  0
  1  2  1  0
  1 29  1  0
  1 30  1  0
  1 31  1  0
  2 27  1  0
  2  3  1  0
  2 32  1  1
  3  4  1  0
  3  5  1  0
  3 33  1  6
  4 34  1  0
  5  6  1  0
  5 35  1  0
  5 36  1  0
  6  7  1  0
  6 37  1  0
  6 38  1  0
  7 27  1  0
  7  8  1  1
  7  9  1  0
  8 39  1  0
  8 40  1  0
  8 41  1  0
  9 24  1  0
  9 10  1  0
  9 42  1  6
 10 11  1  0
 10 43  1  0
 10 44  1  0
 12 11  1  1
 11 45  1  0
 11 46  1  0
 12 20  1  0
 12 23  1  0
 12 13  1  0
 13 14  1  0
 13 15  1  0
 13 47  1  6
 14 48  1  0
 15 16  1  0
 16 24  1  0
 16 17  1  6
 16 18  1  0
 17 49  1  0
 17 50  1  0
 17 51  1  0
 18 19  1  0
 18 20  1  0
 18 52  1  1
 19 53  1  0
 20 21  1  0
 20 54  1  1
 21 22  1  0
 21 23  1  0
 21 55  1  1
 22 56  1  0
 23 24  1  0
 23 57  1  1
 24 25  1  6
 25 26  1  0
 25 58  1  0
 25 59  1  0
 26 27  1  0
 26 60  1  0
 26 61  1  0
 27 28  1  6
 28 62  1  0
 28 63  1  0
 28 64  1  0
M  END
>  <i_m_ct_stereo_status>  (248) 
1

>  <s_m_source_file>  (248) 
/var/tmp/pbs.5076255.sched01/tmpyc7t0a4i/88yk12rjyo.sdf

>  <i_m_source_file_index>  (248) 
18

>  <i_lp_mmshare_version>  (248) 
48012

>  <i_f3d_flags>  (248) 
0

>  <s_epik_input>  (248) 
W0NIMl0xW0NIMl1bQ0BIXShbT0hdKVtDQEBIXShbQ0gzXSlbQ0BdKFtDSDNdKShbQ0gyXVtDSDJdMilbQ0BdMShbQ0gzXSlbQ0BIXShbQ0gyXVtDSDJdMylbQ0BAXTIoW0NAQEhdNFtDQEBIXTVbT0hdKVtDQEBdKFtDSDNdKShbQ0BASF0oW09IXSlbQ0BASF01W0NAQF0zNDYpT1tDQEBIXTZbT0hd

>  <s_epik_cmdline>  (248) 
J2VwaWtfcHl0aG9uJywgJy1waHQnLCAnMi4wJywgJy1waCcsICc3LjAnLCAnLXRuJywgJzgnLCAnLW1hJywgJzIwMCcsICctaW1hZScsICc8aW5maWxlLm1hZT4nLCAnLW9tYWUnLCAnPG91dGZpbGUubWFlPic=

>  <r_lp_tautomer_probability>  (248) 
1

>  <r_epik_Ionization_Penalty>  (248) 
2.31515e-06

>  <r_epik_Ionization_Penalty_Charging>  (248) 
0

>  <r_epik_Ionization_Penalty_Neutral>  (248) 
2.31515e-06

>  <r_epik_State_Penalty>  (248) 
-0

>  <r_epik_Charging_Adjusted_Penalty>  (248) 
0

>  <i_epik_Tot_Q>  (248) 
0

>  <i_epik_Tot_abs_Q>  (248) 
0

>  <s_epik_Chemistry_Notes>  (248) 
This compound contains an acetal/aminal-like group ( X-CH(R)-Y where X, Y are N, S, or O) that may be acid/base labile, releasing an aldehyde.

>  <s_lp_Force_Field>  (248) 
OPLS3e

>  <r_lp_Energy>  (248) 
206.968

>  <b_lp_Chiralities_Consistent>  (248) 
1

>  <s_lp_Variant>  (248) 
68:0-1

>  <s_i_glide_gridfile>  (248) 
pfpi4k_grid

>  <i_i_glide_lignum>  (248) 
18

>  <i_i_glide_rotatable_bonds>  (248) 
4

>  <r_i_docking_score>  (248) 
-2.77332

>  <r_i_glide_ligand_efficiency>  (248) 
-0.0990473

>  <r_i_glide_ligand_efficiency_sa>  (248) 
-0.300766

>  <r_i_glide_ligand_efficiency_ln>  (248) 
-0.640164

>  <r_i_glide_gscore>  (248) 
-2.77332

>  <r_i_glide_lipo>  (248) 
-0.180264

>  <r_i_glide_hbond>  (248) 
0

>  <r_i_glide_metal>  (248) 
-0

>  <r_i_glide_rewards>  (248) 
-0.732757

>  <r_i_glide_evdw>  (248) 
-21.3855

>  <r_i_glide_ecoul>  (248) 
-5.16477

>  <r_i_glide_erotb>  (248) 
0

>  <r_i_glide_esite>  (248) 
-0.0163119

>  <r_i_glide_emodel>  (248) 
-30.9908

>  <r_i_glide_energy>  (248) 
-26.5502

>  <r_i_glide_einternal>  (248) 
1.98102

>  <r_i_glide_intrahb_reward>  (248) 
-0

>  <i_i_glide_confnum>  (248) 
2

>  <i_i_glide_posenum>  (248) 
28

>  <r_i_glide_eff_state_penalty>  (248) 
0

>  <ligand_id>  (248) 
68

>  <original_smiles>  (248) 
CC1C(O)CCC2(C)C3CCC45C(O)OC6(C)C(O)C4C(O)C5C36CCC12C

>  <smiles>  (248) 
[H]OC1([H])OC2(C([H])([H])[H])C([H])(O[H])C3([H])C([H])(O[H])C4([H])C13C([H])([H])C([H])([H])C1([H])C42C([H])([H])C([H])([H])C2(C([H])([H])[H])C([H])(C([H])([H])[H])C([H])(O[H])C([H])([H])C([H])([H])C12C([H])([H])[H]

$$$$
68:0:1
     RDKit          3D

 64 69  0  0  1  0  0  0  0  0999 V2000
    5.0104   -4.2346   -2.7994 C   0  0  0  0  0  0  0  0  0  0  0  0
    4.8489   -3.1729   -1.7636 C   0  0  2  0  0  0  0  0  0  0  0  0
    4.4993   -1.9004   -2.5275 C   0  0  1  0  0  0  0  0  0  0  0  0
    3.4569   -2.0648   -3.4680 O   0  0  0  0  0  0  0  0  0  0  0  0
    4.0642   -0.8955   -1.5132 C   0  0  0  0  0  0  0  0  0  0  0  0
    5.1295   -0.6614   -0.4350 C   0  0  0  0  0  0  0  0  0  0  0  0
    5.6463   -1.9251    0.2972 C   0  0  1  0  0  0  0  0  0  0  0  0
    6.9330   -1.4154    0.9746 C   0  0  0  0  0  0  0  0  0  0  0  0
    4.5795   -2.4035    1.3775 C   0  0  2  0  0  0  0  0  0  0  0  0
    4.7059   -1.5733    2.8063 C   0  0  0  0  0  0  0  0  0  0  0  0
    4.1087   -2.2259    4.1446 C   0  0  0  0  0  0  0  0  0  0  0  0
    3.3250   -3.4085    3.6520 C   0  0  2  0  0  0  0  0  0  0  0  0
    2.0309   -2.8427    2.9501 C   0  0  1  0  0  0  0  0  0  0  0  0
    1.8400   -1.4335    2.9675 O   0  0  0  0  0  0  0  0  0  0  0  0
    1.9759   -3.3269    1.6391 O   0  0  0  0  0  0  0  0  0  0  0  0
    2.7355   -4.5127    1.4241 C   0  0  2  0  0  0  0  0  0  0  0  0
    2.2157   -5.0860    0.0742 C   0  0  0  0  0  0  0  0  0  0  0  0
    2.2795   -5.4563    2.6176 C   0  0  1  0  0  0  0  0  0  0  0  0
    2.4505   -6.8375    2.3442 O   0  0  0  0  0  0  0  0  0  0  0  0
    2.9810   -4.9445    3.9183 C   0  0  1  0  0  0  0  0  0  0  0  0
    4.4367   -5.2786    3.9680 C   0  0  1  0  0  0  0  0  0  0  0  0
    4.9020   -6.5630    3.6279 O   0  0  0  0  0  0  0  0  0  0  0  0
    4.5579   -4.1419    2.9701 C   0  0  1  0  0  0  0  0  0  0  0  0
    4.2676   -4.0029    1.5257 C   0  0  2  0  0  0  0  0  0  0  0  0
    5.1816   -4.9388    0.7096 C   0  0  0  0  0  0  0  0  0  0  0  0
    6.3742   -4.2518    0.1145 C   0  0  0  0  0  0  0  0  0  0  0  0
    6.0349   -3.0162   -0.7436 C   0  0  1  0  0  0  0  0  0  0  0  0
    7.3236   -2.7115   -1.5574 C   0  0  0  0  0  0  0  0  0  0  0  0
    5.8305   -4.0523   -3.5019 H   0  0  0  0  0  0  0  0  0  0  0  0
    4.1197   -4.3984   -3.3946 H   0  0  0  0  0  0  0  0  0  0  0  0
    5.1896   -5.1369   -2.2150 H   0  0  0  0  0  0  0  0  0  0  0  0
    3.9676   -3.4172   -1.1777 H   0  0  0  0  0  0  0  0  0  0  0  0
    5.3684   -1.5454   -3.0811 H   0  0  0  0  0  0  0  0  0  0  0  0
    2.6771   -2.3334   -2.9960 H   0  0  0  0  0  0  0  0  0  0  0  0
    3.9389    0.0248   -2.0879 H   0  0  0  0  0  0  0  0  0  0  0  0
    3.1035   -1.1731   -1.0709 H   0  0  0  0  0  0  0  0  0  0  0  0
    5.9838   -0.2610   -0.9563 H   0  0  0  0  0  0  0  0  0  0  0  0
    4.7590    0.0683    0.2860 H   0  0  0  0  0  0  0  0  0  0  0  0
    7.3604   -2.1409    1.6556 H   0  0  0  0  0  0  0  0  0  0  0  0
    6.6986   -0.5123    1.5366 H   0  0  0  0  0  0  0  0  0  0  0  0
    7.7213   -1.0757    0.2989 H   0  0  0  0  0  0  0  0  0  0  0  0
    3.6722   -2.0103    0.9398 H   0  0  0  0  0  0  0  0  0  0  0  0
    5.7313   -1.4070    3.0990 H   0  0  0  0  0  0  0  0  0  0  0  0
    4.2867   -0.5807    2.6551 H   0  0  0  0  0  0  0  0  0  0  0  0
    4.9127   -2.5107    4.8299 H   0  0  0  0  0  0  0  0  0  0  0  0
    3.5012   -1.5129    4.7070 H   0  0  0  0  0  0  0  0  0  0  0  0
    1.1486   -3.2260    3.4730 H   0  0  0  0  0  0  0  0  0  0  0  0
    2.4952   -1.0565    2.4128 H   0  0  0  0  0  0  0  0  0  0  0  0
    2.7218   -5.9988   -0.2409 H   0  0  0  0  0  0  0  0  0  0  0  0
    2.2348   -4.3528   -0.7203 H   0  0  0  0  0  0  0  0  0  0  0  0
    1.1791   -5.3956    0.1902 H   0  0  0  0  0  0  0  0  0  0  0  0
    1.2034   -5.3517    2.7339 H   0  0  0  0  0  0  0  0  0  0  0  0
    3.3807   -7.0235    2.3712 H   0  0  0  0  0  0  0  0  0  0  0  0
    2.4722   -5.1339    4.8596 H   0  0  0  0  0  0  0  0  0  0  0  0
    4.8608   -5.0047    4.9397 H   0  0  0  0  0  0  0  0  0  0  0  0
    4.7110   -7.1425    4.3491 H   0  0  0  0  0  0  0  0  0  0  0  0
    5.5828   -3.8088    3.2001 H   0  0  0  0  0  0  0  0  0  0  0  0
    5.5368   -5.7748    1.2959 H   0  0  0  0  0  0  0  0  0  0  0  0
    4.6644   -5.3820   -0.1237 H   0  0  0  0  0  0  0  0  0  0  0  0
    7.1108   -4.0369    0.8900 H   0  0  0  0  0  0  0  0  0  0  0  0
    6.8403   -5.0191   -0.4555 H   0  0  0  0  0  0  0  0  0  0  0  0
    8.2517   -2.7354   -0.9818 H   0  0  0  0  0  0  0  0  0  0  0  0
    7.2411   -1.7813   -2.0727 H   0  0  0  0  0  0  0  0  0  0  0  0
    7.4748   -3.4517   -2.3432 H   0  0  0  0  0  0  0  0  0  0  0  0
  1  2  1  0
  1 29  1  0
  1 30  1  0
  1 31  1  0
  2 27  1  0
  2  3  1  0
  2 32  1  1
  3  4  1  0
  3  5  1  0
  3 33  1  6
  4 34  1  0
  5  6  1  0
  5 35  1  0
  5 36  1  0
  6  7  1  0
  6 37  1  0
  6 38  1  0
  7 27  1  0
  7  8  1  1
  7  9  1  0
  8 39  1  0
  8 40  1  0
  8 41  1  0
  9 24  1  0
  9 10  1  0
  9 42  1  6
 10 11  1  0
 10 43  1  0
 10 44  1  0
 12 11  1  1
 11 45  1  0
 11 46  1  0
 12 20  1  0
 12 23  1  0
 12 13  1  0
 13 14  1  0
 13 15  1  0
 13 47  1  1
 14 48  1  0
 15 16  1  0
 16 24  1  0
 16 17  1  6
 16 18  1  0
 17 49  1  0
 17 50  1  0
 17 51  1  0
 18 19  1  0
 18 20  1  0
 18 52  1  1
 19 53  1  0
 20 21  1  0
 20 54  1  1
 21 22  1  0
 21 23  1  0
 21 55  1  1
 22 56  1  0
 23 24  1  0
 23 57  1  6
 24 25  1  6
 25 26  1  0
 25 58  1  0
 25 59  1  0
 26 27  1  0
 26 60  1  0
 26 61  1  0
 27 28  1  6
 28 62  1  0
 28 63  1  0
 28 64  1  0
M  END
>  <i_m_ct_stereo_status>  (249) 
1

>  <s_m_source_file>  (249) 
/var/tmp/pbs.5076255.sched01/tmpyc7t0a4i/88yk12rjyo.sdf

>  <i_m_source_file_index>  (249) 
18

>  <i_lp_mmshare_version>  (249) 
48012

>  <i_f3d_flags>  (249) 
0

>  <s_epik_input>  (249) 
W0NIMl0xW0NIMl1bQ0BIXShbT0hdKVtDQEBIXShbQ0gzXSlbQ0BdKFtDSDNdKShbQ0gyXVtDSDJdMilbQ0BdMShbQ0gzXSlbQ0BIXShbQ0gyXVtDSDJdMylbQ0BAXTIoW0NAQEhdNFtDQEBIXTVbT0hdKVtDQEBdKFtDSDNdKShbQ0BASF0oW09IXSlbQ0BASF01W0NAQF0zNDYpT1tDQEBIXTZbT0hd

>  <s_epik_cmdline>  (249) 
J2VwaWtfcHl0aG9uJywgJy1waHQnLCAnMi4wJywgJy1waCcsICc3LjAnLCAnLXRuJywgJzgnLCAnLW1hJywgJzIwMCcsICctaW1hZScsICc8aW5maWxlLm1hZT4nLCAnLW9tYWUnLCAnPG91dGZpbGUubWFlPic=

>  <r_lp_tautomer_probability>  (249) 
1

>  <r_epik_Ionization_Penalty>  (249) 
2.31515e-06

>  <r_epik_Ionization_Penalty_Charging>  (249) 
0

>  <r_epik_Ionization_Penalty_Neutral>  (249) 
2.31515e-06

>  <r_epik_State_Penalty>  (249) 
-0

>  <r_epik_Charging_Adjusted_Penalty>  (249) 
0

>  <i_epik_Tot_Q>  (249) 
0

>  <i_epik_Tot_abs_Q>  (249) 
0

>  <s_epik_Chemistry_Notes>  (249) 
This compound contains an acetal/aminal-like group ( X-CH(R)-Y where X, Y are N, S, or O) that may be acid/base labile, releasing an aldehyde.

>  <s_lp_Force_Field>  (249) 
OPLS3e

>  <r_lp_Energy>  (249) 
206.968

>  <b_lp_Chiralities_Consistent>  (249) 
1

>  <s_lp_Variant>  (249) 
68:0-1

>  <s_i_glide_gridfile>  (249) 
pfpi4k_grid

>  <i_i_glide_lignum>  (249) 
18

>  <i_i_glide_rotatable_bonds>  (249) 
4

>  <r_i_docking_score>  (249) 
-2.14677

>  <r_i_glide_ligand_efficiency>  (249) 
-0.0766703

>  <r_i_glide_ligand_efficiency_sa>  (249) 
-0.232816

>  <r_i_glide_ligand_efficiency_ln>  (249) 
-0.495537

>  <r_i_glide_gscore>  (249) 
-2.14677

>  <r_i_glide_lipo>  (249) 
-0.380677

>  <r_i_glide_hbond>  (249) 
0

>  <r_i_glide_metal>  (249) 
-0

>  <r_i_glide_rewards>  (249) 
-1.23276

>  <r_i_glide_evdw>  (249) 
-11.362

>  <r_i_glide_ecoul>  (249) 
0.245642

>  <r_i_glide_erotb>  (249) 
0

>  <r_i_glide_esite>  (249) 
-0.00208046

>  <r_i_glide_emodel>  (249) 
-18.9216

>  <r_i_glide_energy>  (249) 
-11.1164

>  <r_i_glide_einternal>  (249) 
1.35834

>  <r_i_glide_intrahb_reward>  (249) 
-0.5

>  <i_i_glide_confnum>  (249) 
1

>  <i_i_glide_posenum>  (249) 
11

>  <r_i_glide_eff_state_penalty>  (249) 
0

>  <ligand_id>  (249) 
68

>  <original_smiles>  (249) 
CC1C(O)CCC2(C)C3CCC45C(O)OC6(C)C(O)C4C(O)C5C36CCC12C

>  <smiles>  (249) 
[H]OC1([H])OC2(C([H])([H])[H])C([H])(O[H])C3([H])C([H])(O[H])C4([H])C13C([H])([H])C([H])([H])C1([H])C42C([H])([H])C([H])([H])C2(C([H])([H])[H])C([H])(C([H])([H])[H])C([H])(O[H])C([H])([H])C([H])([H])C12C([H])([H])[H]

$$$$
68:0:2
     RDKit          3D

 64 69  0  0  1  0  0  0  0  0999 V2000
    4.9735   -4.0875   -2.9142 C   0  0  0  0  0  0  0  0  0  0  0  0
    4.8565   -3.0773   -1.7940 C   0  0  2  0  0  0  0  0  0  0  0  0
    4.4850   -1.7457   -2.4414 C   0  0  1  0  0  0  0  0  0  0  0  0
    3.4006   -1.7986   -3.3602 O   0  0  0  0  0  0  0  0  0  0  0  0
    4.0774   -0.7830   -1.3657 C   0  0  0  0  0  0  0  0  0  0  0  0
    5.1713   -0.6421   -0.2898 C   0  0  0  0  0  0  0  0  0  0  0  0
    5.7022   -1.9441    0.3318 C   0  0  1  0  0  0  0  0  0  0  0  0
    7.0170   -1.4942    1.0087 C   0  0  0  0  0  0  0  0  0  0  0  0
    4.6441   -2.4948    1.4076 C   0  0  2  0  0  0  0  0  0  0  0  0
    4.8496   -1.8008    2.8946 C   0  0  0  0  0  0  0  0  0  0  0  0
    4.2871   -2.5572    4.1796 C   0  0  0  0  0  0  0  0  0  0  0  0
    3.4764   -3.7054    3.6351 C   0  0  2  0  0  0  0  0  0  0  0  0
    2.1710   -3.0715    3.0187 C   0  0  1  0  0  0  0  0  0  0  0  0
    1.9980   -1.6771    3.1550 O   0  0  0  0  0  0  0  0  0  0  0  0
    2.0927   -3.4408    1.6906 O   0  0  0  0  0  0  0  0  0  0  0  0
    2.8005   -4.6208    1.3358 C   0  0  2  0  0  0  0  0  0  0  0  0
    2.2065   -5.0329   -0.0116 C   0  0  0  0  0  0  0  0  0  0  0  0
    2.3648   -5.6516    2.4636 C   0  0  1  0  0  0  0  0  0  0  0  0
    2.5225   -7.0119    2.0965 O   0  0  0  0  0  0  0  0  0  0  0  0
    3.1356   -5.2447    3.7510 C   0  0  1  0  0  0  0  0  0  0  0  0
    4.5813   -5.5979    3.7397 C   0  0  1  0  0  0  0  0  0  0  0  0
    5.0157   -6.8540    3.2488 O   0  0  0  0  0  0  0  0  0  0  0  0
    4.6566   -4.3745    2.8364 C   0  0  1  0  0  0  0  0  0  0  0  0
    4.3364   -4.1164    1.4159 C   0  0  2  0  0  0  0  0  0  0  0  0
    5.2164   -4.9460    0.4930 C   0  0  0  0  0  0  0  0  0  0  0  0
    6.4150   -4.2304   -0.0327 C   0  0  0  0  0  0  0  0  0  0  0  0
    6.0560   -2.9536   -0.7963 C   0  0  1  0  0  0  0  0  0  0  0  0
    7.3018   -2.5954   -1.6454 C   0  0  0  0  0  0  0  0  0  0  0  0
    5.6614   -3.8316   -3.7214 H   0  0  0  0  0  0  0  0  0  0  0  0
    3.9895   -4.1975   -3.3680 H   0  0  0  0  0  0  0  0  0  0  0  0
    5.2307   -5.0396   -2.4711 H   0  0  0  0  0  0  0  0  0  0  0  0
    3.9830   -3.3238   -1.2106 H   0  0  0  0  0  0  0  0  0  0  0  0
    5.3117   -1.2921   -2.9815 H   0  0  0  0  0  0  0  0  0  0  0  0
    2.6039   -1.9807   -2.8893 H   0  0  0  0  0  0  0  0  0  0  0  0
    3.9654    0.1156   -1.9442 H   0  0  0  0  0  0  0  0  0  0  0  0
    3.1358   -1.0842   -0.8542 H   0  0  0  0  0  0  0  0  0  0  0  0
    6.0118   -0.1287   -0.7540 H   0  0  0  0  0  0  0  0  0  0  0  0
    4.8537    0.0699    0.4881 H   0  0  0  0  0  0  0  0  0  0  0  0
    7.3741   -2.3121    1.6018 H   0  0  0  0  0  0  0  0  0  0  0  0
    6.8674   -0.6671    1.6874 H   0  0  0  0  0  0  0  0  0  0  0  0
    7.8138   -1.1381    0.3486 H   0  0  0  0  0  0  0  0  0  0  0  0
    3.7279   -2.0491    1.0267 H   0  0  0  0  0  0  0  0  0  0  0  0
    5.8880   -1.6425    3.1612 H   0  0  0  0  0  0  0  0  0  0  0  0
    4.4480   -0.7967    2.8586 H   0  0  0  0  0  0  0  0  0  0  0  0
    5.1215   -2.9186    4.7727 H   0  0  0  0  0  0  0  0  0  0  0  0
    3.7322   -1.9079    4.8589 H   0  0  0  0  0  0  0  0  0  0  0  0
    1.2907   -3.4691    3.5168 H   0  0  0  0  0  0  0  0  0  0  0  0
    2.6741   -1.2551    2.6521 H   0  0  0  0  0  0  0  0  0  0  0  0
    2.6896   -5.9308   -0.3739 H   0  0  0  0  0  0  0  0  0  0  0  0
    2.2327   -4.2567   -0.7743 H   0  0  0  0  0  0  0  0  0  0  0  0
    1.1657   -5.3270    0.0708 H   0  0  0  0  0  0  0  0  0  0  0  0
    1.2881   -5.5534    2.6214 H   0  0  0  0  0  0  0  0  0  0  0  0
    2.2135   -7.5366    2.8175 H   0  0  0  0  0  0  0  0  0  0  0  0
    2.6414   -5.4843    4.6817 H   0  0  0  0  0  0  0  0  0  0  0  0
    5.0240   -5.4057    4.7134 H   0  0  0  0  0  0  0  0  0  0  0  0
    4.5116   -7.0044    2.4608 H   0  0  0  0  0  0  0  0  0  0  0  0
    5.6843   -4.0776    3.0419 H   0  0  0  0  0  0  0  0  0  0  0  0
    5.5460   -5.8626    0.9769 H   0  0  0  0  0  0  0  0  0  0  0  0
    4.6530   -5.3005   -0.3658 H   0  0  0  0  0  0  0  0  0  0  0  0
    7.1866   -4.0884    0.7034 H   0  0  0  0  0  0  0  0  0  0  0  0
    6.7911   -4.9207   -0.7101 H   0  0  0  0  0  0  0  0  0  0  0  0
    8.2594   -2.6658   -1.1348 H   0  0  0  0  0  0  0  0  0  0  0  0
    7.1835   -1.5939   -2.0313 H   0  0  0  0  0  0  0  0  0  0  0  0
    7.3917   -3.1819   -2.5468 H   0  0  0  0  0  0  0  0  0  0  0  0
  1  2  1  0
  1 29  1  0
  1 30  1  0
  1 31  1  0
  2 27  1  0
  2  3  1  0
  2 32  1  1
  3  4  1  0
  3  5  1  0
  3 33  1  6
  4 34  1  0
  5  6  1  0
  5 35  1  0
  5 36  1  0
  6  7  1  0
  6 37  1  0
  6 38  1  0
  7 27  1  0
  7  8  1  1
  7  9  1  0
  8 39  1  0
  8 40  1  0
  8 41  1  0
  9 24  1  0
  9 10  1  0
  9 42  1  6
 10 11  1  0
 10 43  1  0
 10 44  1  0
 12 11  1  1
 11 45  1  0
 11 46  1  0
 12 20  1  0
 12 23  1  0
 12 13  1  0
 13 14  1  0
 13 15  1  0
 13 47  1  1
 14 48  1  0
 15 16  1  0
 16 24  1  0
 16 17  1  6
 16 18  1  0
 17 49  1  0
 17 50  1  0
 17 51  1  0
 18 19  1  0
 18 20  1  0
 18 52  1  1
 19 53  1  0
 20 21  1  0
 20 54  1  1
 21 22  1  0
 21 23  1  0
 21 55  1  1
 22 56  1  0
 23 24  1  0
 23 57  1  1
 24 25  1  6
 25 26  1  0
 25 58  1  0
 25 59  1  0
 26 27  1  0
 26 60  1  0
 26 61  1  0
 27 28  1  6
 28 62  1  0
 28 63  1  0
 28 64  1  0
M  END
>  <i_m_ct_stereo_status>  (250) 
1

>  <s_m_source_file>  (250) 
/var/tmp/pbs.5076255.sched01/tmpyc7t0a4i/88yk12rjyo.sdf

>  <i_m_source_file_index>  (250) 
18

>  <i_lp_mmshare_version>  (250) 
48012

>  <i_f3d_flags>  (250) 
0

>  <s_epik_input>  (250) 
W0NIMl0xW0NIMl1bQ0BIXShbT0hdKVtDQEBIXShbQ0gzXSlbQ0BdKFtDSDNdKShbQ0gyXVtDSDJdMilbQ0BdMShbQ0gzXSlbQ0BIXShbQ0gyXVtDSDJdMylbQ0BAXTIoW0NAQEhdNFtDQEBIXTVbT0hdKVtDQEBdKFtDSDNdKShbQ0BASF0oW09IXSlbQ0BASF01W0NAQF0zNDYpT1tDQEBIXTZbT0hd

>  <s_epik_cmdline>  (250) 
J2VwaWtfcHl0aG9uJywgJy1waHQnLCAnMi4wJywgJy1waCcsICc3LjAnLCAnLXRuJywgJzgnLCAnLW1hJywgJzIwMCcsICctaW1hZScsICc8aW5maWxlLm1hZT4nLCAnLW9tYWUnLCAnPG91dGZpbGUubWFlPic=

>  <r_lp_tautomer_probability>  (250) 
1

>  <r_epik_Ionization_Penalty>  (250) 
2.31515e-06

>  <r_epik_Ionization_Penalty_Charging>  (250) 
0

>  <r_epik_Ionization_Penalty_Neutral>  (250) 
2.31515e-06

>  <r_epik_State_Penalty>  (250) 
-0

>  <r_epik_Charging_Adjusted_Penalty>  (250) 
0

>  <i_epik_Tot_Q>  (250) 
0

>  <i_epik_Tot_abs_Q>  (250) 
0

>  <s_epik_Chemistry_Notes>  (250) 
This compound contains an acetal/aminal-like group ( X-CH(R)-Y where X, Y are N, S, or O) that may be acid/base labile, releasing an aldehyde.

>  <s_lp_Force_Field>  (250) 
OPLS3e

>  <r_lp_Energy>  (250) 
206.968

>  <b_lp_Chiralities_Consistent>  (250) 
1

>  <s_lp_Variant>  (250) 
68:0-1

>  <s_i_glide_gridfile>  (250) 
pfpi4k_grid

>  <i_i_glide_lignum>  (250) 
18

>  <i_i_glide_rotatable_bonds>  (250) 
4

>  <r_i_docking_score>  (250) 
-1.91582

>  <r_i_glide_ligand_efficiency>  (250) 
-0.068422

>  <r_i_glide_ligand_efficiency_sa>  (250) 
-0.20777

>  <r_i_glide_ligand_efficiency_ln>  (250) 
-0.442227

>  <r_i_glide_gscore>  (250) 
-1.91582

>  <r_i_glide_lipo>  (250) 
-0.38857

>  <r_i_glide_hbond>  (250) 
0

>  <r_i_glide_metal>  (250) 
-0

>  <r_i_glide_rewards>  (250) 
-1.23276

>  <r_i_glide_evdw>  (250) 
-6.91999

>  <r_i_glide_ecoul>  (250) 
0.35458

>  <r_i_glide_erotb>  (250) 
0

>  <r_i_glide_esite>  (250) 
-0.00167677

>  <r_i_glide_emodel>  (250) 
-14.1062

>  <r_i_glide_energy>  (250) 
-6.56541

>  <r_i_glide_einternal>  (250) 
0.46219

>  <r_i_glide_intrahb_reward>  (250) 
-0.5

>  <i_i_glide_confnum>  (250) 
1

>  <i_i_glide_posenum>  (250) 
1

>  <r_i_glide_eff_state_penalty>  (250) 
0

>  <ligand_id>  (250) 
68

>  <original_smiles>  (250) 
CC1C(O)CCC2(C)C3CCC45C(O)OC6(C)C(O)C4C(O)C5C36CCC12C

>  <smiles>  (250) 
[H]OC1([H])OC2(C([H])([H])[H])C([H])(O[H])C3([H])C([H])(O[H])C4([H])C13C([H])([H])C([H])([H])C1([H])C42C([H])([H])C([H])([H])C2(C([H])([H])[H])C([H])(C([H])([H])[H])C([H])(O[H])C([H])([H])C([H])([H])C12C([H])([H])[H]

$$$$
70:0:0
     RDKit          3D

 55 58  0  0  1  0  0  0  0  0999 V2000
    5.0587   -1.2793   -1.5033 C   0  0  0  0  0  0  0  0  0  0  0  0
    5.3784   -1.6061   -0.0332 C   0  0  0  0  0  0  0  0  0  0  0  0
    5.4331   -0.3215    0.8140 C   0  0  0  0  0  0  0  0  0  0  0  0
    6.6980   -2.3968    0.0907 C   0  0  0  0  0  0  0  0  0  0  0  0
    7.7369   -1.8733   -0.3175 O   0  0  0  0  0  0  0  0  0  0  0  0
    6.6964   -3.6398    0.6344 N   0  0  0  0  0  0  0  0  0  0  0  0
    7.9093   -4.4807    0.7623 C   0  0  0  0  0  0  0  0  0  0  0  0
    7.3124   -5.8645    1.0229 C   0  0  1  0  0  0  0  0  0  0  0  0
    7.9513   -6.9996    1.8066 C   0  0  0  0  0  0  0  0  0  0  0  0
    6.7923   -7.7184    2.2711 O   0  0  0  0  0  0  0  0  0  0  0  0
    5.5942   -6.9255    2.1339 C   0  0  1  0  0  0  0  0  0  0  0  0
    4.7068   -7.0580    3.4024 C   0  0  0  0  0  0  0  0  0  0  0  0
    3.4860   -7.8739    3.2816 N   0  0  0  0  0  0  0  0  0  0  0  0
    2.7604   -7.9186    4.5580 C   0  0  0  0  0  0  0  0  0  0  0  0
    1.4827   -8.7864    4.4886 C   0  0  0  0  0  0  0  0  0  0  0  0
    0.5770   -8.3121    3.4065 N   0  0  0  0  0  0  0  0  0  0  0  0
   -0.6597   -9.1316    3.3321 C   0  0  0  0  0  0  0  0  0  0  0  0
   -1.7017   -8.6728    2.3340 C   0  0  0  0  0  0  0  0  0  0  0  0
   -1.9034   -8.4260    3.8061 C   0  0  0  0  0  0  0  0  0  0  0  0
    1.3118   -8.2532    2.1177 C   0  0  0  0  0  0  0  0  0  0  0  0
    2.5673   -7.3763    2.2569 C   0  0  0  0  0  0  0  0  0  0  0  0
    6.1849   -5.5317    1.9205 C   0  0  2  0  0  0  0  0  0  0  0  0
    5.5291   -4.3788    1.1561 C   0  0  0  0  0  0  0  0  0  0  0  0
    5.0032   -2.1841   -2.1100 H   0  0  0  0  0  0  0  0  0  0  0  0
    5.7975   -0.6164   -1.9520 H   0  0  0  0  0  0  0  0  0  0  0  0
    4.0899   -0.7826   -1.5787 H   0  0  0  0  0  0  0  0  0  0  0  0
    4.5387   -2.1928    0.3327 H   0  0  0  0  0  0  0  0  0  0  0  0
    5.6195   -0.5455    1.8648 H   0  0  0  0  0  0  0  0  0  0  0  0
    4.4876    0.2207    0.7565 H   0  0  0  0  0  0  0  0  0  0  0  0
    6.2143    0.3577    0.4780 H   0  0  0  0  0  0  0  0  0  0  0  0
    8.5335   -4.4769   -0.1394 H   0  0  0  0  0  0  0  0  0  0  0  0
    8.5149   -4.1435    1.6107 H   0  0  0  0  0  0  0  0  0  0  0  0
    6.9304   -6.2544    0.0841 H   0  0  0  0  0  0  0  0  0  0  0  0
    8.5983   -7.6264    1.1942 H   0  0  0  0  0  0  0  0  0  0  0  0
    8.5123   -6.6275    2.6634 H   0  0  0  0  0  0  0  0  0  0  0  0
    5.0936   -7.2622    1.2246 H   0  0  0  0  0  0  0  0  0  0  0  0
    5.3250   -7.4685    4.2058 H   0  0  0  0  0  0  0  0  0  0  0  0
    4.4251   -6.0649    3.7501 H   0  0  0  0  0  0  0  0  0  0  0  0
    3.4082   -8.3245    5.3376 H   0  0  0  0  0  0  0  0  0  0  0  0
    2.5016   -6.9045    4.8742 H   0  0  0  0  0  0  0  0  0  0  0  0
    1.7565   -9.8258    4.2988 H   0  0  0  0  0  0  0  0  0  0  0  0
    0.9545   -8.7562    5.4449 H   0  0  0  0  0  0  0  0  0  0  0  0
   -0.5433  -10.1966    3.5227 H   0  0  0  0  0  0  0  0  0  0  0  0
   -1.5068   -7.8066    1.7086 H   0  0  0  0  0  0  0  0  0  0  0  0
   -2.3096   -9.4466    1.8702 H   0  0  0  0  0  0  0  0  0  0  0  0
   -2.6199   -9.0567    4.3179 H   0  0  0  0  0  0  0  0  0  0  0  0
   -1.8575   -7.3897    4.1407 H   0  0  0  0  0  0  0  0  0  0  0  0
    1.5674   -9.2643    1.7920 H   0  0  0  0  0  0  0  0  0  0  0  0
    0.6866   -7.8072    1.3453 H   0  0  0  0  0  0  0  0  0  0  0  0
    2.2913   -6.3421    2.4748 H   0  0  0  0  0  0  0  0  0  0  0  0
    3.0433   -7.3735    1.2801 H   0  0  0  0  0  0  0  0  0  0  0  0
    6.5498   -5.1409    2.8760 H   0  0  0  0  0  0  0  0  0  0  0  0
    4.9156   -3.7788    1.8267 H   0  0  0  0  0  0  0  0  0  0  0  0
    4.9245   -4.7353    0.3188 H   0  0  0  0  0  0  0  0  0  0  0  0
    0.3053   -7.3702    3.6376 H   0  0  0  0  0  0  0  0  0  0  0  0
  1  2  1  0
  1 24  1  0
  1 25  1  0
  1 26  1  0
  2  3  1  0
  2  4  1  0
  2 27  1  0
  3 28  1  0
  3 29  1  0
  3 30  1  0
  4  5  2  0
  4  6  1  0
  6 23  1  0
  6  7  1  0
  7  8  1  0
  7 31  1  0
  7 32  1  0
  8 22  1  0
  8  9  1  0
  8 33  1  6
  9 10  1  0
  9 34  1  0
  9 35  1  0
 10 11  1  0
 11 12  1  0
 11 22  1  0
 11 36  1  6
 12 13  1  0
 12 37  1  0
 12 38  1  0
 13 21  1  0
 13 14  1  0
 14 15  1  0
 14 39  1  0
 14 40  1  0
 15 16  1  0
 15 41  1  0
 15 42  1  0
 16 17  1  0
 16 20  1  0
 16 55  1  0
 17 19  1  0
 17 18  1  0
 17 43  1  0
 18 19  1  0
 18 44  1  0
 18 45  1  0
 19 46  1  0
 19 47  1  0
 20 21  1  0
 20 48  1  0
 20 49  1  0
 21 50  1  0
 21 51  1  0
 22 23  1  0
 22 52  1  1
 23 53  1  0
 23 54  1  0
M  CHG  1  16   1
M  END
>  <i_m_ct_stereo_status>  (251) 
1

>  <s_m_source_file>  (251) 
/var/tmp/pbs.5076255.sched01/tmpyc7t0a4i/88yk12rjyo.sdf

>  <i_m_source_file_index>  (251) 
20

>  <i_lp_mmshare_version>  (251) 
48012

>  <i_f3d_flags>  (251) 
0

>  <s_epik_input>  (251) 
W0NIM11bQ0hdKFtDSDNdKUMoPU8pTihbQ0gyXTEpW0NIMl1bQ0BIXShbQ0BASF0xMilbQ0BASF0oT1tDSDJdMilbQ0gyXU4zW0NIMl1bQ0gyXU4oW0NIMl1bQ0gyXTMpW0NIXTRbQ0gyXVtDSDJdNA==

>  <s_epik_cmdline>  (251) 
J2VwaWtfcHl0aG9uJywgJy1waHQnLCAnMi4wJywgJy1waCcsICc3LjAnLCAnLXRuJywgJzgnLCAnLW1hJywgJzIwMCcsICctaW1hZScsICc8aW5maWxlLm1hZT4nLCAnLW9tYWUnLCAnPG91dGZpbGUubWFlPic=

>  <r_epik_Ionization_Penalty>  (251) 
0.0314521

>  <r_epik_Ionization_Penalty_Charging>  (251) 
0.000291402

>  <r_epik_Ionization_Penalty_Neutral>  (251) 
0.0311607

>  <r_epik_State_Penalty>  (251) 
0.0833811

>  <r_epik_Charging_Adjusted_Penalty>  (251) 
0.0836725

>  <i_epik_Tot_Q>  (251) 
1

>  <i_epik_Tot_abs_Q>  (251) 
1

>  <s_lp_Force_Field>  (251) 
OPLS3e

>  <r_lp_Energy>  (251) 
48.4982

>  <b_lp_Chiralities_Consistent>  (251) 
1

>  <s_lp_Variant>  (251) 
70:0-1

>  <s_i_glide_gridfile>  (251) 
pfpi4k_grid

>  <i_i_glide_lignum>  (251) 
20

>  <i_i_glide_rotatable_bonds>  (251) 
5

>  <r_i_docking_score>  (251) 
-3.37535

>  <r_i_glide_ligand_efficiency>  (251) 
-0.146754

>  <r_i_glide_ligand_efficiency_sa>  (251) 
-0.41735

>  <r_i_glide_ligand_efficiency_ln>  (251) 
-0.816191

>  <r_i_glide_gscore>  (251) 
-3.37535

>  <r_i_glide_lipo>  (251) 
-0.708973

>  <r_i_glide_hbond>  (251) 
-0.140738

>  <r_i_glide_metal>  (251) 
-0

>  <r_i_glide_rewards>  (251) 
-1.40135

>  <r_i_glide_evdw>  (251) 
-22.964

>  <r_i_glide_ecoul>  (251) 
-4.47635

>  <r_i_glide_erotb>  (251) 
0.719368

>  <r_i_glide_esite>  (251) 
-0.0240118

>  <r_i_glide_emodel>  (251) 
-33.2799

>  <r_i_glide_energy>  (251) 
-27.4403

>  <r_i_glide_einternal>  (251) 
2.84898

>  <r_i_glide_intrahb_reward>  (251) 
-0

>  <i_i_glide_confnum>  (251) 
4

>  <i_i_glide_posenum>  (251) 
38

>  <r_i_glide_eff_state_penalty>  (251) 
0

>  <ligand_id>  (251) 
70

>  <original_smiles>  (251) 
CC(C)C(=O)N1CC2COC(CN3CCN(C4CC4)CC3)C2C1

>  <smiles>  (251) 
[H]C([H])([H])C([H])(C(=O)N1C([H])([H])C2([H])C([H])([H])OC([H])(C([H])([H])N3C([H])([H])C([H])([H])[N+]([H])(C4([H])C([H])([H])C4([H])[H])C([H])([H])C3([H])[H])C2([H])C1([H])[H])C([H])([H])[H]

$$$$
70:0:1
     RDKit          3D

 55 58  0  0  1  0  0  0  0  0999 V2000
    3.6881   -3.3934   -4.1056 C   0  0  0  0  0  0  0  0  0  0  0  0
    3.4540   -2.6530   -2.7517 C   0  0  0  0  0  0  0  0  0  0  0  0
    3.3632   -1.1371   -3.0808 C   0  0  0  0  0  0  0  0  0  0  0  0
    4.5342   -3.0160   -1.6976 C   0  0  0  0  0  0  0  0  0  0  0  0
    5.4283   -3.8251   -2.0093 O   0  0  0  0  0  0  0  0  0  0  0  0
    4.5081   -2.4548   -0.4532 N   0  0  0  0  0  0  0  0  0  0  0  0
    5.5009   -2.7545    0.6041 C   0  0  0  0  0  0  0  0  0  0  0  0
    4.8051   -2.2466    1.8536 C   0  0  1  0  0  0  0  0  0  0  0  0
    5.4550   -1.6516    3.0747 C   0  0  0  0  0  0  0  0  0  0  0  0
    4.4513   -0.7475    3.5726 O   0  0  0  0  0  0  0  0  0  0  0  0
    3.4553   -0.4500    2.5780 C   0  0  1  0  0  0  0  0  0  0  0  0
    3.1353    1.0664    2.5509 C   0  0  0  0  0  0  0  0  0  0  0  0
    1.8212    1.4715    3.0572 N   0  0  0  0  0  0  0  0  0  0  0  0
    1.7682    2.9230    3.2464 C   0  0  0  0  0  0  0  0  0  0  0  0
    0.4076    3.3817    3.7895 C   0  0  0  0  0  0  0  0  0  0  0  0
   -0.7092    2.9824    2.8912 N   0  0  0  0  0  0  0  0  0  0  0  0
   -2.0202    3.4362    3.4341 C   0  0  0  0  0  0  0  0  0  0  0  0
   -3.2262    3.2257    2.5376 C   0  0  0  0  0  0  0  0  0  0  0  0
   -2.6259    4.6117    2.6875 C   0  0  0  0  0  0  0  0  0  0  0  0
   -0.6445    1.5116    2.6616 C   0  0  0  0  0  0  0  0  0  0  0  0
    0.7427    1.1013    2.1400 C   0  0  0  0  0  0  0  0  0  0  0  0
    4.1757   -1.0047    1.3400 C   0  0  2  0  0  0  0  0  0  0  0  0
    3.5022   -1.5221    0.1134 C   0  0  0  0  0  0  0  0  0  0  0  0
    3.7399   -4.4815   -4.0051 H   0  0  0  0  0  0  0  0  0  0  0  0
    4.6153   -3.0622   -4.5723 H   0  0  0  0  0  0  0  0  0  0  0  0
    2.8684   -3.1646   -4.7818 H   0  0  0  0  0  0  0  0  0  0  0  0
    2.4926   -3.0275   -2.3647 H   0  0  0  0  0  0  0  0  0  0  0  0
    3.0109   -0.5438   -2.2915 H   0  0  0  0  0  0  0  0  0  0  0  0
    2.5808   -0.9484   -3.8263 H   0  0  0  0  0  0  0  0  0  0  0  0
    4.3373   -0.7469   -3.4072 H   0  0  0  0  0  0  0  0  0  0  0  0
    5.7221   -3.8242    0.6887 H   0  0  0  0  0  0  0  0  0  0  0  0
    6.4347   -2.2190    0.3824 H   0  0  0  0  0  0  0  0  0  0  0  0
    4.0229   -2.9245    2.1617 H   0  0  0  0  0  0  0  0  0  0  0  0
    5.7088   -2.4166    3.8222 H   0  0  0  0  0  0  0  0  0  0  0  0
    6.3658   -1.0773    2.8252 H   0  0  0  0  0  0  0  0  0  0  0  0
    2.5604   -1.0407    2.7618 H   0  0  0  0  0  0  0  0  0  0  0  0
    3.8965    1.5584    3.1458 H   0  0  0  0  0  0  0  0  0  0  0  0
    3.2607    1.4510    1.5400 H   0  0  0  0  0  0  0  0  0  0  0  0
    2.5427    3.2201    3.9515 H   0  0  0  0  0  0  0  0  0  0  0  0
    2.0023    3.4472    2.3211 H   0  0  0  0  0  0  0  0  0  0  0  0
    0.2572    2.9553    4.7820 H   0  0  0  0  0  0  0  0  0  0  0  0
    0.4138    4.4675    3.9203 H   0  0  0  0  0  0  0  0  0  0  0  0
   -2.1495    3.3641    4.5169 H   0  0  0  0  0  0  0  0  0  0  0  0
   -3.1080    2.6997    1.6042 H   0  0  0  0  0  0  0  0  0  0  0  0
   -4.1745    3.0142    3.0223 H   0  0  0  0  0  0  0  0  0  0  0  0
   -3.2285    5.3160    3.2337 H   0  0  0  0  0  0  0  0  0  0  0  0
   -2.0867    5.0724    1.8634 H   0  0  0  0  0  0  0  0  0  0  0  0
   -0.9049    0.9787    3.5713 H   0  0  0  0  0  0  0  0  0  0  0  0
   -1.3975    1.2216    1.9322 H   0  0  0  0  0  0  0  0  0  0  0  0
    0.9102    1.5607    1.1658 H   0  0  0  0  0  0  0  0  0  0  0  0
    0.7550    0.0216    1.9757 H   0  0  0  0  0  0  0  0  0  0  0  0
    4.9488   -0.2848    1.0419 H   0  0  0  0  0  0  0  0  0  0  0  0
    3.3221   -0.5985   -0.3718 H   0  0  0  0  0  0  0  0  0  0  0  0
    2.5715   -2.0698    0.2891 H   0  0  0  0  0  0  0  0  0  0  0  0
   -0.5321    3.4412    1.9916 H   0  0  0  0  0  0  0  0  0  0  0  0
  1  2  1  0
  1 24  1  0
  1 25  1  0
  1 26  1  0
  2  3  1  0
  2  4  1  0
  2 27  1  0
  3 28  1  0
  3 29  1  0
  3 30  1  0
  4  5  2  0
  4  6  1  0
  6 23  1  0
  6  7  1  0
  7  8  1  0
  7 31  1  0
  7 32  1  0
  8 22  1  0
  8  9  1  0
  8 33  1  1
  9 10  1  0
  9 34  1  0
  9 35  1  0
 10 11  1  0
 11 12  1  0
 11 22  1  0
 11 36  1  1
 12 13  1  0
 12 37  1  0
 12 38  1  0
 13 21  1  0
 13 14  1  0
 14 15  1  0
 14 39  1  0
 14 40  1  0
 15 16  1  0
 15 41  1  0
 15 42  1  0
 16 17  1  0
 16 20  1  0
 16 55  1  0
 17 19  1  0
 17 18  1  0
 17 43  1  0
 18 19  1  0
 18 44  1  0
 18 45  1  0
 19 46  1  0
 19 47  1  0
 20 21  1  0
 20 48  1  0
 20 49  1  0
 21 50  1  0
 21 51  1  0
 22 23  1  0
 22 52  1  6
 23 53  1  0
 23 54  1  0
M  CHG  1  16   1
M  END
>  <i_m_ct_stereo_status>  (252) 
1

>  <s_m_source_file>  (252) 
/var/tmp/pbs.5076255.sched01/tmpyc7t0a4i/88yk12rjyo.sdf

>  <i_m_source_file_index>  (252) 
20

>  <i_lp_mmshare_version>  (252) 
48012

>  <i_f3d_flags>  (252) 
0

>  <s_epik_input>  (252) 
W0NIM11bQ0hdKFtDSDNdKUMoPU8pTihbQ0gyXTEpW0NIMl1bQ0BIXShbQ0BASF0xMilbQ0BASF0oT1tDSDJdMilbQ0gyXU4zW0NIMl1bQ0gyXU4oW0NIMl1bQ0gyXTMpW0NIXTRbQ0gyXVtDSDJdNA==

>  <s_epik_cmdline>  (252) 
J2VwaWtfcHl0aG9uJywgJy1waHQnLCAnMi4wJywgJy1waCcsICc3LjAnLCAnLXRuJywgJzgnLCAnLW1hJywgJzIwMCcsICctaW1hZScsICc8aW5maWxlLm1hZT4nLCAnLW9tYWUnLCAnPG91dGZpbGUubWFlPic=

>  <r_epik_Ionization_Penalty>  (252) 
0.0314521

>  <r_epik_Ionization_Penalty_Charging>  (252) 
0.000291402

>  <r_epik_Ionization_Penalty_Neutral>  (252) 
0.0311607

>  <r_epik_State_Penalty>  (252) 
0.0833811

>  <r_epik_Charging_Adjusted_Penalty>  (252) 
0.0836725

>  <i_epik_Tot_Q>  (252) 
1

>  <i_epik_Tot_abs_Q>  (252) 
1

>  <s_lp_Force_Field>  (252) 
OPLS3e

>  <r_lp_Energy>  (252) 
48.4982

>  <b_lp_Chiralities_Consistent>  (252) 
1

>  <s_lp_Variant>  (252) 
70:0-1

>  <s_i_glide_gridfile>  (252) 
pfpi4k_grid

>  <i_i_glide_lignum>  (252) 
20

>  <i_i_glide_rotatable_bonds>  (252) 
5

>  <r_i_docking_score>  (252) 
-3.03795

>  <r_i_glide_ligand_efficiency>  (252) 
-0.132085

>  <r_i_glide_ligand_efficiency_sa>  (252) 
-0.375632

>  <r_i_glide_ligand_efficiency_ln>  (252) 
-0.734604

>  <r_i_glide_gscore>  (252) 
-3.03795

>  <r_i_glide_lipo>  (252) 
-0.214433

>  <r_i_glide_hbond>  (252) 
-0.2

>  <r_i_glide_metal>  (252) 
-0

>  <r_i_glide_rewards>  (252) 
-1.21046

>  <r_i_glide_evdw>  (252) 
-21.574

>  <r_i_glide_ecoul>  (252) 
-6.25275

>  <r_i_glide_erotb>  (252) 
0.719368

>  <r_i_glide_esite>  (252) 
-0.115813

>  <r_i_glide_emodel>  (252) 
-30.558

>  <r_i_glide_energy>  (252) 
-27.8267

>  <r_i_glide_einternal>  (252) 
4.40231

>  <r_i_glide_intrahb_reward>  (252) 
-0

>  <i_i_glide_confnum>  (252) 
3

>  <i_i_glide_posenum>  (252) 
11

>  <r_i_glide_eff_state_penalty>  (252) 
0

>  <ligand_id>  (252) 
70

>  <original_smiles>  (252) 
CC(C)C(=O)N1CC2COC(CN3CCN(C4CC4)CC3)C2C1

>  <smiles>  (252) 
[H]C([H])([H])C([H])(C(=O)N1C([H])([H])C2([H])C([H])([H])OC([H])(C([H])([H])N3C([H])([H])C([H])([H])[N+]([H])(C4([H])C([H])([H])C4([H])[H])C([H])([H])C3([H])[H])C2([H])C1([H])[H])C([H])([H])[H]

$$$$
70:0:2
     RDKit          3D

 55 58  0  0  1  0  0  0  0  0999 V2000
    3.3720   -2.6861   -2.1559 C   0  0  0  0  0  0  0  0  0  0  0  0
    3.7211   -3.2700   -0.7722 C   0  0  0  0  0  0  0  0  0  0  0  0
    2.9074   -2.5719    0.3322 C   0  0  0  0  0  0  0  0  0  0  0  0
    5.2287   -3.1806   -0.4657 C   0  0  0  0  0  0  0  0  0  0  0  0
    5.8703   -2.1906   -0.8375 O   0  0  0  0  0  0  0  0  0  0  0  0
    5.8264   -4.1862    0.2207 N   0  0  0  0  0  0  0  0  0  0  0  0
    7.2450   -4.1650    0.6323 C   0  0  0  0  0  0  0  0  0  0  0  0
    7.4964   -5.6230    0.9997 C   0  0  1  0  0  0  0  0  0  0  0  0
    8.4809   -6.1356    2.0242 C   0  0  0  0  0  0  0  0  0  0  0  0
    7.8735   -7.3867    2.3960 O   0  0  0  0  0  0  0  0  0  0  0  0
    6.4911   -7.4496    1.9881 C   0  0  1  0  0  0  0  0  0  0  0  0
    5.6372   -8.0444    3.1311 C   0  0  0  0  0  0  0  0  0  0  0  0
    4.1939   -8.1062    2.8785 N   0  0  0  0  0  0  0  0  0  0  0  0
    3.8718   -9.0717    1.8285 C   0  0  0  0  0  0  0  0  0  0  0  0
    2.3615   -9.1519    1.5494 C   0  0  0  0  0  0  0  0  0  0  0  0
    1.6031   -9.4889    2.7846 N   0  0  0  0  0  0  0  0  0  0  0  0
    0.1362   -9.6835    2.5368 C   0  0  0  0  0  0  0  0  0  0  0  0
   -0.6032   -8.4446    2.0620 C   0  0  0  0  0  0  0  0  0  0  0  0
   -0.8672   -8.9769    3.4493 C   0  0  0  0  0  0  0  0  0  0  0  0
    1.9661   -8.5659    3.8903 C   0  0  0  0  0  0  0  0  0  0  0  0
    3.4820   -8.4991    4.0929 C   0  0  0  0  0  0  0  0  0  0  0  0
    6.2234   -5.9824    1.6634 C   0  0  2  0  0  0  0  0  0  0  0  0
    5.1995   -5.4468    0.6687 C   0  0  0  0  0  0  0  0  0  0  0  0
    3.9276   -3.1855   -2.9499 H   0  0  0  0  0  0  0  0  0  0  0  0
    3.5817   -1.6172   -2.2137 H   0  0  0  0  0  0  0  0  0  0  0  0
    2.3111   -2.8147   -2.3751 H   0  0  0  0  0  0  0  0  0  0  0  0
    3.4160   -4.3163   -0.8074 H   0  0  0  0  0  0  0  0  0  0  0  0
    3.0999   -3.0039    1.3139 H   0  0  0  0  0  0  0  0  0  0  0  0
    1.8393   -2.6640    0.1438 H   0  0  0  0  0  0  0  0  0  0  0  0
    3.1285   -1.5047    0.3827 H   0  0  0  0  0  0  0  0  0  0  0  0
    7.9199   -3.8144   -0.1585 H   0  0  0  0  0  0  0  0  0  0  0  0
    7.3643   -3.5123    1.5040 H   0  0  0  0  0  0  0  0  0  0  0  0
    7.6254   -6.2026    0.0830 H   0  0  0  0  0  0  0  0  0  0  0  0
    9.4740   -6.2569    1.6002 H   0  0  0  0  0  0  0  0  0  0  0  0
    8.5489   -5.4835    2.8959 H   0  0  0  0  0  0  0  0  0  0  0  0
    6.4413   -8.0732    1.0929 H   0  0  0  0  0  0  0  0  0  0  0  0
    5.9968   -9.0527    3.3519 H   0  0  0  0  0  0  0  0  0  0  0  0
    5.8195   -7.4634    4.0382 H   0  0  0  0  0  0  0  0  0  0  0  0
    4.3596   -8.7800    0.8993 H   0  0  0  0  0  0  0  0  0  0  0  0
    4.2606  -10.0567    2.0984 H   0  0  0  0  0  0  0  0  0  0  0  0
    2.0183   -8.1927    1.1576 H   0  0  0  0  0  0  0  0  0  0  0  0
    2.1969   -9.8987    0.7731 H   0  0  0  0  0  0  0  0  0  0  0  0
   -0.1152  -10.6391    2.0841 H   0  0  0  0  0  0  0  0  0  0  0  0
   -0.0386   -7.5245    1.9576 H   0  0  0  0  0  0  0  0  0  0  0  0
   -1.3853   -8.5834    1.3185 H   0  0  0  0  0  0  0  0  0  0  0  0
   -1.8321   -9.4509    3.5999 H   0  0  0  0  0  0  0  0  0  0  0  0
   -0.5603   -8.3378    4.2719 H   0  0  0  0  0  0  0  0  0  0  0  0
    1.5796   -7.5641    3.6856 H   0  0  0  0  0  0  0  0  0  0  0  0
    1.5421   -8.9341    4.8249 H   0  0  0  0  0  0  0  0  0  0  0  0
    3.8435   -9.4641    4.4546 H   0  0  0  0  0  0  0  0  0  0  0  0
    3.6784   -7.7785    4.8879 H   0  0  0  0  0  0  0  0  0  0  0  0
    6.1110   -5.4269    2.5992 H   0  0  0  0  0  0  0  0  0  0  0  0
    4.2332   -5.3005    1.1532 H   0  0  0  0  0  0  0  0  0  0  0  0
    5.0852   -6.1167   -0.1866 H   0  0  0  0  0  0  0  0  0  0  0  0
    1.9443  -10.4008    3.0716 H   0  0  0  0  0  0  0  0  0  0  0  0
  1  2  1  0
  1 24  1  0
  1 25  1  0
  1 26  1  0
  2  3  1  0
  2  4  1  0
  2 27  1  0
  3 28  1  0
  3 29  1  0
  3 30  1  0
  4  5  2  0
  4  6  1  0
  6 23  1  0
  6  7  1  0
  7  8  1  0
  7 31  1  0
  7 32  1  0
  8 22  1  0
  8  9  1  0
  8 33  1  6
  9 10  1  0
  9 34  1  0
  9 35  1  0
 10 11  1  0
 11 12  1  0
 11 22  1  0
 11 36  1  6
 12 13  1  0
 12 37  1  0
 12 38  1  0
 13 21  1  0
 13 14  1  0
 14 15  1  0
 14 39  1  0
 14 40  1  0
 15 16  1  0
 15 41  1  0
 15 42  1  0
 16 17  1  0
 16 20  1  0
 16 55  1  0
 17 19  1  0
 17 18  1  0
 17 43  1  0
 18 19  1  0
 18 44  1  0
 18 45  1  0
 19 46  1  0
 19 47  1  0
 20 21  1  0
 20 48  1  0
 20 49  1  0
 21 50  1  0
 21 51  1  0
 22 23  1  0
 22 52  1  1
 23 53  1  0
 23 54  1  0
M  CHG  1  16   1
M  END
>  <i_m_ct_stereo_status>  (253) 
1

>  <s_m_source_file>  (253) 
/var/tmp/pbs.5076255.sched01/tmpyc7t0a4i/88yk12rjyo.sdf

>  <i_m_source_file_index>  (253) 
20

>  <i_lp_mmshare_version>  (253) 
48012

>  <i_f3d_flags>  (253) 
0

>  <s_epik_input>  (253) 
W0NIM11bQ0hdKFtDSDNdKUMoPU8pTihbQ0gyXTEpW0NIMl1bQ0BIXShbQ0BASF0xMilbQ0BASF0oT1tDSDJdMilbQ0gyXU4zW0NIMl1bQ0gyXU4oW0NIMl1bQ0gyXTMpW0NIXTRbQ0gyXVtDSDJdNA==

>  <s_epik_cmdline>  (253) 
J2VwaWtfcHl0aG9uJywgJy1waHQnLCAnMi4wJywgJy1waCcsICc3LjAnLCAnLXRuJywgJzgnLCAnLW1hJywgJzIwMCcsICctaW1hZScsICc8aW5maWxlLm1hZT4nLCAnLW9tYWUnLCAnPG91dGZpbGUubWFlPic=

>  <r_epik_Ionization_Penalty>  (253) 
0.0314521

>  <r_epik_Ionization_Penalty_Charging>  (253) 
0.000291402

>  <r_epik_Ionization_Penalty_Neutral>  (253) 
0.0311607

>  <r_epik_State_Penalty>  (253) 
0.0833811

>  <r_epik_Charging_Adjusted_Penalty>  (253) 
0.0836725

>  <i_epik_Tot_Q>  (253) 
1

>  <i_epik_Tot_abs_Q>  (253) 
1

>  <s_lp_Force_Field>  (253) 
OPLS3e

>  <r_lp_Energy>  (253) 
48.4982

>  <b_lp_Chiralities_Consistent>  (253) 
1

>  <s_lp_Variant>  (253) 
70:0-1

>  <s_i_glide_gridfile>  (253) 
pfpi4k_grid

>  <i_i_glide_lignum>  (253) 
20

>  <i_i_glide_rotatable_bonds>  (253) 
5

>  <r_i_docking_score>  (253) 
-2.85393

>  <r_i_glide_ligand_efficiency>  (253) 
-0.124084

>  <r_i_glide_ligand_efficiency_sa>  (253) 
-0.352879

>  <r_i_glide_ligand_efficiency_ln>  (253) 
-0.690107

>  <r_i_glide_gscore>  (253) 
-2.85393

>  <r_i_glide_lipo>  (253) 
-0.511393

>  <r_i_glide_hbond>  (253) 
0

>  <r_i_glide_metal>  (253) 
-0

>  <r_i_glide_rewards>  (253) 
-1.36274

>  <r_i_glide_evdw>  (253) 
-22.7529

>  <r_i_glide_ecoul>  (253) 
-3.74351

>  <r_i_glide_erotb>  (253) 
0.719368

>  <r_i_glide_esite>  (253) 
0

>  <r_i_glide_emodel>  (253) 
-27.7325

>  <r_i_glide_energy>  (253) 
-26.4964

>  <r_i_glide_einternal>  (253) 
10.137

>  <r_i_glide_intrahb_reward>  (253) 
-0

>  <i_i_glide_confnum>  (253) 
2

>  <i_i_glide_posenum>  (253) 
26

>  <r_i_glide_eff_state_penalty>  (253) 
0

>  <ligand_id>  (253) 
70

>  <original_smiles>  (253) 
CC(C)C(=O)N1CC2COC(CN3CCN(C4CC4)CC3)C2C1

>  <smiles>  (253) 
[H]C([H])([H])C([H])(C(=O)N1C([H])([H])C2([H])C([H])([H])OC([H])(C([H])([H])N3C([H])([H])C([H])([H])[N+]([H])(C4([H])C([H])([H])C4([H])[H])C([H])([H])C3([H])[H])C2([H])C1([H])[H])C([H])([H])[H]

$$$$
70:1:0
     RDKit          3D

 55 58  0  0  1  0  0  0  0  0999 V2000
    4.1354   -3.6269   -4.0171 C   0  0  0  0  0  0  0  0  0  0  0  0
    3.8839   -2.4730   -3.0327 C   0  0  0  0  0  0  0  0  0  0  0  0
    3.6632   -1.1584   -3.8060 C   0  0  0  0  0  0  0  0  0  0  0  0
    5.0154   -2.3278   -2.0009 C   0  0  0  0  0  0  0  0  0  0  0  0
    6.1681   -2.6767   -2.3075 O   0  0  0  0  0  0  0  0  0  0  0  0
    4.7524   -1.8378   -0.7901 N   0  0  0  0  0  0  0  0  0  0  0  0
    5.7473   -1.6860    0.2936 C   0  0  0  0  0  0  0  0  0  0  0  0
    4.8587   -1.4319    1.5112 C   0  0  1  0  0  0  0  0  0  0  0  0
    5.2134   -0.6341    2.7386 C   0  0  0  0  0  0  0  0  0  0  0  0
    3.9347   -0.1339    3.1490 O   0  0  0  0  0  0  0  0  0  0  0  0
    2.9270   -0.3148    2.1444 C   0  0  1  0  0  0  0  0  0  0  0  0
    1.9988    0.9242    2.0208 C   0  0  0  0  0  0  0  0  0  0  0  0
    1.3791    1.3798    3.2921 N   0  0  0  0  0  0  0  0  0  0  0  0
    0.4809    0.3999    3.9224 C   0  0  0  0  0  0  0  0  0  0  0  0
   -0.0573    0.9322    5.2671 C   0  0  0  0  0  0  0  0  0  0  0  0
   -0.8061    2.1765    5.0721 N   0  0  0  0  0  0  0  0  0  0  0  0
   -1.2898    2.6529    6.3635 C   0  0  0  0  0  0  0  0  0  0  0  0
   -2.4472    1.9192    7.0057 C   0  0  0  0  0  0  0  0  0  0  0  0
   -2.6612    3.2847    6.4075 C   0  0  0  0  0  0  0  0  0  0  0  0
    0.1087    3.1750    4.5059 C   0  0  0  0  0  0  0  0  0  0  0  0
    0.6753    2.6728    3.1584 C   0  0  0  0  0  0  0  0  0  0  0  0
    3.8171   -0.5485    0.9327 C   0  0  2  0  0  0  0  0  0  0  0  0
    3.4497   -1.3349   -0.3150 C   0  0  0  0  0  0  0  0  0  0  0  0
    4.2911   -4.5800   -3.5133 H   0  0  0  0  0  0  0  0  0  0  0  0
    5.0140   -3.4637   -4.6383 H   0  0  0  0  0  0  0  0  0  0  0  0
    3.2840   -3.7429   -4.6845 H   0  0  0  0  0  0  0  0  0  0  0  0
    2.9641   -2.7244   -2.4997 H   0  0  0  0  0  0  0  0  0  0  0  0
    3.4274   -0.3239   -3.1479 H   0  0  0  0  0  0  0  0  0  0  0  0
    2.8232   -1.2490   -4.4968 H   0  0  0  0  0  0  0  0  0  0  0  0
    4.5455   -0.8762   -4.3812 H   0  0  0  0  0  0  0  0  0  0  0  0
    6.3600   -2.5865    0.4203 H   0  0  0  0  0  0  0  0  0  0  0  0
    6.4102   -0.8382    0.0869 H   0  0  0  0  0  0  0  0  0  0  0  0
    4.4235   -2.3890    1.8222 H   0  0  0  0  0  0  0  0  0  0  0  0
    5.6821   -1.2437    3.4995 H   0  0  0  0  0  0  0  0  0  0  0  0
    5.8599    0.1982    2.5015 H   0  0  0  0  0  0  0  0  0  0  0  0
    2.3685   -1.2216    2.3730 H   0  0  0  0  0  0  0  0  0  0  0  0
    2.5604    1.7577    1.5947 H   0  0  0  0  0  0  0  0  0  0  0  0
    1.2120    0.6939    1.2966 H   0  0  0  0  0  0  0  0  0  0  0  0
   -0.3480    0.1694    3.2468 H   0  0  0  0  0  0  0  0  0  0  0  0
    1.0273   -0.5207    4.1159 H   0  0  0  0  0  0  0  0  0  0  0  0
   -0.7405    0.1881    5.6784 H   0  0  0  0  0  0  0  0  0  0  0  0
    0.7446    1.0698    6.0056 H   0  0  0  0  0  0  0  0  0  0  0  0
   -0.5716    3.0488    7.0793 H   0  0  0  0  0  0  0  0  0  0  0  0
   -2.8743    1.0675    6.4830 H   0  0  0  0  0  0  0  0  0  0  0  0
   -2.4653    1.8594    8.0911 H   0  0  0  0  0  0  0  0  0  0  0  0
   -2.8219    4.0935    7.1150 H   0  0  0  0  0  0  0  0  0  0  0  0
   -3.2405    3.3391    5.4876 H   0  0  0  0  0  0  0  0  0  0  0  0
   -0.4433    4.1075    4.3621 H   0  0  0  0  0  0  0  0  0  0  0  0
    0.9199    3.3916    5.2092 H   0  0  0  0  0  0  0  0  0  0  0  0
    1.3887    3.4052    2.7885 H   0  0  0  0  0  0  0  0  0  0  0  0
   -0.1255    2.5752    2.4213 H   0  0  0  0  0  0  0  0  0  0  0  0
    4.2679    0.4048    0.6302 H   0  0  0  0  0  0  0  0  0  0  0  0
    2.9982   -0.6708   -1.0422 H   0  0  0  0  0  0  0  0  0  0  0  0
    2.7663   -2.1584   -0.1046 H   0  0  0  0  0  0  0  0  0  0  0  0
    2.1504    1.5406    3.9300 H   0  0  0  0  0  0  0  0  0  0  0  0
  1  2  1  0
  1 24  1  0
  1 25  1  0
  1 26  1  0
  2  3  1  0
  2  4  1  0
  2 27  1  0
  3 28  1  0
  3 29  1  0
  3 30  1  0
  4  5  2  0
  4  6  1  0
  6 23  1  0
  6  7  1  0
  7  8  1  0
  7 31  1  0
  7 32  1  0
  8 22  1  0
  8  9  1  0
  8 33  1  1
  9 10  1  0
  9 34  1  0
  9 35  1  0
 10 11  1  0
 11 12  1  0
 11 22  1  0
 11 36  1  1
 12 13  1  0
 12 37  1  0
 12 38  1  0
 13 21  1  0
 13 14  1  0
 13 55  1  0
 14 15  1  0
 14 39  1  0
 14 40  1  0
 15 16  1  0
 15 41  1  0
 15 42  1  0
 16 17  1  0
 16 20  1  0
 17 19  1  0
 17 18  1  0
 17 43  1  0
 18 19  1  0
 18 44  1  0
 18 45  1  0
 19 46  1  0
 19 47  1  0
 20 21  1  0
 20 48  1  0
 20 49  1  0
 21 50  1  0
 21 51  1  0
 22 23  1  0
 22 52  1  6
 23 53  1  0
 23 54  1  0
M  CHG  1  13   1
M  END
>  <i_m_ct_stereo_status>  (254) 
1

>  <s_m_source_file>  (254) 
/var/tmp/pbs.5076255.sched01/tmpyc7t0a4i/88yk12rjyo.sdf

>  <i_m_source_file_index>  (254) 
21

>  <i_lp_mmshare_version>  (254) 
48012

>  <i_f3d_flags>  (254) 
0

>  <s_epik_input>  (254) 
W0NIM11bQ0hdKFtDSDNdKUMoPU8pTihbQ0gyXTEpW0NIMl1bQ0BIXShbQ0BASF0xMilbQ0BASF0oT1tDSDJdMilbQ0gyXU4zW0NIMl1bQ0gyXU4oW0NIMl1bQ0gyXTMpW0NIXTRbQ0gyXVtDSDJdNA==

>  <s_epik_cmdline>  (254) 
J2VwaWtfcHl0aG9uJywgJy1waHQnLCAnMi4wJywgJy1waCcsICc3LjAnLCAnLXRuJywgJzgnLCAnLW1hJywgJzIwMCcsICctaW1hZScsICc8aW5maWxlLm1hZT4nLCAnLW9tYWUnLCAnPG91dGZpbGUubWFlPic=

>  <r_epik_Ionization_Penalty>  (254) 
0.219459

>  <r_epik_Ionization_Penalty_Charging>  (254) 
0.00356891

>  <r_epik_Ionization_Penalty_Neutral>  (254) 
0.21589

>  <r_epik_State_Penalty>  (254) 
1.40912

>  <r_epik_Charging_Adjusted_Penalty>  (254) 
1.41268

>  <i_epik_Tot_Q>  (254) 
1

>  <i_epik_Tot_abs_Q>  (254) 
1

>  <s_lp_Force_Field>  (254) 
OPLS3e

>  <r_lp_Energy>  (254) 
40.1259

>  <b_lp_Chiralities_Consistent>  (254) 
1

>  <s_lp_Variant>  (254) 
70:0-2

>  <s_i_glide_gridfile>  (254) 
pfpi4k_grid

>  <i_i_glide_lignum>  (254) 
21

>  <i_i_glide_rotatable_bonds>  (254) 
5

>  <r_i_docking_score>  (254) 
-3.15908

>  <r_i_glide_ligand_efficiency>  (254) 
-0.137352

>  <r_i_glide_ligand_efficiency_sa>  (254) 
-0.390609

>  <r_i_glide_ligand_efficiency_ln>  (254) 
-0.763895

>  <r_i_glide_gscore>  (254) 
-3.15908

>  <r_i_glide_lipo>  (254) 
-0.691859

>  <r_i_glide_hbond>  (254) 
0

>  <r_i_glide_metal>  (254) 
-0

>  <r_i_glide_rewards>  (254) 
-1.23218

>  <r_i_glide_evdw>  (254) 
-26.32

>  <r_i_glide_ecoul>  (254) 
-3.94564

>  <r_i_glide_erotb>  (254) 
0.719368

>  <r_i_glide_esite>  (254) 
-0.0465716

>  <r_i_glide_emodel>  (254) 
-35.7183

>  <r_i_glide_energy>  (254) 
-30.2657

>  <r_i_glide_einternal>  (254) 
2.50213

>  <r_i_glide_intrahb_reward>  (254) 
-0

>  <i_i_glide_confnum>  (254) 
4

>  <i_i_glide_posenum>  (254) 
1

>  <r_i_glide_eff_state_penalty>  (254) 
0

>  <ligand_id>  (254) 
70

>  <original_smiles>  (254) 
CC(C)C(=O)N1CC2COC(CN3CCN(C4CC4)CC3)C2C1

>  <smiles>  (254) 
[H]C([H])([H])C([H])(C(=O)N1C([H])([H])C2([H])C([H])([H])OC([H])(C([H])([H])[N+]3([H])C([H])([H])C([H])([H])N(C4([H])C([H])([H])C4([H])[H])C([H])([H])C3([H])[H])C2([H])C1([H])[H])C([H])([H])[H]

$$$$
70:1:1
     RDKit          3D

 55 58  0  0  1  0  0  0  0  0999 V2000
    3.4820   -3.3928   -4.1084 C   0  0  0  0  0  0  0  0  0  0  0  0
    3.7401   -2.1497   -3.2570 C   0  0  0  0  0  0  0  0  0  0  0  0
    4.0944   -0.9383   -4.1374 C   0  0  0  0  0  0  0  0  0  0  0  0
    4.8453   -2.4005   -2.2075 C   0  0  0  0  0  0  0  0  0  0  0  0
    5.8830   -2.9719   -2.5651 O   0  0  0  0  0  0  0  0  0  0  0  0
    4.6950   -1.9551   -0.9610 N   0  0  0  0  0  0  0  0  0  0  0  0
    5.7556   -1.9667    0.0780 C   0  0  0  0  0  0  0  0  0  0  0  0
    4.9538   -1.7203    1.3558 C   0  0  1  0  0  0  0  0  0  0  0  0
    5.4318   -1.0248    2.6019 C   0  0  0  0  0  0  0  0  0  0  0  0
    4.2077   -0.4801    3.1225 O   0  0  0  0  0  0  0  0  0  0  0  0
    3.1323   -0.5213    2.1723 C   0  0  1  0  0  0  0  0  0  0  0  0
    2.3081    0.7915    2.1785 C   0  0  0  0  0  0  0  0  0  0  0  0
    1.4809    1.0175    3.3931 N   0  0  0  0  0  0  0  0  0  0  0  0
    0.1075    0.4645    3.3161 C   0  0  0  0  0  0  0  0  0  0  0  0
   -0.6722    0.7089    4.6302 C   0  0  0  0  0  0  0  0  0  0  0  0
   -0.7494    2.1405    4.9364 N   0  0  0  0  0  0  0  0  0  0  0  0
   -1.4760    2.3223    6.1917 C   0  0  0  0  0  0  0  0  0  0  0  0
   -2.8906    2.8578    6.1263 C   0  0  0  0  0  0  0  0  0  0  0  0
   -1.7818    3.7349    6.6384 C   0  0  0  0  0  0  0  0  0  0  0  0
    0.6137    2.6528    5.0842 C   0  0  0  0  0  0  0  0  0  0  0  0
    1.3999    2.4398    3.7766 C   0  0  0  0  0  0  0  0  0  0  0  0
    3.9510   -0.7270    0.9041 C   0  0  2  0  0  0  0  0  0  0  0  0
    3.4652   -1.3907   -0.3744 C   0  0  0  0  0  0  0  0  0  0  0  0
    3.2066   -4.2571   -3.5098 H   0  0  0  0  0  0  0  0  0  0  0  0
    4.3480   -3.6785   -4.7094 H   0  0  0  0  0  0  0  0  0  0  0  0
    2.6274   -3.2068   -4.7541 H   0  0  0  0  0  0  0  0  0  0  0  0
    2.7875   -1.9409   -2.7740 H   0  0  0  0  0  0  0  0  0  0  0  0
    4.2283   -0.0402   -3.5354 H   0  0  0  0  0  0  0  0  0  0  0  0
    3.2961   -0.7295   -4.8501 H   0  0  0  0  0  0  0  0  0  0  0  0
    5.0065   -1.0883   -4.7135 H   0  0  0  0  0  0  0  0  0  0  0  0
    6.3015   -2.9138    0.1113 H   0  0  0  0  0  0  0  0  0  0  0  0
    6.4687   -1.1610   -0.1105 H   0  0  0  0  0  0  0  0  0  0  0  0
    4.4707   -2.6596    1.6417 H   0  0  0  0  0  0  0  0  0  0  0  0
    5.8870   -1.7186    3.2933 H   0  0  0  0  0  0  0  0  0  0  0  0
    6.1294   -0.2230    2.3899 H   0  0  0  0  0  0  0  0  0  0  0  0
    2.5232   -1.4013    2.3781 H   0  0  0  0  0  0  0  0  0  0  0  0
    2.9907    1.6314    2.0106 H   0  0  0  0  0  0  0  0  0  0  0  0
    1.6556    0.7884    1.3052 H   0  0  0  0  0  0  0  0  0  0  0  0
   -0.4308    0.9235    2.4843 H   0  0  0  0  0  0  0  0  0  0  0  0
    0.1681   -0.6039    3.1251 H   0  0  0  0  0  0  0  0  0  0  0  0
   -1.6926    0.3337    4.5190 H   0  0  0  0  0  0  0  0  0  0  0  0
   -0.2242    0.1603    5.4676 H   0  0  0  0  0  0  0  0  0  0  0  0
   -1.2814    1.6423    7.0201 H   0  0  0  0  0  0  0  0  0  0  0  0
   -3.3097    3.0943    5.1507 H   0  0  0  0  0  0  0  0  0  0  0  0
   -3.6034    2.5165    6.8732 H   0  0  0  0  0  0  0  0  0  0  0  0
   -1.7686    3.9377    7.7068 H   0  0  0  0  0  0  0  0  0  0  0  0
   -1.4482    4.5480    6.0032 H   0  0  0  0  0  0  0  0  0  0  0  0
    0.5648    3.7222    5.2998 H   0  0  0  0  0  0  0  0  0  0  0  0
    1.1142    2.1785    5.9333 H   0  0  0  0  0  0  0  0  0  0  0  0
    2.4148    2.7861    3.9337 H   0  0  0  0  0  0  0  0  0  0  0  0
    0.9711    3.0189    2.9560 H   0  0  0  0  0  0  0  0  0  0  0  0
    4.4524    0.2131    0.6427 H   0  0  0  0  0  0  0  0  0  0  0  0
    3.0058   -0.6527   -1.0315 H   0  0  0  0  0  0  0  0  0  0  0  0
    2.7459   -2.1855   -0.1758 H   0  0  0  0  0  0  0  0  0  0  0  0
    1.9576    0.5555    4.1534 H   0  0  0  0  0  0  0  0  0  0  0  0
  1  2  1  0
  1 24  1  0
  1 25  1  0
  1 26  1  0
  2  3  1  0
  2  4  1  0
  2 27  1  0
  3 28  1  0
  3 29  1  0
  3 30  1  0
  4  5  2  0
  4  6  1  0
  6 23  1  0
  6  7  1  0
  7  8  1  0
  7 31  1  0
  7 32  1  0
  8 22  1  0
  8  9  1  0
  8 33  1  1
  9 10  1  0
  9 34  1  0
  9 35  1  0
 10 11  1  0
 11 12  1  0
 11 22  1  0
 11 36  1  1
 12 13  1  0
 12 37  1  0
 12 38  1  0
 13 21  1  0
 13 14  1  0
 13 55  1  0
 14 15  1  0
 14 39  1  0
 14 40  1  0
 15 16  1  0
 15 41  1  0
 15 42  1  0
 16 17  1  0
 16 20  1  0
 17 19  1  0
 17 18  1  0
 17 43  1  0
 18 19  1  0
 18 44  1  0
 18 45  1  0
 19 46  1  0
 19 47  1  0
 20 21  1  0
 20 48  1  0
 20 49  1  0
 21 50  1  0
 21 51  1  0
 22 23  1  0
 22 52  1  6
 23 53  1  0
 23 54  1  0
M  CHG  1  13   1
M  END
>  <i_m_ct_stereo_status>  (255) 
1

>  <s_m_source_file>  (255) 
/var/tmp/pbs.5076255.sched01/tmpyc7t0a4i/88yk12rjyo.sdf

>  <i_m_source_file_index>  (255) 
21

>  <i_lp_mmshare_version>  (255) 
48012

>  <i_f3d_flags>  (255) 
0

>  <s_epik_input>  (255) 
W0NIM11bQ0hdKFtDSDNdKUMoPU8pTihbQ0gyXTEpW0NIMl1bQ0BIXShbQ0BASF0xMilbQ0BASF0oT1tDSDJdMilbQ0gyXU4zW0NIMl1bQ0gyXU4oW0NIMl1bQ0gyXTMpW0NIXTRbQ0gyXVtDSDJdNA==

>  <s_epik_cmdline>  (255) 
J2VwaWtfcHl0aG9uJywgJy1waHQnLCAnMi4wJywgJy1waCcsICc3LjAnLCAnLXRuJywgJzgnLCAnLW1hJywgJzIwMCcsICctaW1hZScsICc8aW5maWxlLm1hZT4nLCAnLW9tYWUnLCAnPG91dGZpbGUubWFlPic=

>  <r_epik_Ionization_Penalty>  (255) 
0.219459

>  <r_epik_Ionization_Penalty_Charging>  (255) 
0.00356891

>  <r_epik_Ionization_Penalty_Neutral>  (255) 
0.21589

>  <r_epik_State_Penalty>  (255) 
1.40912

>  <r_epik_Charging_Adjusted_Penalty>  (255) 
1.41268

>  <i_epik_Tot_Q>  (255) 
1

>  <i_epik_Tot_abs_Q>  (255) 
1

>  <s_lp_Force_Field>  (255) 
OPLS3e

>  <r_lp_Energy>  (255) 
40.1259

>  <b_lp_Chiralities_Consistent>  (255) 
1

>  <s_lp_Variant>  (255) 
70:0-2

>  <s_i_glide_gridfile>  (255) 
pfpi4k_grid

>  <i_i_glide_lignum>  (255) 
21

>  <i_i_glide_rotatable_bonds>  (255) 
5

>  <r_i_docking_score>  (255) 
-3.15595

>  <r_i_glide_ligand_efficiency>  (255) 
-0.137215

>  <r_i_glide_ligand_efficiency_sa>  (255) 
-0.390222

>  <r_i_glide_ligand_efficiency_ln>  (255) 
-0.763138

>  <r_i_glide_gscore>  (255) 
-3.15595

>  <r_i_glide_lipo>  (255) 
-0.628383

>  <r_i_glide_hbond>  (255) 
0

>  <r_i_glide_metal>  (255) 
-0

>  <r_i_glide_rewards>  (255) 
-1.30157

>  <r_i_glide_evdw>  (255) 
-25.9953

>  <r_i_glide_ecoul>  (255) 
-4.03408

>  <r_i_glide_erotb>  (255) 
0.719368

>  <r_i_glide_esite>  (255) 
-0.0404928

>  <r_i_glide_emodel>  (255) 
-35.048

>  <r_i_glide_energy>  (255) 
-30.0294

>  <r_i_glide_einternal>  (255) 
2.95675

>  <r_i_glide_intrahb_reward>  (255) 
-0

>  <i_i_glide_confnum>  (255) 
4

>  <i_i_glide_posenum>  (255) 
8

>  <r_i_glide_eff_state_penalty>  (255) 
0

>  <ligand_id>  (255) 
70

>  <original_smiles>  (255) 
CC(C)C(=O)N1CC2COC(CN3CCN(C4CC4)CC3)C2C1

>  <smiles>  (255) 
[H]C([H])([H])C([H])(C(=O)N1C([H])([H])C2([H])C([H])([H])OC([H])(C([H])([H])[N+]3([H])C([H])([H])C([H])([H])N(C4([H])C([H])([H])C4([H])[H])C([H])([H])C3([H])[H])C2([H])C1([H])[H])C([H])([H])[H]

$$$$
70:1:2
     RDKit          3D

 55 58  0  0  1  0  0  0  0  0999 V2000
    3.0632   -3.3790   -4.0991 C   0  0  0  0  0  0  0  0  0  0  0  0
    3.5406   -2.2201   -3.2198 C   0  0  0  0  0  0  0  0  0  0  0  0
    3.9649   -1.0178   -4.0753 C   0  0  0  0  0  0  0  0  0  0  0  0
    4.6962   -2.6631   -2.2954 C   0  0  0  0  0  0  0  0  0  0  0  0
    5.6422   -3.3032   -2.7761 O   0  0  0  0  0  0  0  0  0  0  0  0
    4.6629   -2.3479   -0.9913 N   0  0  0  0  0  0  0  0  0  0  0  0
    5.6704   -2.7621    0.0121 C   0  0  0  0  0  0  0  0  0  0  0  0
    4.9463   -2.4340    1.3198 C   0  0  1  0  0  0  0  0  0  0  0  0
    5.5748   -2.0439    2.6312 C   0  0  0  0  0  0  0  0  0  0  0  0
    4.5452   -1.2251    3.2196 O   0  0  0  0  0  0  0  0  0  0  0  0
    3.5243   -0.8563    2.2737 C   0  0  1  0  0  0  0  0  0  0  0  0
    3.0974    0.6299    2.4341 C   0  0  0  0  0  0  0  0  0  0  0  0
    1.7296    0.8282    2.9829 N   0  0  0  0  0  0  0  0  0  0  0  0
    0.6729    0.9466    1.9380 C   0  0  0  0  0  0  0  0  0  0  0  0
   -0.7280    1.1125    2.5713 C   0  0  0  0  0  0  0  0  0  0  0  0
   -0.7690    2.2936    3.4345 N   0  0  0  0  0  0  0  0  0  0  0  0
   -2.1006    2.4097    4.0176 C   0  0  0  0  0  0  0  0  0  0  0  0
   -3.0966    3.3261    3.3406 C   0  0  0  0  0  0  0  0  0  0  0  0
   -2.4819    3.7286    4.6571 C   0  0  0  0  0  0  0  0  0  0  0  0
    0.2170    2.1378    4.4993 C   0  0  0  0  0  0  0  0  0  0  0  0
    1.6293    1.9898    3.8951 C   0  0  0  0  0  0  0  0  0  0  0  0
    4.2836   -1.1522    0.9895 C   0  0  2  0  0  0  0  0  0  0  0  0
    3.6371   -1.5145   -0.3381 C   0  0  0  0  0  0  0  0  0  0  0  0
    2.7221   -4.2285   -3.5163 H   0  0  0  0  0  0  0  0  0  0  0  0
    3.8588   -3.7380   -4.7465 H   0  0  0  0  0  0  0  0  0  0  0  0
    2.2108   -3.0789   -4.7127 H   0  0  0  0  0  0  0  0  0  0  0  0
    2.6732   -1.9185   -2.6322 H   0  0  0  0  0  0  0  0  0  0  0  0
    4.2619   -0.1717   -3.4570 H   0  0  0  0  0  0  0  0  0  0  0  0
    3.1469   -0.6873   -4.7156 H   0  0  0  0  0  0  0  0  0  0  0  0
    4.8067   -1.2646   -4.7158 H   0  0  0  0  0  0  0  0  0  0  0  0
    5.9108   -3.8241   -0.0692 H   0  0  0  0  0  0  0  0  0  0  0  0
    6.5875   -2.1813   -0.1090 H   0  0  0  0  0  0  0  0  0  0  0  0
    4.2074   -3.2167    1.5061 H   0  0  0  0  0  0  0  0  0  0  0  0
    5.7914   -2.9172    3.2374 H   0  0  0  0  0  0  0  0  0  0  0  0
    6.4801   -1.4603    2.4768 H   0  0  0  0  0  0  0  0  0  0  0  0
    2.6907   -1.5572    2.3840 H   0  0  0  0  0  0  0  0  0  0  0  0
    3.8373    1.1392    3.0539 H   0  0  0  0  0  0  0  0  0  0  0  0
    3.1648    1.1354    1.4719 H   0  0  0  0  0  0  0  0  0  0  0  0
    0.8788    1.8015    1.2902 H   0  0  0  0  0  0  0  0  0  0  0  0
    0.6886    0.0565    1.3127 H   0  0  0  0  0  0  0  0  0  0  0  0
   -1.4663    1.2450    1.7762 H   0  0  0  0  0  0  0  0  0  0  0  0
   -1.0233    0.2217    3.1335 H   0  0  0  0  0  0  0  0  0  0  0  0
   -2.5397    1.5327    4.4971 H   0  0  0  0  0  0  0  0  0  0  0  0
   -2.7787    3.8677    2.4526 H   0  0  0  0  0  0  0  0  0  0  0  0
   -4.1390    3.0235    3.3595 H   0  0  0  0  0  0  0  0  0  0  0  0
   -3.1182    3.6842    5.5376 H   0  0  0  0  0  0  0  0  0  0  0  0
   -1.7526    4.5367    4.6434 H   0  0  0  0  0  0  0  0  0  0  0  0
    0.1820    3.0250    5.1347 H   0  0  0  0  0  0  0  0  0  0  0  0
   -0.0374    1.2859    5.1339 H   0  0  0  0  0  0  0  0  0  0  0  0
    2.3314    1.8268    4.7092 H   0  0  0  0  0  0  0  0  0  0  0  0
    1.9232    2.9000    3.3672 H   0  0  0  0  0  0  0  0  0  0  0  0
    5.0415   -0.3756    0.8279 H   0  0  0  0  0  0  0  0  0  0  0  0
    3.4231   -0.6358   -0.9270 H   0  0  0  0  0  0  0  0  0  0  0  0
    2.7173   -2.0832   -0.1918 H   0  0  0  0  0  0  0  0  0  0  0  0
    1.5044    0.0194    3.5443 H   0  0  0  0  0  0  0  0  0  0  0  0
  1  2  1  0
  1 24  1  0
  1 25  1  0
  1 26  1  0
  2  3  1  0
  2  4  1  0
  2 27  1  0
  3 28  1  0
  3 29  1  0
  3 30  1  0
  4  5  2  0
  4  6  1  0
  6 23  1  0
  6  7  1  0
  7  8  1  0
  7 31  1  0
  7 32  1  0
  8 22  1  0
  8  9  1  0
  8 33  1  1
  9 10  1  0
  9 34  1  0
  9 35  1  0
 10 11  1  0
 11 12  1  0
 11 22  1  0
 11 36  1  1
 12 13  1  0
 12 37  1  0
 12 38  1  0
 13 21  1  0
 13 14  1  0
 13 55  1  0
 14 15  1  0
 14 39  1  0
 14 40  1  0
 15 16  1  0
 15 41  1  0
 15 42  1  0
 16 17  1  0
 16 20  1  0
 17 19  1  0
 17 18  1  0
 17 43  1  0
 18 19  1  0
 18 44  1  0
 18 45  1  0
 19 46  1  0
 19 47  1  0
 20 21  1  0
 20 48  1  0
 20 49  1  0
 21 50  1  0
 21 51  1  0
 22 23  1  0
 22 52  1  6
 23 53  1  0
 23 54  1  0
M  CHG  1  13   1
M  END
>  <i_m_ct_stereo_status>  (256) 
1

>  <s_m_source_file>  (256) 
/var/tmp/pbs.5076255.sched01/tmpyc7t0a4i/88yk12rjyo.sdf

>  <i_m_source_file_index>  (256) 
21

>  <i_lp_mmshare_version>  (256) 
48012

>  <i_f3d_flags>  (256) 
0

>  <s_epik_input>  (256) 
W0NIM11bQ0hdKFtDSDNdKUMoPU8pTihbQ0gyXTEpW0NIMl1bQ0BIXShbQ0BASF0xMilbQ0BASF0oT1tDSDJdMilbQ0gyXU4zW0NIMl1bQ0gyXU4oW0NIMl1bQ0gyXTMpW0NIXTRbQ0gyXVtDSDJdNA==

>  <s_epik_cmdline>  (256) 
J2VwaWtfcHl0aG9uJywgJy1waHQnLCAnMi4wJywgJy1waCcsICc3LjAnLCAnLXRuJywgJzgnLCAnLW1hJywgJzIwMCcsICctaW1hZScsICc8aW5maWxlLm1hZT4nLCAnLW9tYWUnLCAnPG91dGZpbGUubWFlPic=

>  <r_epik_Ionization_Penalty>  (256) 
0.219459

>  <r_epik_Ionization_Penalty_Charging>  (256) 
0.00356891

>  <r_epik_Ionization_Penalty_Neutral>  (256) 
0.21589

>  <r_epik_State_Penalty>  (256) 
1.40912

>  <r_epik_Charging_Adjusted_Penalty>  (256) 
1.41268

>  <i_epik_Tot_Q>  (256) 
1

>  <i_epik_Tot_abs_Q>  (256) 
1

>  <s_lp_Force_Field>  (256) 
OPLS3e

>  <r_lp_Energy>  (256) 
40.1259

>  <b_lp_Chiralities_Consistent>  (256) 
1

>  <s_lp_Variant>  (256) 
70:0-2

>  <s_i_glide_gridfile>  (256) 
pfpi4k_grid

>  <i_i_glide_lignum>  (256) 
21

>  <i_i_glide_rotatable_bonds>  (256) 
5

>  <r_i_docking_score>  (256) 
-3.05368

>  <r_i_glide_ligand_efficiency>  (256) 
-0.132769

>  <r_i_glide_ligand_efficiency_sa>  (256) 
-0.377577

>  <r_i_glide_ligand_efficiency_ln>  (256) 
-0.738408

>  <r_i_glide_gscore>  (256) 
-3.05368

>  <r_i_glide_lipo>  (256) 
-0.461565

>  <r_i_glide_hbond>  (256) 
0

>  <r_i_glide_metal>  (256) 
-0

>  <r_i_glide_rewards>  (256) 
-1.30807

>  <r_i_glide_evdw>  (256) 
-27.8474

>  <r_i_glide_ecoul>  (256) 
-3.86094

>  <r_i_glide_erotb>  (256) 
0.719368

>  <r_i_glide_esite>  (256) 
-0.0319058

>  <r_i_glide_emodel>  (256) 
-36.2923

>  <r_i_glide_energy>  (256) 
-31.7083

>  <r_i_glide_einternal>  (256) 
3.68338

>  <r_i_glide_intrahb_reward>  (256) 
-0

>  <i_i_glide_confnum>  (256) 
4

>  <i_i_glide_posenum>  (256) 
32

>  <r_i_glide_eff_state_penalty>  (256) 
0

>  <ligand_id>  (256) 
70

>  <original_smiles>  (256) 
CC(C)C(=O)N1CC2COC(CN3CCN(C4CC4)CC3)C2C1

>  <smiles>  (256) 
[H]C([H])([H])C([H])(C(=O)N1C([H])([H])C2([H])C([H])([H])OC([H])(C([H])([H])[N+]3([H])C([H])([H])C([H])([H])N(C4([H])C([H])([H])C4([H])[H])C([H])([H])C3([H])[H])C2([H])C1([H])[H])C([H])([H])[H]

$$$$
70:2:0
     RDKit          3D

 56 59  0  0  1  0  0  0  0  0999 V2000
    4.5599   -3.1336   -3.3304 C   0  0  0  0  0  0  0  0  0  0  0  0
    4.4577   -2.9399   -1.8055 C   0  0  0  0  0  0  0  0  0  0  0  0
    3.6378   -1.6785   -1.4792 C   0  0  0  0  0  0  0  0  0  0  0  0
    5.8541   -2.8674   -1.1636 C   0  0  0  0  0  0  0  0  0  0  0  0
    6.6140   -1.9658   -1.4814 O   0  0  0  0  0  0  0  0  0  0  0  0
    6.2351   -3.8294   -0.2642 N   0  0  0  0  0  0  0  0  0  0  0  0
    7.6108   -3.9519    0.2551 C   0  0  0  0  0  0  0  0  0  0  0  0
    7.5975   -5.3595    0.8733 C   0  0  1  0  0  0  0  0  0  0  0  0
    8.4138   -5.8656    2.0494 C   0  0  0  0  0  0  0  0  0  0  0  0
    7.5552   -6.8662    2.5754 O   0  0  0  0  0  0  0  0  0  0  0  0
    6.2175   -6.7770    2.0405 C   0  0  1  0  0  0  0  0  0  0  0  0
    5.1471   -6.9638    3.1457 C   0  0  0  0  0  0  0  0  0  0  0  0
    4.5982   -8.3508    3.2477 N   0  0  2  0  0  0  0  0  0  0  0  0
    3.6926   -8.6805    2.1074 C   0  0  0  0  0  0  0  0  0  0  0  0
    3.1398  -10.1028    2.2073 C   0  0  0  0  0  0  0  0  0  0  0  0
    2.4496  -10.3534    3.4896 N   0  0  1  0  0  0  0  0  0  0  0  0
    1.9784  -11.7463    3.5696 C   0  0  0  0  0  0  0  0  0  0  0  0
    0.6468  -11.9766    2.8752 C   0  0  0  0  0  0  0  0  0  0  0  0
    0.7194  -11.9593    4.3909 C   0  0  0  0  0  0  0  0  0  0  0  0
    3.3314  -10.0100    4.6340 C   0  0  0  0  0  0  0  0  0  0  0  0
    3.8947   -8.5806    4.5402 C   0  0  0  0  0  0  0  0  0  0  0  0
    6.2238   -5.3715    1.4663 C   0  0  2  0  0  0  0  0  0  0  0  0
    5.3784   -4.8685    0.3242 C   0  0  0  0  0  0  0  0  0  0  0  0
    5.1352   -4.0253   -3.5818 H   0  0  0  0  0  0  0  0  0  0  0  0
    5.0166   -2.2755   -3.8236 H   0  0  0  0  0  0  0  0  0  0  0  0
    3.5672   -3.2613   -3.7634 H   0  0  0  0  0  0  0  0  0  0  0  0
    3.8928   -3.7897   -1.4322 H   0  0  0  0  0  0  0  0  0  0  0  0
    3.5117   -1.5529   -0.4034 H   0  0  0  0  0  0  0  0  0  0  0  0
    2.6395   -1.7463   -1.9151 H   0  0  0  0  0  0  0  0  0  0  0  0
    4.0993   -0.7708   -1.8713 H   0  0  0  0  0  0  0  0  0  0  0  0
    8.3733   -3.8650   -0.5263 H   0  0  0  0  0  0  0  0  0  0  0  0
    7.8008   -3.1897    1.0156 H   0  0  0  0  0  0  0  0  0  0  0  0
    7.6580   -6.1065    0.0793 H   0  0  0  0  0  0  0  0  0  0  0  0
    9.3767   -6.2584    1.7408 H   0  0  0  0  0  0  0  0  0  0  0  0
    8.5681   -5.0898    2.7881 H   0  0  0  0  0  0  0  0  0  0  0  0
    6.1324   -7.5074    1.2347 H   0  0  0  0  0  0  0  0  0  0  0  0
    5.5616   -6.6267    4.1007 H   0  0  0  0  0  0  0  0  0  0  0  0
    4.3026   -6.2947    2.9558 H   0  0  0  0  0  0  0  0  0  0  0  0
    2.8730   -7.9571    2.0914 H   0  0  0  0  0  0  0  0  0  0  0  0
    4.2090   -8.5850    1.1522 H   0  0  0  0  0  0  0  0  0  0  0  0
    2.4488  -10.2605    1.3784 H   0  0  0  0  0  0  0  0  0  0  0  0
    3.9589  -10.8109    2.1016 H   0  0  0  0  0  0  0  0  0  0  0  0
    2.7498  -12.5130    3.5365 H   0  0  0  0  0  0  0  0  0  0  0  0
    0.1463  -11.1459    2.3876 H   0  0  0  0  0  0  0  0  0  0  0  0
    0.5052  -12.9444    2.4098 H   0  0  0  0  0  0  0  0  0  0  0  0
    0.6097  -12.9216    4.8793 H   0  0  0  0  0  0  0  0  0  0  0  0
    0.2394  -11.1250    4.8978 H   0  0  0  0  0  0  0  0  0  0  0  0
    2.7555  -10.0968    5.5571 H   0  0  0  0  0  0  0  0  0  0  0  0
    4.1410  -10.7382    4.6902 H   0  0  0  0  0  0  0  0  0  0  0  0
    4.5670   -8.3949    5.3828 H   0  0  0  0  0  0  0  0  0  0  0  0
    3.0804   -7.8590    4.6347 H   0  0  0  0  0  0  0  0  0  0  0  0
    6.1708   -4.6525    2.2895 H   0  0  0  0  0  0  0  0  0  0  0  0
    4.4410   -4.4739    0.7004 H   0  0  0  0  0  0  0  0  0  0  0  0
    5.1896   -5.6456   -0.4139 H   0  0  0  0  0  0  0  0  0  0  0  0
    1.6410   -9.7613    3.5402 H   0  0  0  0  0  0  0  0  0  0  0  0
    5.3917   -8.9881    3.2193 H   0  0  0  0  0  0  0  0  0  0  0  0
  1  2  1  0
  1 24  1  0
  1 25  1  0
  1 26  1  0
  2  3  1  0
  2  4  1  0
  2 27  1  0
  3 28  1  0
  3 29  1  0
  3 30  1  0
  4  5  2  0
  4  6  1  0
  6 23  1  0
  6  7  1  0
  7  8  1  0
  7 31  1  0
  7 32  1  0
  8 22  1  0
  8  9  1  0
  8 33  1  6
  9 10  1  0
  9 34  1  0
  9 35  1  0
 10 11  1  0
 11 12  1  0
 11 22  1  0
 11 36  1  6
 12 13  1  0
 12 37  1  0
 12 38  1  0
 13 21  1  0
 13 14  1  0
 13 56  1  1
 14 15  1  0
 14 39  1  0
 14 40  1  0
 15 16  1  0
 15 41  1  0
 15 42  1  0
 16 17  1  0
 16 20  1  0
 16 55  1  6
 17 19  1  0
 17 18  1  0
 17 43  1  0
 18 19  1  0
 18 44  1  0
 18 45  1  0
 19 46  1  0
 19 47  1  0
 20 21  1  0
 20 48  1  0
 20 49  1  0
 21 50  1  0
 21 51  1  0
 22 23  1  0
 22 52  1  1
 23 53  1  0
 23 54  1  0
M  CHG  2  13   1  16   1
M  END
>  <i_m_ct_stereo_status>  (257) 
1

>  <s_m_source_file>  (257) 
/var/tmp/pbs.5076255.sched01/tmpyc7t0a4i/88yk12rjyo.sdf

>  <i_m_source_file_index>  (257) 
22

>  <i_lp_mmshare_version>  (257) 
48012

>  <i_f3d_flags>  (257) 
0

>  <s_epik_input>  (257) 
W0NIM11bQ0hdKFtDSDNdKUMoPU8pTihbQ0gyXTEpW0NIMl1bQ0BIXShbQ0BASF0xMilbQ0BASF0oT1tDSDJdMilbQ0gyXU4zW0NIMl1bQ0gyXU4oW0NIMl1bQ0gyXTMpW0NIXTRbQ0gyXVtDSDJdNA==

>  <s_epik_cmdline>  (257) 
J2VwaWtfcHl0aG9uJywgJy1waHQnLCAnMi4wJywgJy1waCcsICc3LjAnLCAnLXRuJywgJzgnLCAnLW1hJywgJzIwMCcsICctaW1hZScsICc8aW5maWxlLm1hZT4nLCAnLW9tYWUnLCAnPG91dGZpbGUubWFlPic=

>  <r_epik_Ionization_Penalty>  (257) 
2.4633

>  <r_epik_Ionization_Penalty_Charging>  (257) 
2.4633

>  <r_epik_Ionization_Penalty_Neutral>  (257) 
4.22082e-08

>  <r_epik_State_Penalty>  (257) 
1.92871

>  <r_epik_Charging_Adjusted_Penalty>  (257) 
4.39201

>  <i_epik_Tot_Q>  (257) 
2

>  <i_epik_Tot_abs_Q>  (257) 
2

>  <s_lp_Force_Field>  (257) 
OPLS3e

>  <r_lp_Energy>  (257) 
48.2393

>  <b_lp_Chiralities_Consistent>  (257) 
1

>  <s_lp_Variant>  (257) 
70:0-3

>  <s_i_glide_gridfile>  (257) 
pfpi4k_grid

>  <i_i_glide_lignum>  (257) 
22

>  <i_i_glide_rotatable_bonds>  (257) 
5

>  <r_i_docking_score>  (257) 
-3.72902

>  <r_i_glide_ligand_efficiency>  (257) 
-0.162131

>  <r_i_glide_ligand_efficiency_sa>  (257) 
-0.46108

>  <r_i_glide_ligand_efficiency_ln>  (257) 
-0.901712

>  <r_i_glide_gscore>  (257) 
-3.72902

>  <r_i_glide_lipo>  (257) 
-0.65833

>  <r_i_glide_hbond>  (257) 
-0.16

>  <r_i_glide_metal>  (257) 
-0

>  <r_i_glide_rewards>  (257) 
-1.31072

>  <r_i_glide_evdw>  (257) 
-22.0417

>  <r_i_glide_ecoul>  (257) 
-8.08649

>  <r_i_glide_erotb>  (257) 
0.71542

>  <r_i_glide_esite>  (257) 
-0.000338575

>  <r_i_glide_emodel>  (257) 
-39.6152

>  <r_i_glide_energy>  (257) 
-30.1282

>  <r_i_glide_einternal>  (257) 
1.02633

>  <r_i_glide_intrahb_reward>  (257) 
-0

>  <i_i_glide_confnum>  (257) 
1

>  <i_i_glide_posenum>  (257) 
23

>  <r_i_glide_eff_state_penalty>  (257) 
0

>  <ligand_id>  (257) 
70

>  <original_smiles>  (257) 
CC(C)C(=O)N1CC2COC(CN3CCN(C4CC4)CC3)C2C1

>  <smiles>  (257) 
[H]C([H])([H])C([H])(C(=O)N1C([H])([H])C2([H])C([H])([H])OC([H])(C([H])([H])[N+]3([H])C([H])([H])C([H])([H])[N+]([H])(C4([H])C([H])([H])C4([H])[H])C([H])([H])C3([H])[H])C2([H])C1([H])[H])C([H])([H])[H]

$$$$
70:2:1
     RDKit          3D

 56 59  0  0  1  0  0  0  0  0999 V2000
    3.9871   -1.8624   -2.3994 C   0  0  0  0  0  0  0  0  0  0  0  0
    4.2897   -2.3812   -0.9768 C   0  0  0  0  0  0  0  0  0  0  0  0
    3.7518   -1.3962    0.0806 C   0  0  0  0  0  0  0  0  0  0  0  0
    5.7912   -2.6307   -0.7655 C   0  0  0  0  0  0  0  0  0  0  0  0
    6.6153   -1.9060   -1.2950 O   0  0  0  0  0  0  0  0  0  0  0  0
    6.1961   -3.6548    0.0418 N   0  0  0  0  0  0  0  0  0  0  0  0
    7.6058   -3.8673    0.4257 C   0  0  0  0  0  0  0  0  0  0  0  0
    7.5807   -5.3067    0.9426 C   0  0  1  0  0  0  0  0  0  0  0  0
    8.4605   -5.9054    2.0264 C   0  0  0  0  0  0  0  0  0  0  0  0
    7.6172   -6.9220    2.5537 O   0  0  0  0  0  0  0  0  0  0  0  0
    6.2500   -6.7549    2.1265 C   0  0  1  0  0  0  0  0  0  0  0  0
    5.2512   -6.9879    3.2900 C   0  0  0  0  0  0  0  0  0  0  0  0
    4.6719   -8.3649    3.3393 N   0  0  2  0  0  0  0  0  0  0  0  0
    3.7197   -8.6138    2.2182 C   0  0  0  0  0  0  0  0  0  0  0  0
    3.1338  -10.0274    2.2666 C   0  0  0  0  0  0  0  0  0  0  0  0
    2.4811  -10.3214    3.5603 N   0  0  1  0  0  0  0  0  0  0  0  0
    1.9703  -11.7064    3.5918 C   0  0  0  0  0  0  0  0  0  0  0  0
    0.6395  -11.8858    2.9007 C   0  0  0  0  0  0  0  0  0  0  0  0
    0.7101  -11.9146    4.4061 C   0  0  0  0  0  0  0  0  0  0  0  0
    3.4036  -10.0574    4.6896 C   0  0  0  0  0  0  0  0  0  0  0  0
    4.0041   -8.6390    4.6444 C   0  0  0  0  0  0  0  0  0  0  0  0
    6.2635   -5.3133    1.6504 C   0  0  2  0  0  0  0  0  0  0  0  0
    5.3445   -4.6984    0.6257 C   0  0  0  0  0  0  0  0  0  0  0  0
    4.3593   -2.5482   -3.1609 H   0  0  0  0  0  0  0  0  0  0  0  0
    4.4259   -0.8806   -2.5829 H   0  0  0  0  0  0  0  0  0  0  0  0
    2.9113   -1.7641   -2.5508 H   0  0  0  0  0  0  0  0  0  0  0  0
    3.7415   -3.3183   -0.8830 H   0  0  0  0  0  0  0  0  0  0  0  0
    3.9130   -1.7649    1.0925 H   0  0  0  0  0  0  0  0  0  0  0  0
    2.6787   -1.2558   -0.0250 H   0  0  0  0  0  0  0  0  0  0  0  0
    4.2152   -0.4119   -0.0008 H   0  0  0  0  0  0  0  0  0  0  0  0
    8.3122   -3.7454   -0.4017 H   0  0  0  0  0  0  0  0  0  0  0  0
    7.8777   -3.1694    1.2219 H   0  0  0  0  0  0  0  0  0  0  0  0
    7.5560   -5.9820    0.0827 H   0  0  0  0  0  0  0  0  0  0  0  0
    9.3904   -6.2798    1.6175 H   0  0  0  0  0  0  0  0  0  0  0  0
    8.6898   -5.1881    2.8065 H   0  0  0  0  0  0  0  0  0  0  0  0
    6.0884   -7.4172    1.2750 H   0  0  0  0  0  0  0  0  0  0  0  0
    5.7382   -6.7284    4.2346 H   0  0  0  0  0  0  0  0  0  0  0  0
    4.4146   -6.2895    3.2010 H   0  0  0  0  0  0  0  0  0  0  0  0
    2.9206   -7.8697    2.2665 H   0  0  0  0  0  0  0  0  0  0  0  0
    4.2007   -8.4916    1.2491 H   0  0  0  0  0  0  0  0  0  0  0  0
    2.4147  -10.1408    1.4533 H   0  0  0  0  0  0  0  0  0  0  0  0
    3.9325  -10.7478    2.0969 H   0  0  0  0  0  0  0  0  0  0  0  0
    2.7252  -12.4873    3.5261 H   0  0  0  0  0  0  0  0  0  0  0  0
    0.1521  -11.0321    2.4300 H   0  0  0  0  0  0  0  0  0  0  0  0
    0.4838  -12.8339    2.3898 H   0  0  0  0  0  0  0  0  0  0  0  0
    0.5865  -12.8849    4.8791 H   0  0  0  0  0  0  0  0  0  0  0  0
    0.2440  -11.0839    4.9326 H   0  0  0  0  0  0  0  0  0  0  0  0
    2.8553  -10.1768    5.6277 H   0  0  0  0  0  0  0  0  0  0  0  0
    4.1981  -10.8064    4.6852 H   0  0  0  0  0  0  0  0  0  0  0  0
    4.7061   -8.5091    5.4706 H   0  0  0  0  0  0  0  0  0  0  0  0
    3.2126   -7.9030    4.7981 H   0  0  0  0  0  0  0  0  0  0  0  0
    6.3019   -4.6527    2.5228 H   0  0  0  0  0  0  0  0  0  0  0  0
    4.4461   -4.3100    1.0970 H   0  0  0  0  0  0  0  0  0  0  0  0
    5.0777   -5.4111   -0.1556 H   0  0  0  0  0  0  0  0  0  0  0  0
    1.6862   -9.7110    3.6625 H   0  0  0  0  0  0  0  0  0  0  0  0
    5.4473   -9.0168    3.2553 H   0  0  0  0  0  0  0  0  0  0  0  0
  1  2  1  0
  1 24  1  0
  1 25  1  0
  1 26  1  0
  2  3  1  0
  2  4  1  0
  2 27  1  0
  3 28  1  0
  3 29  1  0
  3 30  1  0
  4  5  2  0
  4  6  1  0
  6 23  1  0
  6  7  1  0
  7  8  1  0
  7 31  1  0
  7 32  1  0
  8 22  1  0
  8  9  1  0
  8 33  1  6
  9 10  1  0
  9 34  1  0
  9 35  1  0
 10 11  1  0
 11 12  1  0
 11 22  1  0
 11 36  1  6
 12 13  1  0
 12 37  1  0
 12 38  1  0
 13 21  1  0
 13 14  1  0
 13 56  1  6
 14 15  1  0
 14 39  1  0
 14 40  1  0
 15 16  1  0
 15 41  1  0
 15 42  1  0
 16 17  1  0
 16 20  1  0
 16 55  1  1
 17 19  1  0
 17 18  1  0
 17 43  1  0
 18 19  1  0
 18 44  1  0
 18 45  1  0
 19 46  1  0
 19 47  1  0
 20 21  1  0
 20 48  1  0
 20 49  1  0
 21 50  1  0
 21 51  1  0
 22 23  1  0
 22 52  1  1
 23 53  1  0
 23 54  1  0
M  CHG  2  13   1  16   1
M  END
>  <i_m_ct_stereo_status>  (258) 
1

>  <s_m_source_file>  (258) 
/var/tmp/pbs.5076255.sched01/tmpyc7t0a4i/88yk12rjyo.sdf

>  <i_m_source_file_index>  (258) 
22

>  <i_lp_mmshare_version>  (258) 
48012

>  <i_f3d_flags>  (258) 
0

>  <s_epik_input>  (258) 
W0NIM11bQ0hdKFtDSDNdKUMoPU8pTihbQ0gyXTEpW0NIMl1bQ0BIXShbQ0BASF0xMilbQ0BASF0oT1tDSDJdMilbQ0gyXU4zW0NIMl1bQ0gyXU4oW0NIMl1bQ0gyXTMpW0NIXTRbQ0gyXVtDSDJdNA==

>  <s_epik_cmdline>  (258) 
J2VwaWtfcHl0aG9uJywgJy1waHQnLCAnMi4wJywgJy1waCcsICc3LjAnLCAnLXRuJywgJzgnLCAnLW1hJywgJzIwMCcsICctaW1hZScsICc8aW5maWxlLm1hZT4nLCAnLW9tYWUnLCAnPG91dGZpbGUubWFlPic=

>  <r_epik_Ionization_Penalty>  (258) 
2.4633

>  <r_epik_Ionization_Penalty_Charging>  (258) 
2.4633

>  <r_epik_Ionization_Penalty_Neutral>  (258) 
4.22082e-08

>  <r_epik_State_Penalty>  (258) 
1.92871

>  <r_epik_Charging_Adjusted_Penalty>  (258) 
4.39201

>  <i_epik_Tot_Q>  (258) 
2

>  <i_epik_Tot_abs_Q>  (258) 
2

>  <s_lp_Force_Field>  (258) 
OPLS3e

>  <r_lp_Energy>  (258) 
48.2393

>  <b_lp_Chiralities_Consistent>  (258) 
1

>  <s_lp_Variant>  (258) 
70:0-3

>  <s_i_glide_gridfile>  (258) 
pfpi4k_grid

>  <i_i_glide_lignum>  (258) 
22

>  <i_i_glide_rotatable_bonds>  (258) 
5

>  <r_i_docking_score>  (258) 
-3.46525

>  <r_i_glide_ligand_efficiency>  (258) 
-0.150663

>  <r_i_glide_ligand_efficiency_sa>  (258) 
-0.428466

>  <r_i_glide_ligand_efficiency_ln>  (258) 
-0.837929

>  <r_i_glide_gscore>  (258) 
-3.46525

>  <r_i_glide_lipo>  (258) 
-0.471791

>  <r_i_glide_hbond>  (258) 
-0.16

>  <r_i_glide_metal>  (258) 
-0

>  <r_i_glide_rewards>  (258) 
-1.31152

>  <r_i_glide_evdw>  (258) 
-20.2418

>  <r_i_glide_ecoul>  (258) 
-8.09366

>  <r_i_glide_erotb>  (258) 
0.71542

>  <r_i_glide_esite>  (258) 
-0.0112239

>  <r_i_glide_emodel>  (258) 
-36.6268

>  <r_i_glide_energy>  (258) 
-28.3354

>  <r_i_glide_einternal>  (258) 
1.86853

>  <r_i_glide_intrahb_reward>  (258) 
-0

>  <i_i_glide_confnum>  (258) 
1

>  <i_i_glide_posenum>  (258) 
19

>  <r_i_glide_eff_state_penalty>  (258) 
0

>  <ligand_id>  (258) 
70

>  <original_smiles>  (258) 
CC(C)C(=O)N1CC2COC(CN3CCN(C4CC4)CC3)C2C1

>  <smiles>  (258) 
[H]C([H])([H])C([H])(C(=O)N1C([H])([H])C2([H])C([H])([H])OC([H])(C([H])([H])[N+]3([H])C([H])([H])C([H])([H])[N+]([H])(C4([H])C([H])([H])C4([H])[H])C([H])([H])C3([H])[H])C2([H])C1([H])[H])C([H])([H])[H]

$$$$
70:2:2
     RDKit          3D

 56 59  0  0  1  0  0  0  0  0999 V2000
    4.6146   -4.1360   -4.0026 C   0  0  0  0  0  0  0  0  0  0  0  0
    4.1930   -2.9851   -3.0539 C   0  0  0  0  0  0  0  0  0  0  0  0
    3.8115   -1.7473   -3.9012 C   0  0  0  0  0  0  0  0  0  0  0  0
    5.2761   -2.6750   -2.0249 C   0  0  0  0  0  0  0  0  0  0  0  0
    6.4492   -2.9711   -2.2300 O   0  0  0  0  0  0  0  0  0  0  0  0
    4.9211   -2.0820   -0.8268 N   0  0  0  0  0  0  0  0  0  0  0  0
    5.8639   -1.8772    0.2741 C   0  0  0  0  0  0  0  0  0  0  0  0
    4.9261   -1.5662    1.4304 C   0  0  1  0  0  0  0  0  0  0  0  0
    5.2128   -0.6798    2.6209 C   0  0  0  0  0  0  0  0  0  0  0  0
    3.8972   -0.1689    2.9507 O   0  0  0  0  0  0  0  0  0  0  0  0
    2.9755   -0.4279    1.8782 C   0  0  1  0  0  0  0  0  0  0  0  0
    2.0890    0.8027    1.6018 C   0  0  0  0  0  0  0  0  0  0  0  0
    1.2601    1.2052    2.7634 N   0  0  2  0  0  0  0  0  0  0  0  0
    0.1742    0.2331    3.0204 C   0  0  0  0  0  0  0  0  0  0  0  0
   -0.6460    0.6124    4.2347 C   0  0  0  0  0  0  0  0  0  0  0  0
   -1.2213    1.9873    4.1489 N   0  0  1  0  0  0  0  0  0  0  0  0
   -2.0683    2.3694    5.3204 C   0  0  0  0  0  0  0  0  0  0  0  0
   -1.3374    2.5670    6.6318 C   0  0  0  0  0  0  0  0  0  0  0  0
   -2.2726    1.3943    6.4867 C   0  0  0  0  0  0  0  0  0  0  0  0
   -0.1715    2.9924    3.8052 C   0  0  0  0  0  0  0  0  0  0  0  0
    0.6736    2.5544    2.5934 C   0  0  0  0  0  0  0  0  0  0  0  0
    3.9312   -0.7361    0.7443 C   0  0  2  0  0  0  0  0  0  0  0  0
    3.5865   -1.5849   -0.4709 C   0  0  0  0  0  0  0  0  0  0  0  0
    4.8953   -5.0384   -3.4673 H   0  0  0  0  0  0  0  0  0  0  0  0
    5.4652   -3.8620   -4.6260 H   0  0  0  0  0  0  0  0  0  0  0  0
    3.8169   -4.3911   -4.6846 H   0  0  0  0  0  0  0  0  0  0  0  0
    3.3077   -3.3469   -2.5229 H   0  0  0  0  0  0  0  0  0  0  0  0
    3.4398   -0.9168   -3.3025 H   0  0  0  0  0  0  0  0  0  0  0  0
    3.0228   -1.9974   -4.6094 H   0  0  0  0  0  0  0  0  0  0  0  0
    4.6651   -1.3739   -4.4674 H   0  0  0  0  0  0  0  0  0  0  0  0
    6.4927   -2.7592    0.4892 H   0  0  0  0  0  0  0  0  0  0  0  0
    6.5300   -1.0295    0.0603 H   0  0  0  0  0  0  0  0  0  0  0  0
    4.4703   -2.4948    1.7798 H   0  0  0  0  0  0  0  0  0  0  0  0
    5.6579   -1.2223    3.4653 H   0  0  0  0  0  0  0  0  0  0  0  0
    5.8534    0.1684    2.3607 H   0  0  0  0  0  0  0  0  0  0  0  0
    2.3912   -1.3211    2.1133 H   0  0  0  0  0  0  0  0  0  0  0  0
    2.7096    1.6452    1.2947 H   0  0  0  0  0  0  0  0  0  0  0  0
    1.4172    0.5883    0.7699 H   0  0  0  0  0  0  0  0  0  0  0  0
   -0.4661    0.1507    2.1376 H   0  0  0  0  0  0  0  0  0  0  0  0
    0.5799   -0.7517    3.2443 H   0  0  0  0  0  0  0  0  0  0  0  0
   -1.4682   -0.1041    4.3021 H   0  0  0  0  0  0  0  0  0  0  0  0
    0.0135    0.5509    5.1006 H   0  0  0  0  0  0  0  0  0  0  0  0
   -2.8659    3.0732    5.0624 H   0  0  0  0  0  0  0  0  0  0  0  0
   -0.2658    2.3676    6.6421 H   0  0  0  0  0  0  0  0  0  0  0  0
   -1.6504    3.3642    7.3026 H   0  0  0  0  0  0  0  0  0  0  0  0
   -3.2287    1.4547    7.0143 H   0  0  0  0  0  0  0  0  0  0  0  0
   -1.7926    0.4125    6.5248 H   0  0  0  0  0  0  0  0  0  0  0  0
   -0.6635    3.9396    3.5576 H   0  0  0  0  0  0  0  0  0  0  0  0
    0.4960    3.1644    4.6531 H   0  0  0  0  0  0  0  0  0  0  0  0
    1.4497    3.3111    2.4321 H   0  0  0  0  0  0  0  0  0  0  0  0
    0.0414    2.5254    1.7029 H   0  0  0  0  0  0  0  0  0  0  0  0
    4.3526    0.1993    0.3658 H   0  0  0  0  0  0  0  0  0  0  0  0
    3.1046   -0.9362   -1.2076 H   0  0  0  0  0  0  0  0  0  0  0  0
    2.9209   -2.4165   -0.2087 H   0  0  0  0  0  0  0  0  0  0  0  0
   -1.8425    1.9735    3.3514 H   0  0  0  0  0  0  0  0  0  0  0  0
    1.8645    1.2413    3.5741 H   0  0  0  0  0  0  0  0  0  0  0  0
  1  2  1  0
  1 24  1  0
  1 25  1  0
  1 26  1  0
  2  3  1  0
  2  4  1  0
  2 27  1  0
  3 28  1  0
  3 29  1  0
  3 30  1  0
  4  5  2  0
  4  6  1  0
  6 23  1  0
  6  7  1  0
  7  8  1  0
  7 31  1  0
  7 32  1  0
  8 22  1  0
  8  9  1  0
  8 33  1  1
  9 10  1  0
  9 34  1  0
  9 35  1  0
 10 11  1  0
 11 12  1  0
 11 22  1  0
 11 36  1  1
 12 13  1  0
 12 37  1  0
 12 38  1  0
 13 21  1  0
 13 14  1  0
 13 56  1  1
 14 15  1  0
 14 39  1  0
 14 40  1  0
 15 16  1  0
 15 41  1  0
 15 42  1  0
 16 17  1  0
 16 20  1  0
 16 55  1  6
 17 19  1  0
 17 18  1  0
 17 43  1  0
 18 19  1  0
 18 44  1  0
 18 45  1  0
 19 46  1  0
 19 47  1  0
 20 21  1  0
 20 48  1  0
 20 49  1  0
 21 50  1  0
 21 51  1  0
 22 23  1  0
 22 52  1  6
 23 53  1  0
 23 54  1  0
M  CHG  2  13   1  16   1
M  END
>  <i_m_ct_stereo_status>  (259) 
1

>  <s_m_source_file>  (259) 
/var/tmp/pbs.5076255.sched01/tmpyc7t0a4i/88yk12rjyo.sdf

>  <i_m_source_file_index>  (259) 
22

>  <i_lp_mmshare_version>  (259) 
48012

>  <i_f3d_flags>  (259) 
0

>  <s_epik_input>  (259) 
W0NIM11bQ0hdKFtDSDNdKUMoPU8pTihbQ0gyXTEpW0NIMl1bQ0BIXShbQ0BASF0xMilbQ0BASF0oT1tDSDJdMilbQ0gyXU4zW0NIMl1bQ0gyXU4oW0NIMl1bQ0gyXTMpW0NIXTRbQ0gyXVtDSDJdNA==

>  <s_epik_cmdline>  (259) 
J2VwaWtfcHl0aG9uJywgJy1waHQnLCAnMi4wJywgJy1waCcsICc3LjAnLCAnLXRuJywgJzgnLCAnLW1hJywgJzIwMCcsICctaW1hZScsICc8aW5maWxlLm1hZT4nLCAnLW9tYWUnLCAnPG91dGZpbGUubWFlPic=

>  <r_epik_Ionization_Penalty>  (259) 
2.4633

>  <r_epik_Ionization_Penalty_Charging>  (259) 
2.4633

>  <r_epik_Ionization_Penalty_Neutral>  (259) 
4.22082e-08

>  <r_epik_State_Penalty>  (259) 
1.92871

>  <r_epik_Charging_Adjusted_Penalty>  (259) 
4.39201

>  <i_epik_Tot_Q>  (259) 
2

>  <i_epik_Tot_abs_Q>  (259) 
2

>  <s_lp_Force_Field>  (259) 
OPLS3e

>  <r_lp_Energy>  (259) 
48.2393

>  <b_lp_Chiralities_Consistent>  (259) 
1

>  <s_lp_Variant>  (259) 
70:0-3

>  <s_i_glide_gridfile>  (259) 
pfpi4k_grid

>  <i_i_glide_lignum>  (259) 
22

>  <i_i_glide_rotatable_bonds>  (259) 
5

>  <r_i_docking_score>  (259) 
-3.32954

>  <r_i_glide_ligand_efficiency>  (259) 
-0.144763

>  <r_i_glide_ligand_efficiency_sa>  (259) 
-0.411686

>  <r_i_glide_ligand_efficiency_ln>  (259) 
-0.805114

>  <r_i_glide_gscore>  (259) 
-3.32954

>  <r_i_glide_lipo>  (259) 
-0.432204

>  <r_i_glide_hbond>  (259) 
0

>  <r_i_glide_metal>  (259) 
-0

>  <r_i_glide_rewards>  (259) 
-1.27721

>  <r_i_glide_evdw>  (259) 
-25.7706

>  <r_i_glide_ecoul>  (259) 
-6.48951

>  <r_i_glide_erotb>  (259) 
0.71542

>  <r_i_glide_esite>  (259) 
-0.0735928

>  <r_i_glide_emodel>  (259) 
-34.3101

>  <r_i_glide_energy>  (259) 
-32.2601

>  <r_i_glide_einternal>  (259) 
12.7983

>  <r_i_glide_intrahb_reward>  (259) 
-0

>  <i_i_glide_confnum>  (259) 
3

>  <i_i_glide_posenum>  (259) 
14

>  <r_i_glide_eff_state_penalty>  (259) 
0

>  <ligand_id>  (259) 
70

>  <original_smiles>  (259) 
CC(C)C(=O)N1CC2COC(CN3CCN(C4CC4)CC3)C2C1

>  <smiles>  (259) 
[H]C([H])([H])C([H])(C(=O)N1C([H])([H])C2([H])C([H])([H])OC([H])(C([H])([H])[N+]3([H])C([H])([H])C([H])([H])[N+]([H])(C4([H])C([H])([H])C4([H])[H])C([H])([H])C3([H])[H])C2([H])C1([H])[H])C([H])([H])[H]

$$$$
71:0:0
     RDKit          3D

 21 22  0  0  1  0  0  0  0  0999 V2000
   -6.5907   -8.8836   -5.9199 N   0  0  0  0  0  0  0  0  0  0  0  0
   -5.9329   -7.6539   -6.3835 C   0  0  0  0  0  0  0  0  0  0  0  0
   -6.6075   -6.4380   -5.8113 C   0  0  0  0  0  0  0  0  0  0  0  0
   -6.2030   -5.7183   -4.7118 C   0  0  0  0  0  0  0  0  0  0  0  0
   -7.0797   -4.6644   -4.5100 N   0  0  0  0  0  0  0  0  0  0  0  0
   -8.0681   -4.6707   -5.4730 C   0  0  0  0  0  0  0  0  0  0  0  0
   -9.1870   -3.8584   -5.7177 C   0  0  0  0  0  0  0  0  0  0  0  0
  -10.0004   -4.1857   -6.8139 C   0  0  0  0  0  0  0  0  0  0  0  0
   -9.6344   -5.2919   -7.6080 C   0  0  0  0  0  0  0  0  0  0  0  0
   -8.5512   -6.0743   -7.3850 N   0  0  0  0  0  0  0  0  0  0  0  0
   -7.7857   -5.7764   -6.3242 C   0  0  0  0  0  0  0  0  0  0  0  0
   -7.0019   -4.0083   -3.7468 H   0  0  0  0  0  0  0  0  0  0  0  0
   -6.1208   -9.6931   -6.2989 H   0  0  0  0  0  0  0  0  0  0  0  0
   -7.5558   -8.8774   -6.2208 H   0  0  0  0  0  0  0  0  0  0  0  0
   -4.8802   -7.6890   -6.1005 H   0  0  0  0  0  0  0  0  0  0  0  0
   -5.9669   -7.6331   -7.4720 H   0  0  0  0  0  0  0  0  0  0  0  0
   -5.3598   -5.8718   -4.0502 H   0  0  0  0  0  0  0  0  0  0  0  0
   -9.4311   -3.0257   -5.0786 H   0  0  0  0  0  0  0  0  0  0  0  0
  -10.8894   -3.6091   -7.0247 H   0  0  0  0  0  0  0  0  0  0  0  0
  -10.2433   -5.5692   -8.4553 H   0  0  0  0  0  0  0  0  0  0  0  0
   -6.5524   -8.9193   -4.9129 H   0  0  0  0  0  0  0  0  0  0  0  0
  1  2  1  0
  1 13  1  0
  1 14  1  0
  1 21  1  0
  2  3  1  0
  2 15  1  0
  2 16  1  0
  3 11  1  0
  3  4  2  0
  4  5  1  0
  4 17  1  0
  5 12  1  0
  5  6  1  0
  6 11  2  0
  6  7  1  0
  7  8  2  0
  7 18  1  0
  8  9  1  0
  8 19  1  0
  9 10  2  0
  9 20  1  0
 10 11  1  0
M  CHG  1   1   1
M  END
>  <i_m_ct_stereo_status>  (260) 
1

>  <s_m_source_file>  (260) 
/var/tmp/pbs.5076255.sched01/tmpyc7t0a4i/88yk12rjyo.sdf

>  <i_m_source_file_index>  (260) 
23

>  <i_lp_mmshare_version>  (260) 
48012

>  <i_f3d_flags>  (260) 
0

>  <s_epik_input>  (260) 
W05IMl1bQ0gyXWMoW2NIXVtuSF0xKWMoYzEyKW5bY0hdW2NIXVtjSF0y

>  <s_epik_cmdline>  (260) 
J2VwaWtfcHl0aG9uJywgJy1waHQnLCAnMi4wJywgJy1waCcsICc3LjAnLCAnLXRuJywgJzgnLCAnLW1hJywgJzIwMCcsICctaW1hZScsICc8aW5maWxlLm1hZT4nLCAnLW9tYWUnLCAnPG91dGZpbGUubWFlPic=

>  <r_lp_tautomer_probability>  (260) 
0.999991

>  <r_epik_Ionization_Penalty>  (260) 
0.242811

>  <r_epik_Ionization_Penalty_Charging>  (260) 
0.00662929

>  <r_epik_Ionization_Penalty_Neutral>  (260) 
0.236182

>  <r_epik_State_Penalty>  (260) 
0.272013

>  <r_epik_Charging_Adjusted_Penalty>  (260) 
0.278642

>  <i_epik_Tot_Q>  (260) 
1

>  <i_epik_Tot_abs_Q>  (260) 
1

>  <s_lp_Force_Field>  (260) 
OPLS3e

>  <r_lp_Energy>  (260) 
15.158

>  <b_lp_Chiralities_Consistent>  (260) 
1

>  <s_lp_Variant>  (260) 
71:0-1

>  <s_i_glide_gridfile>  (260) 
pfpi4k_grid

>  <i_i_glide_lignum>  (260) 
23

>  <i_i_glide_rotatable_bonds>  (260) 
1

>  <r_i_docking_score>  (260) 
-5.65423

>  <r_i_glide_ligand_efficiency>  (260) 
-0.514021

>  <r_i_glide_ligand_efficiency_sa>  (260) 
-1.14317

>  <r_i_glide_ligand_efficiency_ln>  (260) 
-1.66404

>  <r_i_glide_gscore>  (260) 
-5.65423

>  <r_i_glide_lipo>  (260) 
-2.12898

>  <r_i_glide_hbond>  (260) 
0

>  <r_i_glide_metal>  (260) 
-0

>  <r_i_glide_rewards>  (260) 
-2.39167

>  <r_i_glide_evdw>  (260) 
-21.7112

>  <r_i_glide_ecoul>  (260) 
-0.320207

>  <r_i_glide_erotb>  (260) 
0

>  <r_i_glide_esite>  (260) 
0

>  <r_i_glide_emodel>  (260) 
-33.0456

>  <r_i_glide_energy>  (260) 
-22.0314

>  <r_i_glide_einternal>  (260) 
0.0303109

>  <r_i_glide_intrahb_reward>  (260) 
-0

>  <i_i_glide_confnum>  (260) 
2

>  <i_i_glide_posenum>  (260) 
9

>  <r_i_glide_eff_state_penalty>  (260) 
0

>  <ligand_id>  (260) 
71

>  <original_smiles>  (260) 
NCc1c[nH]c2cccnc12

>  <smiles>  (260) 
[H]c1nc2c(C([H])([H])[N+]([H])([H])[H])c([H])n([H])c2c([H])c1[H]

$$$$
71:0:1
     RDKit          3D

 21 22  0  0  1  0  0  0  0  0999 V2000
    2.3965    0.3729   -4.7231 N   0  0  0  0  0  0  0  0  0  0  0  0
    3.7227   -0.1961   -4.4830 C   0  0  0  0  0  0  0  0  0  0  0  0
    3.6655   -1.4047   -3.5932 C   0  0  0  0  0  0  0  0  0  0  0  0
    3.0434   -2.6011   -3.8597 C   0  0  0  0  0  0  0  0  0  0  0  0
    3.2175   -3.4566   -2.8007 N   0  0  0  0  0  0  0  0  0  0  0  0
    3.9374   -2.8491   -1.8078 C   0  0  0  0  0  0  0  0  0  0  0  0
    4.3605   -3.2664   -0.5360 C   0  0  0  0  0  0  0  0  0  0  0  0
    5.1109   -2.3610    0.2346 C   0  0  0  0  0  0  0  0  0  0  0  0
    5.3954   -1.1022   -0.3262 C   0  0  0  0  0  0  0  0  0  0  0  0
    5.0076   -0.7031   -1.5647 N   0  0  0  0  0  0  0  0  0  0  0  0
    4.2643   -1.5492   -2.2840 C   0  0  0  0  0  0  0  0  0  0  0  0
    2.8595   -4.4143   -2.7672 H   0  0  0  0  0  0  0  0  0  0  0  0
    2.4628    1.1788   -5.3241 H   0  0  0  0  0  0  0  0  0  0  0  0
    2.0267    0.6788   -3.8222 H   0  0  0  0  0  0  0  0  0  0  0  0
    4.1701   -0.4523   -5.4447 H   0  0  0  0  0  0  0  0  0  0  0  0
    4.3316    0.5905   -4.0369 H   0  0  0  0  0  0  0  0  0  0  0  0
    2.4686   -2.9165   -4.7177 H   0  0  0  0  0  0  0  0  0  0  0  0
    4.1102   -4.2446   -0.1727 H   0  0  0  0  0  0  0  0  0  0  0  0
    5.4595   -2.6281    1.2207 H   0  0  0  0  0  0  0  0  0  0  0  0
    5.9611   -0.3760    0.2381 H   0  0  0  0  0  0  0  0  0  0  0  0
    1.8077   -0.3442   -5.1386 H   0  0  0  0  0  0  0  0  0  0  0  0
  1  2  1  0
  1 13  1  0
  1 14  1  0
  1 21  1  0
  2  3  1  0
  2 15  1  0
  2 16  1  0
  3 11  1  0
  3  4  2  0
  4  5  1  0
  4 17  1  0
  5 12  1  0
  5  6  1  0
  6 11  2  0
  6  7  1  0
  7  8  2  0
  7 18  1  0
  8  9  1  0
  8 19  1  0
  9 10  2  0
  9 20  1  0
 10 11  1  0
M  CHG  1   1   1
M  END
>  <i_m_ct_stereo_status>  (261) 
1

>  <s_m_source_file>  (261) 
/var/tmp/pbs.5076255.sched01/tmpyc7t0a4i/88yk12rjyo.sdf

>  <i_m_source_file_index>  (261) 
23

>  <i_lp_mmshare_version>  (261) 
48012

>  <i_f3d_flags>  (261) 
0

>  <s_epik_input>  (261) 
W05IMl1bQ0gyXWMoW2NIXVtuSF0xKWMoYzEyKW5bY0hdW2NIXVtjSF0y

>  <s_epik_cmdline>  (261) 
J2VwaWtfcHl0aG9uJywgJy1waHQnLCAnMi4wJywgJy1waCcsICc3LjAnLCAnLXRuJywgJzgnLCAnLW1hJywgJzIwMCcsICctaW1hZScsICc8aW5maWxlLm1hZT4nLCAnLW9tYWUnLCAnPG91dGZpbGUubWFlPic=

>  <r_lp_tautomer_probability>  (261) 
0.999991

>  <r_epik_Ionization_Penalty>  (261) 
0.242811

>  <r_epik_Ionization_Penalty_Charging>  (261) 
0.00662929

>  <r_epik_Ionization_Penalty_Neutral>  (261) 
0.236182

>  <r_epik_State_Penalty>  (261) 
0.272013

>  <r_epik_Charging_Adjusted_Penalty>  (261) 
0.278642

>  <i_epik_Tot_Q>  (261) 
1

>  <i_epik_Tot_abs_Q>  (261) 
1

>  <s_lp_Force_Field>  (261) 
OPLS3e

>  <r_lp_Energy>  (261) 
15.158

>  <b_lp_Chiralities_Consistent>  (261) 
1

>  <s_lp_Variant>  (261) 
71:0-1

>  <s_i_glide_gridfile>  (261) 
pfpi4k_grid

>  <i_i_glide_lignum>  (261) 
23

>  <i_i_glide_rotatable_bonds>  (261) 
1

>  <r_i_docking_score>  (261) 
-5.3862

>  <r_i_glide_ligand_efficiency>  (261) 
-0.489654

>  <r_i_glide_ligand_efficiency_sa>  (261) 
-1.08898

>  <r_i_glide_ligand_efficiency_ln>  (261) 
-1.58516

>  <r_i_glide_gscore>  (261) 
-5.3862

>  <r_i_glide_lipo>  (261) 
-0.707359

>  <r_i_glide_hbond>  (261) 
-0.32

>  <r_i_glide_metal>  (261) 
-0

>  <r_i_glide_rewards>  (261) 
-2.25

>  <r_i_glide_evdw>  (261) 
-16.3484

>  <r_i_glide_ecoul>  (261) 
-8.21959

>  <r_i_glide_erotb>  (261) 
0

>  <r_i_glide_esite>  (261) 
-0.058479

>  <r_i_glide_emodel>  (261) 
-34.7413

>  <r_i_glide_energy>  (261) 
-24.568

>  <r_i_glide_einternal>  (261) 
0.499941

>  <r_i_glide_intrahb_reward>  (261) 
-0

>  <i_i_glide_confnum>  (261) 
2

>  <i_i_glide_posenum>  (261) 
13

>  <r_i_glide_eff_state_penalty>  (261) 
0

>  <ligand_id>  (261) 
71

>  <original_smiles>  (261) 
NCc1c[nH]c2cccnc12

>  <smiles>  (261) 
[H]c1nc2c(C([H])([H])[N+]([H])([H])[H])c([H])n([H])c2c([H])c1[H]

$$$$
71:0:2
     RDKit          3D

 21 22  0  0  1  0  0  0  0  0999 V2000
    1.8264   -3.4362   -2.3585 N   0  0  0  0  0  0  0  0  0  0  0  0
    3.0487   -3.0452   -3.0761 C   0  0  0  0  0  0  0  0  0  0  0  0
    4.0009   -2.3137   -2.1695 C   0  0  0  0  0  0  0  0  0  0  0  0
    4.1887   -0.9551   -2.1245 C   0  0  0  0  0  0  0  0  0  0  0  0
    5.1268   -0.6611   -1.1493 N   0  0  0  0  0  0  0  0  0  0  0  0
    5.5925   -1.8170   -0.5596 C   0  0  0  0  0  0  0  0  0  0  0  0
    6.5211   -2.0847    0.4586 C   0  0  0  0  0  0  0  0  0  0  0  0
    6.7454   -3.4288    0.8054 C   0  0  0  0  0  0  0  0  0  0  0  0
    6.0130   -4.4224    0.1153 C   0  0  0  0  0  0  0  0  0  0  0  0
    5.1058   -4.1692   -0.8556 N   0  0  0  0  0  0  0  0  0  0  0  0
    4.8971   -2.8924   -1.1949 C   0  0  0  0  0  0  0  0  0  0  0  0
    5.3683    0.2991   -0.8964 H   0  0  0  0  0  0  0  0  0  0  0  0
    1.2042   -3.9389   -2.9873 H   0  0  0  0  0  0  0  0  0  0  0  0
    1.3769   -2.5962   -2.0003 H   0  0  0  0  0  0  0  0  0  0  0  0
    3.5266   -3.9302   -3.4841 H   0  0  0  0  0  0  0  0  0  0  0  0
    2.7740   -2.4232   -3.9325 H   0  0  0  0  0  0  0  0  0  0  0  0
    3.7112   -0.1661   -2.6920 H   0  0  0  0  0  0  0  0  0  0  0  0
    7.0439   -1.2882    0.9679 H   0  0  0  0  0  0  0  0  0  0  0  0
    7.4519   -3.7039    1.5753 H   0  0  0  0  0  0  0  0  0  0  0  0
    6.1655   -5.4643    0.3522 H   0  0  0  0  0  0  0  0  0  0  0  0
    2.0931   -4.0514   -1.6047 H   0  0  0  0  0  0  0  0  0  0  0  0
  1  2  1  0
  1 13  1  0
  1 14  1  0
  1 21  1  0
  2  3  1  0
  2 15  1  0
  2 16  1  0
  3 11  1  0
  3  4  2  0
  4  5  1  0
  4 17  1  0
  5 12  1  0
  5  6  1  0
  6 11  2  0
  6  7  1  0
  7  8  2  0
  7 18  1  0
  8  9  1  0
  8 19  1  0
  9 10  2  0
  9 20  1  0
 10 11  1  0
M  CHG  1   1   1
M  END
>  <i_m_ct_stereo_status>  (262) 
1

>  <s_m_source_file>  (262) 
/var/tmp/pbs.5076255.sched01/tmpyc7t0a4i/88yk12rjyo.sdf

>  <i_m_source_file_index>  (262) 
23

>  <i_lp_mmshare_version>  (262) 
48012

>  <i_f3d_flags>  (262) 
0

>  <s_epik_input>  (262) 
W05IMl1bQ0gyXWMoW2NIXVtuSF0xKWMoYzEyKW5bY0hdW2NIXVtjSF0y

>  <s_epik_cmdline>  (262) 
J2VwaWtfcHl0aG9uJywgJy1waHQnLCAnMi4wJywgJy1waCcsICc3LjAnLCAnLXRuJywgJzgnLCAnLW1hJywgJzIwMCcsICctaW1hZScsICc8aW5maWxlLm1hZT4nLCAnLW9tYWUnLCAnPG91dGZpbGUubWFlPic=

>  <r_lp_tautomer_probability>  (262) 
0.999991

>  <r_epik_Ionization_Penalty>  (262) 
0.242811

>  <r_epik_Ionization_Penalty_Charging>  (262) 
0.00662929

>  <r_epik_Ionization_Penalty_Neutral>  (262) 
0.236182

>  <r_epik_State_Penalty>  (262) 
0.272013

>  <r_epik_Charging_Adjusted_Penalty>  (262) 
0.278642

>  <i_epik_Tot_Q>  (262) 
1

>  <i_epik_Tot_abs_Q>  (262) 
1

>  <s_lp_Force_Field>  (262) 
OPLS3e

>  <r_lp_Energy>  (262) 
15.158

>  <b_lp_Chiralities_Consistent>  (262) 
1

>  <s_lp_Variant>  (262) 
71:0-1

>  <s_i_glide_gridfile>  (262) 
pfpi4k_grid

>  <i_i_glide_lignum>  (262) 
23

>  <i_i_glide_rotatable_bonds>  (262) 
1

>  <r_i_docking_score>  (262) 
-5.38395

>  <r_i_glide_ligand_efficiency>  (262) 
-0.48945

>  <r_i_glide_ligand_efficiency_sa>  (262) 
-1.08853

>  <r_i_glide_ligand_efficiency_ln>  (262) 
-1.5845

>  <r_i_glide_gscore>  (262) 
-5.38395

>  <r_i_glide_lipo>  (262) 
-0.271943

>  <r_i_glide_hbond>  (262) 
-0.508096

>  <r_i_glide_metal>  (262) 
-0

>  <r_i_glide_rewards>  (262) 
-2.25

>  <r_i_glide_evdw>  (262) 
-14.2848

>  <r_i_glide_ecoul>  (262) 
-10.5972

>  <r_i_glide_erotb>  (262) 
0

>  <r_i_glide_esite>  (262) 
-0.0500951

>  <r_i_glide_emodel>  (262) 
-35.3433

>  <r_i_glide_energy>  (262) 
-24.882

>  <r_i_glide_einternal>  (262) 
0.0591319

>  <r_i_glide_intrahb_reward>  (262) 
-0

>  <i_i_glide_confnum>  (262) 
1

>  <i_i_glide_posenum>  (262) 
20

>  <r_i_glide_eff_state_penalty>  (262) 
0

>  <ligand_id>  (262) 
71

>  <original_smiles>  (262) 
NCc1c[nH]c2cccnc12

>  <smiles>  (262) 
[H]c1nc2c(C([H])([H])[N+]([H])([H])[H])c([H])n([H])c2c([H])c1[H]

$$$$
71:1:0
     RDKit          3D

 22 23  0  0  1  0  0  0  0  0999 V2000
    2.4680    0.1442   -4.7308 N   0  0  0  0  0  0  0  0  0  0  0  0
    3.7523   -0.0989   -4.0546 C   0  0  0  0  0  0  0  0  0  0  0  0
    3.7011   -1.3377   -3.2025 C   0  0  0  0  0  0  0  0  0  0  0  0
    3.2291   -2.5716   -3.5892 C   0  0  0  0  0  0  0  0  0  0  0  0
    3.3329   -3.4543   -2.5357 N   0  0  0  0  0  0  0  0  0  0  0  0
    3.8783   -2.8296   -1.4370 C   0  0  0  0  0  0  0  0  0  0  0  0
    4.1847   -3.2696   -0.1343 C   0  0  0  0  0  0  0  0  0  0  0  0
    4.7591   -2.3536    0.7701 C   0  0  0  0  0  0  0  0  0  0  0  0
    5.0046   -1.0325    0.3302 C   0  0  0  0  0  0  0  0  0  0  0  0
    4.6933   -0.6561   -0.9387 N   0  0  0  0  0  0  0  0  0  0  0  0
    4.1357   -1.4844   -1.8280 C   0  0  0  0  0  0  0  0  0  0  0  0
    3.0343   -4.4340   -2.5988 H   0  0  0  0  0  0  0  0  0  0  0  0
    2.5091    0.9998   -5.2748 H   0  0  0  0  0  0  0  0  0  0  0  0
    1.7629    0.2623   -4.0076 H   0  0  0  0  0  0  0  0  0  0  0  0
    4.5377   -0.1605   -4.8032 H   0  0  0  0  0  0  0  0  0  0  0  0
    3.9843    0.7842   -3.4572 H   0  0  0  0  0  0  0  0  0  0  0  0
    2.8069   -2.8955   -4.5289 H   0  0  0  0  0  0  0  0  0  0  0  0
    3.9787   -4.2894    0.1597 H   0  0  0  0  0  0  0  0  0  0  0  0
    5.0018   -2.6579    1.7822 H   0  0  0  0  0  0  0  0  0  0  0  0
    5.4336   -0.2638    0.9612 H   0  0  0  0  0  0  0  0  0  0  0  0
    2.2265   -0.6346   -5.3352 H   0  0  0  0  0  0  0  0  0  0  0  0
    4.8750    0.3170   -1.1930 H   0  0  0  0  0  0  0  0  0  0  0  0
  1  2  1  0
  1 13  1  0
  1 14  1  0
  1 21  1  0
  2  3  1  0
  2 15  1  0
  2 16  1  0
  3 11  1  0
  3  4  2  0
  4  5  1  0
  4 17  1  0
  5 12  1  0
  5  6  1  0
  6 11  2  0
  6  7  1  0
  7  8  2  0
  7 18  1  0
  8  9  1  0
  8 19  1  0
  9 10  2  0
  9 20  1  0
 10 11  1  0
 10 22  1  0
M  CHG  2   1   1  10   1
M  END
>  <i_m_ct_stereo_status>  (263) 
1

>  <s_m_source_file>  (263) 
/var/tmp/pbs.5076255.sched01/tmpyc7t0a4i/88yk12rjyo.sdf

>  <i_m_source_file_index>  (263) 
24

>  <i_lp_mmshare_version>  (263) 
48012

>  <i_f3d_flags>  (263) 
0

>  <s_epik_input>  (263) 
W05IMl1bQ0gyXWMoW2NIXVtuSF0xKWMoYzEyKW5bY0hdW2NIXVtjSF0y

>  <s_epik_cmdline>  (263) 
J2VwaWtfcHl0aG9uJywgJy1waHQnLCAnMi4wJywgJy1waCcsICc3LjAnLCAnLXRuJywgJzgnLCAnLW1hJywgJzIwMCcsICctaW1hZScsICc8aW5maWxlLm1hZT4nLCAnLW9tYWUnLCAnPG91dGZpbGUubWFlPic=

>  <r_lp_tautomer_probability>  (263) 
1

>  <r_epik_Ionization_Penalty>  (263) 
0.665866

>  <r_epik_Ionization_Penalty_Charging>  (263) 
0.665728

>  <r_epik_Ionization_Penalty_Neutral>  (263) 
0.000138648

>  <r_epik_State_Penalty>  (263) 
0.605019

>  <r_epik_Charging_Adjusted_Penalty>  (263) 
1.27075

>  <i_epik_Tot_Q>  (263) 
2

>  <i_epik_Tot_abs_Q>  (263) 
2

>  <s_lp_Force_Field>  (263) 
OPLS3e

>  <r_lp_Energy>  (263) 
25.499

>  <b_lp_Chiralities_Consistent>  (263) 
1

>  <s_lp_Variant>  (263) 
71:0-2

>  <s_i_glide_gridfile>  (263) 
pfpi4k_grid

>  <i_i_glide_lignum>  (263) 
24

>  <i_i_glide_rotatable_bonds>  (263) 
1

>  <r_i_docking_score>  (263) 
-6.03666

>  <r_i_glide_ligand_efficiency>  (263) 
-0.548787

>  <r_i_glide_ligand_efficiency_sa>  (263) 
-1.22049

>  <r_i_glide_ligand_efficiency_ln>  (263) 
-1.77659

>  <r_i_glide_gscore>  (263) 
-6.03666

>  <r_i_glide_lipo>  (263) 
-0.618576

>  <r_i_glide_hbond>  (263) 
-0.32

>  <r_i_glide_metal>  (263) 
-0

>  <r_i_glide_rewards>  (263) 
-2.25

>  <r_i_glide_evdw>  (263) 
-16.0218

>  <r_i_glide_ecoul>  (263) 
-13.0603

>  <r_i_glide_erotb>  (263) 
0

>  <r_i_glide_esite>  (263) 
-0.0879459

>  <r_i_glide_emodel>  (263) 
-44.6252

>  <r_i_glide_energy>  (263) 
-29.0821

>  <r_i_glide_einternal>  (263) 
1.15415

>  <r_i_glide_intrahb_reward>  (263) 
-0

>  <i_i_glide_confnum>  (263) 
1

>  <i_i_glide_posenum>  (263) 
21

>  <r_i_glide_eff_state_penalty>  (263) 
0

>  <ligand_id>  (263) 
71

>  <original_smiles>  (263) 
NCc1c[nH]c2cccnc12

>  <smiles>  (263) 
[H]c1c([H])c2c(c(C([H])([H])[N+]([H])([H])[H])c([H])n2[H])[n+]([H])c1[H]

$$$$
71:1:1
     RDKit          3D

 22 23  0  0  1  0  0  0  0  0999 V2000
    0.0187    1.7243    1.5877 N   0  0  0  0  0  0  0  0  0  0  0  0
    1.3090    1.0518    1.8548 C   0  0  0  0  0  0  0  0  0  0  0  0
    2.0050    1.6313    3.0500 C   0  0  0  0  0  0  0  0  0  0  0  0
    2.7160    0.9268    3.9991 C   0  0  0  0  0  0  0  0  0  0  0  0
    3.1936    1.8239    4.9403 N   0  0  0  0  0  0  0  0  0  0  0  0
    2.8198    3.1178    4.6267 C   0  0  0  0  0  0  0  0  0  0  0  0
    3.0228    4.3687    5.2406 C   0  0  0  0  0  0  0  0  0  0  0  0
    2.4691    5.5158    4.6338 C   0  0  0  0  0  0  0  0  0  0  0  0
    1.7516    5.3693    3.4368 C   0  0  0  0  0  0  0  0  0  0  0  0
    1.6053    4.1531    2.8832 N   0  0  0  0  0  0  0  0  0  0  0  0
    2.0812    3.0214    3.4201 C   0  0  0  0  0  0  0  0  0  0  0  0
    3.7315    1.5392    5.7518 H   0  0  0  0  0  0  0  0  0  0  0  0
   -0.4069    1.2886    0.7743 H   0  0  0  0  0  0  0  0  0  0  0  0
    0.1669    2.7107    1.3512 H   0  0  0  0  0  0  0  0  0  0  0  0
    1.1265   -0.0106    1.9894 H   0  0  0  0  0  0  0  0  0  0  0  0
    1.9500    1.1213    0.9817 H   0  0  0  0  0  0  0  0  0  0  0  0
    2.9183   -0.1419    4.0742 H   0  0  0  0  0  0  0  0  0  0  0  0
    3.5773    4.4499    6.1691 H   0  0  0  0  0  0  0  0  0  0  0  0
    2.5895    6.5032    5.0669 H   0  0  0  0  0  0  0  0  0  0  0  0
    1.2715    6.1660    2.8850 H   0  0  0  0  0  0  0  0  0  0  0  0
   -0.5840    1.6333    2.3928 H   0  0  0  0  0  0  0  0  0  0  0  0
    1.0887    4.1567    1.9716 H   0  0  0  0  0  0  0  0  0  0  0  0
  1  2  1  0
  1 13  1  0
  1 14  1  0
  1 21  1  0
  2  3  1  0
  2 15  1  0
  2 16  1  0
  3 11  1  0
  3  4  2  0
  4  5  1  0
  4 17  1  0
  5 12  1  0
  5  6  1  0
  6 11  2  0
  6  7  1  0
  7  8  2  0
  7 18  1  0
  8  9  1  0
  8 19  1  0
  9 10  2  0
  9 20  1  0
 10 11  1  0
 10 22  1  0
M  CHG  2   1   1  10   1
M  END
>  <i_m_ct_stereo_status>  (264) 
1

>  <s_m_source_file>  (264) 
/var/tmp/pbs.5076255.sched01/tmpyc7t0a4i/88yk12rjyo.sdf

>  <i_m_source_file_index>  (264) 
24

>  <i_lp_mmshare_version>  (264) 
48012

>  <i_f3d_flags>  (264) 
0

>  <s_epik_input>  (264) 
W05IMl1bQ0gyXWMoW2NIXVtuSF0xKWMoYzEyKW5bY0hdW2NIXVtjSF0y

>  <s_epik_cmdline>  (264) 
J2VwaWtfcHl0aG9uJywgJy1waHQnLCAnMi4wJywgJy1waCcsICc3LjAnLCAnLXRuJywgJzgnLCAnLW1hJywgJzIwMCcsICctaW1hZScsICc8aW5maWxlLm1hZT4nLCAnLW9tYWUnLCAnPG91dGZpbGUubWFlPic=

>  <r_lp_tautomer_probability>  (264) 
1

>  <r_epik_Ionization_Penalty>  (264) 
0.665866

>  <r_epik_Ionization_Penalty_Charging>  (264) 
0.665728

>  <r_epik_Ionization_Penalty_Neutral>  (264) 
0.000138648

>  <r_epik_State_Penalty>  (264) 
0.605019

>  <r_epik_Charging_Adjusted_Penalty>  (264) 
1.27075

>  <i_epik_Tot_Q>  (264) 
2

>  <i_epik_Tot_abs_Q>  (264) 
2

>  <s_lp_Force_Field>  (264) 
OPLS3e

>  <r_lp_Energy>  (264) 
25.499

>  <b_lp_Chiralities_Consistent>  (264) 
1

>  <s_lp_Variant>  (264) 
71:0-2

>  <s_i_glide_gridfile>  (264) 
pfpi4k_grid

>  <i_i_glide_lignum>  (264) 
24

>  <i_i_glide_rotatable_bonds>  (264) 
1

>  <r_i_docking_score>  (264) 
-5.46775

>  <r_i_glide_ligand_efficiency>  (264) 
-0.497068

>  <r_i_glide_ligand_efficiency_sa>  (264) 
-1.10547

>  <r_i_glide_ligand_efficiency_ln>  (264) 
-1.60916

>  <r_i_glide_gscore>  (264) 
-5.46775

>  <r_i_glide_lipo>  (264) 
0

>  <r_i_glide_hbond>  (264) 
-0.6

>  <r_i_glide_metal>  (264) 
-0

>  <r_i_glide_rewards>  (264) 
-2.25

>  <r_i_glide_evdw>  (264) 
-8.91532

>  <r_i_glide_ecoul>  (264) 
-13.2657

>  <r_i_glide_erotb>  (264) 
0

>  <r_i_glide_esite>  (264) 
-0.182132

>  <r_i_glide_emodel>  (264) 
-35.7646

>  <r_i_glide_energy>  (264) 
-22.181

>  <r_i_glide_einternal>  (264) 
1.80059

>  <r_i_glide_intrahb_reward>  (264) 
-0

>  <i_i_glide_confnum>  (264) 
2

>  <i_i_glide_posenum>  (264) 
22

>  <r_i_glide_eff_state_penalty>  (264) 
0

>  <ligand_id>  (264) 
71

>  <original_smiles>  (264) 
NCc1c[nH]c2cccnc12

>  <smiles>  (264) 
[H]c1c([H])c2c(c(C([H])([H])[N+]([H])([H])[H])c([H])n2[H])[n+]([H])c1[H]

$$$$
71:1:2
     RDKit          3D

 22 23  0  0  1  0  0  0  0  0999 V2000
    3.5059   -0.1667    1.2938 N   0  0  0  0  0  0  0  0  0  0  0  0
    4.6480   -0.9857    0.8430 C   0  0  0  0  0  0  0  0  0  0  0  0
    4.2683   -1.8509   -0.3262 C   0  0  0  0  0  0  0  0  0  0  0  0
    4.0115   -3.2012   -0.2989 C   0  0  0  0  0  0  0  0  0  0  0  0
    3.6722   -3.6189   -1.5752 N   0  0  0  0  0  0  0  0  0  0  0  0
    3.7090   -2.5695   -2.4603 C   0  0  0  0  0  0  0  0  0  0  0  0
    3.4452   -2.4467   -3.8374 C   0  0  0  0  0  0  0  0  0  0  0  0
    3.5888   -1.1748   -4.4297 C   0  0  0  0  0  0  0  0  0  0  0  0
    3.9734   -0.0849   -3.6333 C   0  0  0  0  0  0  0  0  0  0  0  0
    4.2451   -0.2640   -2.3226 N   0  0  0  0  0  0  0  0  0  0  0  0
    4.1063   -1.4373   -1.7011 C   0  0  0  0  0  0  0  0  0  0  0  0
    3.4158   -4.5739   -1.8212 H   0  0  0  0  0  0  0  0  0  0  0  0
    3.7857    0.4031    2.0793 H   0  0  0  0  0  0  0  0  0  0  0  0
    2.7425   -0.7704    1.5601 H   0  0  0  0  0  0  0  0  0  0  0  0
    5.4812   -0.3322    0.5847 H   0  0  0  0  0  0  0  0  0  0  0  0
    4.9933   -1.6002    1.6751 H   0  0  0  0  0  0  0  0  0  0  0  0
    4.0377   -3.9005    0.5283 H   0  0  0  0  0  0  0  0  0  0  0  0
    3.1265   -3.3125   -4.4005 H   0  0  0  0  0  0  0  0  0  0  0  0
    3.4152   -1.0053   -5.4815 H   0  0  0  0  0  0  0  0  0  0  0  0
    4.0929    0.9182   -4.0141 H   0  0  0  0  0  0  0  0  0  0  0  0
    3.1945    0.4312    0.5456 H   0  0  0  0  0  0  0  0  0  0  0  0
    4.5429    0.5533   -1.7800 H   0  0  0  0  0  0  0  0  0  0  0  0
  1  2  1  0
  1 13  1  0
  1 14  1  0
  1 21  1  0
  2  3  1  0
  2 15  1  0
  2 16  1  0
  3 11  1  0
  3  4  2  0
  4  5  1  0
  4 17  1  0
  5 12  1  0
  5  6  1  0
  6 11  2  0
  6  7  1  0
  7  8  2  0
  7 18  1  0
  8  9  1  0
  8 19  1  0
  9 10  2  0
  9 20  1  0
 10 11  1  0
 10 22  1  0
M  CHG  2   1   1  10   1
M  END
>  <i_m_ct_stereo_status>  (265) 
1

>  <s_m_source_file>  (265) 
/var/tmp/pbs.5076255.sched01/tmpyc7t0a4i/88yk12rjyo.sdf

>  <i_m_source_file_index>  (265) 
24

>  <i_lp_mmshare_version>  (265) 
48012

>  <i_f3d_flags>  (265) 
0

>  <s_epik_input>  (265) 
W05IMl1bQ0gyXWMoW2NIXVtuSF0xKWMoYzEyKW5bY0hdW2NIXVtjSF0y

>  <s_epik_cmdline>  (265) 
J2VwaWtfcHl0aG9uJywgJy1waHQnLCAnMi4wJywgJy1waCcsICc3LjAnLCAnLXRuJywgJzgnLCAnLW1hJywgJzIwMCcsICctaW1hZScsICc8aW5maWxlLm1hZT4nLCAnLW9tYWUnLCAnPG91dGZpbGUubWFlPic=

>  <r_lp_tautomer_probability>  (265) 
1

>  <r_epik_Ionization_Penalty>  (265) 
0.665866

>  <r_epik_Ionization_Penalty_Charging>  (265) 
0.665728

>  <r_epik_Ionization_Penalty_Neutral>  (265) 
0.000138648

>  <r_epik_State_Penalty>  (265) 
0.605019

>  <r_epik_Charging_Adjusted_Penalty>  (265) 
1.27075

>  <i_epik_Tot_Q>  (265) 
2

>  <i_epik_Tot_abs_Q>  (265) 
2

>  <s_lp_Force_Field>  (265) 
OPLS3e

>  <r_lp_Energy>  (265) 
25.499

>  <b_lp_Chiralities_Consistent>  (265) 
1

>  <s_lp_Variant>  (265) 
71:0-2

>  <s_i_glide_gridfile>  (265) 
pfpi4k_grid

>  <i_i_glide_lignum>  (265) 
24

>  <i_i_glide_rotatable_bonds>  (265) 
1

>  <r_i_docking_score>  (265) 
-5.12169

>  <r_i_glide_ligand_efficiency>  (265) 
-0.465609

>  <r_i_glide_ligand_efficiency_sa>  (265) 
-1.0355

>  <r_i_glide_ligand_efficiency_ln>  (265) 
-1.50731

>  <r_i_glide_gscore>  (265) 
-5.12169

>  <r_i_glide_lipo>  (265) 
-0.339785

>  <r_i_glide_hbond>  (265) 
-0.32

>  <r_i_glide_metal>  (265) 
-0

>  <r_i_glide_rewards>  (265) 
-2.25

>  <r_i_glide_evdw>  (265) 
-13.4262

>  <r_i_glide_ecoul>  (265) 
-10.1883

>  <r_i_glide_erotb>  (265) 
0

>  <r_i_glide_esite>  (265) 
-0.0123514

>  <r_i_glide_emodel>  (265) 
-37.2461

>  <r_i_glide_energy>  (265) 
-23.6145

>  <r_i_glide_einternal>  (265) 
0.118653

>  <r_i_glide_intrahb_reward>  (265) 
-0

>  <i_i_glide_confnum>  (265) 
2

>  <i_i_glide_posenum>  (265) 
38

>  <r_i_glide_eff_state_penalty>  (265) 
0

>  <ligand_id>  (265) 
71

>  <original_smiles>  (265) 
NCc1c[nH]c2cccnc12

>  <smiles>  (265) 
[H]c1c([H])c2c(c(C([H])([H])[N+]([H])([H])[H])c([H])n2[H])[n+]([H])c1[H]

$$$$
74:0:0
     RDKit          3D

 36 41  0  0  1  0  0  0  0  0999 V2000
    3.8664   -0.2276    2.0493 C   0  0  0  0  0  0  0  0  0  0  0  0
    3.6984   -1.3826    1.0536 C   0  0  2  0  0  0  0  0  0  0  0  0
    3.5696   -2.8787    1.7669 C   0  0  2  0  0  0  0  0  0  0  0  0
    4.5448   -3.7890    2.6528 C   0  0  0  0  0  0  0  0  0  0  0  0
    5.6106   -4.2390    1.5820 C   0  0  1  0  0  0  0  0  0  0  0  0
    5.2195   -4.3901    0.0681 C   0  0  2  0  0  0  0  0  0  0  0  0
    5.8922   -3.4986   -1.0403 C   0  0  1  0  0  0  0  0  0  0  0  0
    5.1410   -2.7280   -2.1583 C   0  0  1  0  0  0  0  0  0  0  0  0
    4.4458   -3.2127   -3.3958 C   0  0  0  0  0  0  0  0  0  0  0  0
    3.6270   -2.2096   -3.7909 C   0  0  0  0  0  0  0  0  0  0  0  0
    3.5920   -1.0557   -2.7832 C   0  0  0  0  0  0  0  0  0  0  0  0
    4.0927   -1.8108   -1.5509 C   0  0  2  0  0  0  0  0  0  0  0  0
    4.7378   -1.2718   -0.2559 C   0  0  2  0  0  0  0  0  0  0  0  0
    5.9884   -2.2782   -0.1731 C   0  0  1  0  0  0  0  0  0  0  0  0
    5.5694   -2.9494    1.0044 C   0  0  1  0  0  0  0  0  0  0  0  0
    4.0595   -3.5868    0.6172 C   0  0  2  0  0  0  0  0  0  0  0  0
    4.8394   -0.2303    2.5473 H   0  0  0  0  0  0  0  0  0  0  0  0
    3.0866   -0.2667    2.8142 H   0  0  0  0  0  0  0  0  0  0  0  0
    3.7575    0.7296    1.5322 H   0  0  0  0  0  0  0  0  0  0  0  0
    2.7143   -1.2011    0.6190 H   0  0  0  0  0  0  0  0  0  0  0  0
    2.5270   -3.0910    2.0058 H   0  0  0  0  0  0  0  0  0  0  0  0
    4.9770   -3.2702    3.5119 H   0  0  0  0  0  0  0  0  0  0  0  0
    4.0227   -4.6551    3.0614 H   0  0  0  0  0  0  0  0  0  0  0  0
    6.6142   -4.5323    1.8871 H   0  0  0  0  0  0  0  0  0  0  0  0
    4.9890   -5.4176   -0.2249 H   0  0  0  0  0  0  0  0  0  0  0  0
    6.8763   -3.8491   -1.3468 H   0  0  0  0  0  0  0  0  0  0  0  0
    5.9312   -2.1212   -2.6106 H   0  0  0  0  0  0  0  0  0  0  0  0
    4.6493   -4.1309   -3.9288 H   0  0  0  0  0  0  0  0  0  0  0  0
    3.0374   -2.1806   -4.6945 H   0  0  0  0  0  0  0  0  0  0  0  0
    4.2631   -0.2533   -3.0803 H   0  0  0  0  0  0  0  0  0  0  0  0
    2.5907   -0.6589   -2.6270 H   0  0  0  0  0  0  0  0  0  0  0  0
    3.2217   -2.4085   -1.2838 H   0  0  0  0  0  0  0  0  0  0  0  0
    5.0731   -0.2563   -0.4186 H   0  0  0  0  0  0  0  0  0  0  0  0
    6.9755   -1.8174   -0.0919 H   0  0  0  0  0  0  0  0  0  0  0  0
    5.8208   -2.2346    1.8093 H   0  0  0  0  0  0  0  0  0  0  0  0
    3.5300   -4.5526    0.7469 H   0  0  0  0  0  0  0  0  0  0  0  0
  1  2  1  0
  1 17  1  0
  1 18  1  0
  1 19  1  0
  2 13  1  0
  2  3  1  0
  2 20  1  6
  3 16  1  0
  3  4  1  0
  3 21  1  1
  4  5  1  0
  4 22  1  0
  4 23  1  0
  5 15  1  0
  5  6  1  0
  5 24  1  1
  6 16  1  0
  6  7  1  0
  6 25  1  6
  7 14  1  0
  7  8  1  0
  7 26  1  6
  8 12  1  0
  8  9  1  0
  8 27  1  6
  9 10  2  0
  9 28  1  0
 10 11  1  0
 10 29  1  0
 11 12  1  0
 11 30  1  0
 11 31  1  0
 12 13  1  0
 12 32  1  1
 13 14  1  0
 13 33  1  6
 14 15  1  0
 14 34  1  1
 15 16  1  0
 15 35  1  1
 16 36  1  6
M  END
>  <i_m_ct_stereo_status>  (266) 
1

>  <s_m_source_file>  (266) 
/var/tmp/pbs.5076255.sched01/tmpyc7t0a4i/88yk12rjyo.sdf

>  <i_m_source_file_index>  (266) 
27

>  <i_lp_mmshare_version>  (266) 
48012

>  <i_f3d_flags>  (266) 
0

>  <s_epik_input>  (266) 
W0NIM11bQ0BIXTFbQ0BASF0yW0NAQEhdKFtDSDJdW0NIXT1bQ0hdMylbQ0BIXTNbQ0BIXTRbQ0BASF0yW0NAQEhdNVtDQEBIXShbQ0gyXTYpW0NASF00W0NASF01W0NASF0xNg==

>  <s_epik_cmdline>  (266) 
J2VwaWtfcHl0aG9uJywgJy1waHQnLCAnMi4wJywgJy1waCcsICc3LjAnLCAnLXRuJywgJzgnLCAnLW1hJywgJzIwMCcsICctaW1hZScsICc8aW5maWxlLm1hZT4nLCAnLW9tYWUnLCAnPG91dGZpbGUubWFlPic=

>  <r_lp_tautomer_probability>  (266) 
1

>  <r_epik_Ionization_Penalty>  (266) 
0

>  <r_epik_Ionization_Penalty_Charging>  (266) 
0

>  <r_epik_Ionization_Penalty_Neutral>  (266) 
0

>  <r_epik_State_Penalty>  (266) 
-0

>  <r_epik_Charging_Adjusted_Penalty>  (266) 
0

>  <i_epik_Tot_Q>  (266) 
0

>  <i_epik_Tot_abs_Q>  (266) 
0

>  <s_lp_Force_Field>  (266) 
OPLS3e

>  <r_lp_Energy>  (266) 
269.606

>  <b_lp_Chiralities_Consistent>  (266) 
1

>  <s_lp_Variant>  (266) 
74:0-1

>  <s_i_glide_gridfile>  (266) 
pfpi4k_grid

>  <i_i_glide_lignum>  (266) 
27

>  <i_i_glide_rotatable_bonds>  (266) 
0

>  <r_i_docking_score>  (266) 
-3.89788

>  <r_i_glide_ligand_efficiency>  (266) 
-0.243618

>  <r_i_glide_ligand_efficiency_sa>  (266) 
-0.613878

>  <r_i_glide_ligand_efficiency_ln>  (266) 
-1.03321

>  <r_i_glide_gscore>  (266) 
-3.89788

>  <r_i_glide_lipo>  (266) 
-0.754197

>  <r_i_glide_hbond>  (266) 
0

>  <r_i_glide_metal>  (266) 
-0

>  <r_i_glide_rewards>  (266) 
-1.96139

>  <r_i_glide_evdw>  (266) 
-23.5657

>  <r_i_glide_ecoul>  (266) 
-0.0267731

>  <r_i_glide_erotb>  (266) 
0

>  <r_i_glide_esite>  (266) 
0

>  <r_i_glide_emodel>  (266) 
-28.9911

>  <r_i_glide_energy>  (266) 
-23.5925

>  <r_i_glide_einternal>  (266) 
0

>  <r_i_glide_intrahb_reward>  (266) 
-0

>  <i_i_glide_confnum>  (266) 
1

>  <i_i_glide_posenum>  (266) 
1

>  <r_i_glide_eff_state_penalty>  (266) 
0

>  <ligand_id>  (266) 
74

>  <original_smiles>  (266) 
CC1C2CC3C4C5C6C=CCC6C1C5C3C24

>  <smiles>  (266) 
[H]C1=C([H])C2([H])C([H])(C1([H])[H])C1([H])C([H])(C([H])([H])[H])C3([H])C([H])([H])C4([H])C5([H])C2([H])C1([H])C4([H])C35[H]

$$$$
74:0:1
     RDKit          3D

 36 41  0  0  1  0  0  0  0  0999 V2000
    2.0231   -3.4507   -1.9934 C   0  0  0  0  0  0  0  0  0  0  0  0
    2.9060   -3.1171   -0.7845 C   0  0  2  0  0  0  0  0  0  0  0  0
    3.8697   -1.7834   -1.0030 C   0  0  2  0  0  0  0  0  0  0  0  0
    5.0779   -1.4310   -1.9864 C   0  0  0  0  0  0  0  0  0  0  0  0
    6.2276   -2.3434   -1.4031 C   0  0  1  0  0  0  0  0  0  0  0  0
    6.2679   -2.7207    0.1183 C   0  0  2  0  0  0  0  0  0  0  0  0
    6.1595   -4.2222    0.5967 C   0  0  1  0  0  0  0  0  0  0  0  0
    5.2127   -4.7469    1.7084 C   0  0  1  0  0  0  0  0  0  0  0  0
    5.2621   -4.6009    3.2010 C   0  0  0  0  0  0  0  0  0  0  0  0
    4.0313   -4.8664    3.6543 C   0  0  0  0  0  0  0  0  0  0  0  0
    3.0068   -5.0553    2.5309 C   0  0  0  0  0  0  0  0  0  0  0  0
    3.7721   -4.3347    1.4248 C   0  0  2  0  0  0  0  0  0  0  0  0
    3.6303   -4.4580   -0.1027 C   0  0  2  0  0  0  0  0  0  0  0  0
    5.1834   -4.6115   -0.4781 C   0  0  1  0  0  0  0  0  0  0  0  0
    5.2963   -3.3768   -1.1735 C   0  0  1  0  0  0  0  0  0  0  0  0
    4.8540   -2.2118   -0.0421 C   0  0  2  0  0  0  0  0  0  0  0  0
    2.5864   -3.8459   -2.8427 H   0  0  0  0  0  0  0  0  0  0  0  0
    1.4617   -2.5862   -2.3308 H   0  0  0  0  0  0  0  0  0  0  0  0
    1.2830   -4.2093   -1.7168 H   0  0  0  0  0  0  0  0  0  0  0  0
    2.1979   -2.7957   -0.0200 H   0  0  0  0  0  0  0  0  0  0  0  0
    3.3351   -0.8777   -0.7102 H   0  0  0  0  0  0  0  0  0  0  0  0
    4.8631   -1.6146   -3.0386 H   0  0  0  0  0  0  0  0  0  0  0  0
    5.3527   -0.3752   -1.9128 H   0  0  0  0  0  0  0  0  0  0  0  0
    7.0491   -2.6641   -2.0347 H   0  0  0  0  0  0  0  0  0  0  0  0
    6.9389   -2.0855    0.7026 H   0  0  0  0  0  0  0  0  0  0  0  0
    7.1079   -4.7651    0.5274 H   0  0  0  0  0  0  0  0  0  0  0  0
    5.2898   -5.8378    1.6162 H   0  0  0  0  0  0  0  0  0  0  0  0
    6.1523   -4.4557    3.7964 H   0  0  0  0  0  0  0  0  0  0  0  0
    3.7484   -4.9646    4.6976 H   0  0  0  0  0  0  0  0  0  0  0  0
    2.8724   -6.1162    2.3207 H   0  0  0  0  0  0  0  0  0  0  0  0
    2.0463   -4.5872    2.7460 H   0  0  0  0  0  0  0  0  0  0  0  0
    3.6471   -3.2876    1.7003 H   0  0  0  0  0  0  0  0  0  0  0  0
    3.0822   -5.3784   -0.3210 H   0  0  0  0  0  0  0  0  0  0  0  0
    5.4179   -5.4785   -1.0850 H   0  0  0  0  0  0  0  0  0  0  0  0
    4.8257   -3.5890   -2.1509 H   0  0  0  0  0  0  0  0  0  0  0  0
    5.2494   -1.2284    0.2846 H   0  0  0  0  0  0  0  0  0  0  0  0
  1  2  1  0
  1 17  1  0
  1 18  1  0
  1 19  1  0
  2 13  1  0
  2  3  1  0
  2 20  1  1
  3 16  1  0
  3  4  1  0
  3 21  1  1
  4  5  1  0
  4 22  1  0
  4 23  1  0
  5 15  1  0
  5  6  1  0
  5 24  1  6
  6 16  1  0
  6  7  1  0
  6 25  1  1
  7 14  1  0
  7  8  1  0
  7 26  1  6
  8 12  1  0
  8  9  1  0
  8 27  1  1
  9 10  2  0
  9 28  1  0
 10 11  1  0
 10 29  1  0
 11 12  1  0
 11 30  1  0
 11 31  1  0
 12 13  1  0
 12 32  1  1
 13 14  1  0
 13 33  1  1
 14 15  1  0
 14 34  1  6
 15 16  1  0
 15 35  1  6
 16 36  1  1
M  END
>  <i_m_ct_stereo_status>  (267) 
1

>  <s_m_source_file>  (267) 
/var/tmp/pbs.5076255.sched01/tmpyc7t0a4i/88yk12rjyo.sdf

>  <i_m_source_file_index>  (267) 
27

>  <i_lp_mmshare_version>  (267) 
48012

>  <i_f3d_flags>  (267) 
0

>  <s_epik_input>  (267) 
W0NIM11bQ0BIXTFbQ0BASF0yW0NAQEhdKFtDSDJdW0NIXT1bQ0hdMylbQ0BIXTNbQ0BIXTRbQ0BASF0yW0NAQEhdNVtDQEBIXShbQ0gyXTYpW0NASF00W0NASF01W0NASF0xNg==

>  <s_epik_cmdline>  (267) 
J2VwaWtfcHl0aG9uJywgJy1waHQnLCAnMi4wJywgJy1waCcsICc3LjAnLCAnLXRuJywgJzgnLCAnLW1hJywgJzIwMCcsICctaW1hZScsICc8aW5maWxlLm1hZT4nLCAnLW9tYWUnLCAnPG91dGZpbGUubWFlPic=

>  <r_lp_tautomer_probability>  (267) 
1

>  <r_epik_Ionization_Penalty>  (267) 
0

>  <r_epik_Ionization_Penalty_Charging>  (267) 
0

>  <r_epik_Ionization_Penalty_Neutral>  (267) 
0

>  <r_epik_State_Penalty>  (267) 
-0

>  <r_epik_Charging_Adjusted_Penalty>  (267) 
0

>  <i_epik_Tot_Q>  (267) 
0

>  <i_epik_Tot_abs_Q>  (267) 
0

>  <s_lp_Force_Field>  (267) 
OPLS3e

>  <r_lp_Energy>  (267) 
269.606

>  <b_lp_Chiralities_Consistent>  (267) 
1

>  <s_lp_Variant>  (267) 
74:0-1

>  <s_i_glide_gridfile>  (267) 
pfpi4k_grid

>  <i_i_glide_lignum>  (267) 
27

>  <i_i_glide_rotatable_bonds>  (267) 
0

>  <r_i_docking_score>  (267) 
-3.4106

>  <r_i_glide_ligand_efficiency>  (267) 
-0.213163

>  <r_i_glide_ligand_efficiency_sa>  (267) 
-0.537136

>  <r_i_glide_ligand_efficiency_ln>  (267) 
-0.904048

>  <r_i_glide_gscore>  (267) 
-3.4106

>  <r_i_glide_lipo>  (267) 
-0.474922

>  <r_i_glide_hbond>  (267) 
0

>  <r_i_glide_metal>  (267) 
-0

>  <r_i_glide_rewards>  (267) 
-1.96139

>  <r_i_glide_evdw>  (267) 
-17.5022

>  <r_i_glide_ecoul>  (267) 
-0.661198

>  <r_i_glide_erotb>  (267) 
0

>  <r_i_glide_esite>  (267) 
0

>  <r_i_glide_emodel>  (267) 
-22.8295

>  <r_i_glide_energy>  (267) 
-18.1634

>  <r_i_glide_einternal>  (267) 
0

>  <r_i_glide_intrahb_reward>  (267) 
-0

>  <i_i_glide_confnum>  (267) 
1

>  <i_i_glide_posenum>  (267) 
11

>  <r_i_glide_eff_state_penalty>  (267) 
0

>  <ligand_id>  (267) 
74

>  <original_smiles>  (267) 
CC1C2CC3C4C5C6C=CCC6C1C5C3C24

>  <smiles>  (267) 
[H]C1=C([H])C2([H])C([H])(C1([H])[H])C1([H])C([H])(C([H])([H])[H])C3([H])C([H])([H])C4([H])C5([H])C2([H])C1([H])C4([H])C35[H]

$$$$
75:0:0
     RDKit          3D

 27 32  0  0  1  0  0  0  0  0999 V2000
    2.5286   -3.6418   -0.8356 C   0  0  0  0  0  0  0  0  0  0  0  0
    2.5585   -3.0285   -2.3115 C   0  0  0  0  0  0  0  0  0  0  0  0
    3.9538   -2.4870   -2.4496 C   0  0  1  0  0  0  0  0  0  0  0  0
    4.9876   -2.1874   -3.4226 O   0  0  0  0  0  0  0  0  0  0  0  0
    5.9585   -2.9601   -2.5462 C   0  0  1  0  0  0  0  0  0  0  0  0
    6.2521   -2.6078   -0.9554 C   0  0  1  0  0  0  0  0  0  0  0  0
    4.9507   -2.6434    0.2882 C   0  0  1  0  0  0  0  0  0  0  0  0
    3.9487   -1.4143    0.1077 C   0  0  0  0  0  0  0  0  0  0  0  0
    4.0920   -1.3420   -1.4362 C   0  0  1  0  0  0  0  0  0  0  0  0
    5.3978   -1.7073   -0.8884 C   0  0  1  0  0  0  0  0  0  0  0  0
    5.0470   -3.5235   -0.9262 C   0  0  1  0  0  0  0  0  0  0  0  0
    3.9311   -3.7742   -0.0494 C   0  0  2  0  0  0  0  0  0  0  0  0
    4.7974   -3.6896   -2.2561 C   0  0  1  0  0  0  0  0  0  0  0  0
    2.1080   -4.6415   -0.9202 H   0  0  0  0  0  0  0  0  0  0  0  0
    1.8057   -3.1038   -0.2303 H   0  0  0  0  0  0  0  0  0  0  0  0
    2.3576   -3.8131   -3.0373 H   0  0  0  0  0  0  0  0  0  0  0  0
    1.8046   -2.2543   -2.4557 H   0  0  0  0  0  0  0  0  0  0  0  0
    6.6501   -3.5958   -3.0945 H   0  0  0  0  0  0  0  0  0  0  0  0
    7.2608   -2.2935   -0.6355 H   0  0  0  0  0  0  0  0  0  0  0  0
    5.2713   -2.7410    1.3360 H   0  0  0  0  0  0  0  0  0  0  0  0
    2.9280   -1.5224    0.4637 H   0  0  0  0  0  0  0  0  0  0  0  0
    4.3083   -0.5050    0.6114 H   0  0  0  0  0  0  0  0  0  0  0  0
    4.0169   -0.3316   -1.8561 H   0  0  0  0  0  0  0  0  0  0  0  0
    5.9511   -1.0319   -1.5664 H   0  0  0  0  0  0  0  0  0  0  0  0
    5.6251   -4.4930   -0.6854 H   0  0  0  0  0  0  0  0  0  0  0  0
    4.0615   -4.7129    0.5086 H   0  0  0  0  0  0  0  0  0  0  0  0
    4.6556   -4.6253   -2.7757 H   0  0  0  0  0  0  0  0  0  0  0  0
  1 12  1  0
  1  2  1  0
  1 14  1  0
  1 15  1  0
  2  3  1  0
  2 16  1  0
  2 17  1  0
  3  9  1  0
  3 13  1  0
  3  4  1  6
  4  5  1  0
  5 13  1  0
  5  6  1  0
  5 18  1  6
  6 10  1  0
  6  7  1  0
  6 19  1  1
  7 12  1  0
  7  8  1  0
  7 20  1  1
  8  9  1  0
  8 21  1  0
  8 22  1  0
  9 10  1  0
  9 23  1  6
 10 11  1  0
 10 24  1  1
 11 12  1  0
 11 13  1  0
 11 25  1  1
 12 26  1  1
 13 27  1  1
M  END
>  <i_m_ct_stereo_status>  (268) 
1

>  <s_m_source_file>  (268) 
/var/tmp/pbs.5076255.sched01/tmpyc7t0a4i/88yk12rjyo.sdf

>  <i_m_source_file_index>  (268) 
28

>  <i_lp_mmshare_version>  (268) 
48012

>  <i_f3d_flags>  (268) 
2

>  <s_epik_input>  (268) 
W0NIMl0xW0NIMl1bQ0BIXShbQ0BASF0yW0NIMl0zKVtDQEhdNFtDQEBIXTVbQ0BASF0oTzYpW0NASF0yW0NIXTRbQ0BIXTNbQ0BdMTU2

>  <s_epik_cmdline>  (268) 
J2VwaWtfcHl0aG9uJywgJy1waHQnLCAnMi4wJywgJy1waCcsICc3LjAnLCAnLXRuJywgJzgnLCAnLW1hJywgJzIwMCcsICctaW1hZScsICc8aW5maWxlLm1hZT4nLCAnLW9tYWUnLCAnPG91dGZpbGUubWFlPic=

>  <r_lp_tautomer_probability>  (268) 
1

>  <r_epik_Ionization_Penalty>  (268) 
3.66147e-10

>  <r_epik_Ionization_Penalty_Charging>  (268) 
0

>  <r_epik_Ionization_Penalty_Neutral>  (268) 
3.66147e-10

>  <r_epik_State_Penalty>  (268) 
-0

>  <r_epik_Charging_Adjusted_Penalty>  (268) 
0

>  <i_epik_Tot_Q>  (268) 
0

>  <i_epik_Tot_abs_Q>  (268) 
0

>  <s_lp_Force_Field>  (268) 
OPLS3e

>  <r_lp_Energy>  (268) 
498.032

>  <b_lp_Chiralities_Consistent>  (268) 
0

>  <s_lp_Variant>  (268) 
75:0-1

>  <s_i_glide_gridfile>  (268) 
pfpi4k_grid

>  <i_i_glide_lignum>  (268) 
28

>  <i_i_glide_rotatable_bonds>  (268) 
0

>  <r_i_docking_score>  (268) 
-3.71113

>  <r_i_glide_ligand_efficiency>  (268) 
-0.285471

>  <r_i_glide_ligand_efficiency_sa>  (268) 
-0.671239

>  <r_i_glide_ligand_efficiency_ln>  (268) 
-1.041

>  <r_i_glide_gscore>  (268) 
-3.71113

>  <r_i_glide_lipo>  (268) 
-0.270763

>  <r_i_glide_hbond>  (268) 
0

>  <r_i_glide_metal>  (268) 
-0

>  <r_i_glide_rewards>  (268) 
-2.2211

>  <r_i_glide_evdw>  (268) 
-18.0936

>  <r_i_glide_ecoul>  (268) 
-2.09724

>  <r_i_glide_erotb>  (268) 
0

>  <r_i_glide_esite>  (268) 
0

>  <r_i_glide_emodel>  (268) 
-24.014

>  <r_i_glide_energy>  (268) 
-20.1909

>  <r_i_glide_einternal>  (268) 
0

>  <r_i_glide_intrahb_reward>  (268) 
-0

>  <i_i_glide_confnum>  (268) 
1

>  <i_i_glide_posenum>  (268) 
6

>  <r_i_glide_eff_state_penalty>  (268) 
0

>  <ligand_id>  (268) 
75

>  <original_smiles>  (268) 
C1CC23OC4C5C6CC2C5C(C16)C43

>  <smiles>  (268) 
[H]C1([H])C([H])([H])C23OC4([H])C5([H])C6([H])C([H])([H])C2([H])C5([H])C([H])(C16[H])C43[H]

$$$$
75:0:1
     RDKit          3D

 27 32  0  0  1  0  0  0  0  0999 V2000
    4.0897   -0.8849    0.4855 C   0  0  0  0  0  0  0  0  0  0  0  0
    5.0748   -1.7629    1.3740 C   0  0  0  0  0  0  0  0  0  0  0  0
    5.6470   -2.7892    0.4270 C   0  0  1  0  0  0  0  0  0  0  0  0
    6.8116   -3.6227    0.1256 O   0  0  0  0  0  0  0  0  0  0  0  0
    6.7839   -3.0776   -1.2746 C   0  0  1  0  0  0  0  0  0  0  0  0
    5.4596   -3.1991   -2.3193 C   0  0  1  0  0  0  0  0  0  0  0  0
    3.8756   -2.4640   -1.8901 C   0  0  1  0  0  0  0  0  0  0  0  0
    3.1495   -3.2560   -0.7118 C   0  0  0  0  0  0  0  0  0  0  0  0
    4.4381   -3.6846    0.0022 C   0  0  1  0  0  0  0  0  0  0  0  0
    4.7206   -3.7136   -1.4411 C   0  0  1  0  0  0  0  0  0  0  0  0
    5.2421   -1.9260   -1.5150 C   0  0  1  0  0  0  0  0  0  0  0  0
    4.1069   -1.1412   -1.1230 C   0  0  2  0  0  0  0  0  0  0  0  0
    6.2719   -1.9676   -0.6272 C   0  0  1  0  0  0  0  0  0  0  0  0
    4.3390    0.1580    0.6520 H   0  0  0  0  0  0  0  0  0  0  0  0
    3.0714   -0.9668    0.8685 H   0  0  0  0  0  0  0  0  0  0  0  0
    5.8819   -1.1286    1.7601 H   0  0  0  0  0  0  0  0  0  0  0  0
    4.5950   -2.2138    2.2355 H   0  0  0  0  0  0  0  0  0  0  0  0
    7.7732   -2.8688   -1.7248 H   0  0  0  0  0  0  0  0  0  0  0  0
    5.5468   -3.8012   -3.2207 H   0  0  0  0  0  0  0  0  0  0  0  0
    3.1835   -2.2902   -2.7365 H   0  0  0  0  0  0  0  0  0  0  0  0
    2.4492   -2.7034   -0.0983 H   0  0  0  0  0  0  0  0  0  0  0  0
    2.5600   -4.1140   -1.0858 H   0  0  0  0  0  0  0  0  0  0  0  0
    4.4080   -4.6521    0.4965 H   0  0  0  0  0  0  0  0  0  0  0  0
    5.2720   -4.6683   -1.4154 H   0  0  0  0  0  0  0  0  0  0  0  0
    5.6376   -1.2041   -2.3308 H   0  0  0  0  0  0  0  0  0  0  0  0
    4.0404   -0.2415   -1.7335 H   0  0  0  0  0  0  0  0  0  0  0  0
    6.9122   -1.0973   -0.3680 H   0  0  0  0  0  0  0  0  0  0  0  0
  1 12  1  0
  1  2  1  0
  1 14  1  0
  1 15  1  0
  2  3  1  0
  2 16  1  0
  2 17  1  0
  3  9  1  0
  3 13  1  0
  3  4  1  1
  4  5  1  0
  5 13  1  0
  5  6  1  0
  5 18  1  6
  6 10  1  0
  6  7  1  0
  6 19  1  6
  7 12  1  0
  7  8  1  0
  7 20  1  6
  8  9  1  0
  8 21  1  0
  8 22  1  0
  9 10  1  0
  9 23  1  1
 10 11  1  0
 10 24  1  6
 11 12  1  0
 11 13  1  0
 11 25  1  6
 12 26  1  6
 13 27  1  1
M  END
>  <i_m_ct_stereo_status>  (269) 
1

>  <s_m_source_file>  (269) 
/var/tmp/pbs.5076255.sched01/tmpyc7t0a4i/88yk12rjyo.sdf

>  <i_m_source_file_index>  (269) 
28

>  <i_lp_mmshare_version>  (269) 
48012

>  <i_f3d_flags>  (269) 
2

>  <s_epik_input>  (269) 
W0NIMl0xW0NIMl1bQ0BIXShbQ0BASF0yW0NIMl0zKVtDQEhdNFtDQEBIXTVbQ0BASF0oTzYpW0NASF0yW0NIXTRbQ0BIXTNbQ0BdMTU2

>  <s_epik_cmdline>  (269) 
J2VwaWtfcHl0aG9uJywgJy1waHQnLCAnMi4wJywgJy1waCcsICc3LjAnLCAnLXRuJywgJzgnLCAnLW1hJywgJzIwMCcsICctaW1hZScsICc8aW5maWxlLm1hZT4nLCAnLW9tYWUnLCAnPG91dGZpbGUubWFlPic=

>  <r_lp_tautomer_probability>  (269) 
1

>  <r_epik_Ionization_Penalty>  (269) 
3.66147e-10

>  <r_epik_Ionization_Penalty_Charging>  (269) 
0

>  <r_epik_Ionization_Penalty_Neutral>  (269) 
3.66147e-10

>  <r_epik_State_Penalty>  (269) 
-0

>  <r_epik_Charging_Adjusted_Penalty>  (269) 
0

>  <i_epik_Tot_Q>  (269) 
0

>  <i_epik_Tot_abs_Q>  (269) 
0

>  <s_lp_Force_Field>  (269) 
OPLS3e

>  <r_lp_Energy>  (269) 
498.032

>  <b_lp_Chiralities_Consistent>  (269) 
0

>  <s_lp_Variant>  (269) 
75:0-1

>  <s_i_glide_gridfile>  (269) 
pfpi4k_grid

>  <i_i_glide_lignum>  (269) 
28

>  <i_i_glide_rotatable_bonds>  (269) 
0

>  <r_i_docking_score>  (269) 
-3.66166

>  <r_i_glide_ligand_efficiency>  (269) 
-0.281666

>  <r_i_glide_ligand_efficiency_sa>  (269) 
-0.662292

>  <r_i_glide_ligand_efficiency_ln>  (269) 
-1.02713

>  <r_i_glide_gscore>  (269) 
-3.66166

>  <r_i_glide_lipo>  (269) 
-0.445208

>  <r_i_glide_hbond>  (269) 
0

>  <r_i_glide_metal>  (269) 
-0

>  <r_i_glide_rewards>  (269) 
-2.2211

>  <r_i_glide_evdw>  (269) 
-18.5546

>  <r_i_glide_ecoul>  (269) 
-0.450831

>  <r_i_glide_erotb>  (269) 
0

>  <r_i_glide_esite>  (269) 
0

>  <r_i_glide_emodel>  (269) 
-23.1382

>  <r_i_glide_energy>  (269) 
-19.0055

>  <r_i_glide_einternal>  (269) 
0

>  <r_i_glide_intrahb_reward>  (269) 
-0

>  <i_i_glide_confnum>  (269) 
2

>  <i_i_glide_posenum>  (269) 
1

>  <r_i_glide_eff_state_penalty>  (269) 
0

>  <ligand_id>  (269) 
75

>  <original_smiles>  (269) 
C1CC23OC4C5C6CC2C5C(C16)C43

>  <smiles>  (269) 
[H]C1([H])C([H])([H])C23OC4([H])C5([H])C6([H])C([H])([H])C2([H])C5([H])C([H])(C16[H])C43[H]

$$$$
75:0:2
     RDKit          3D

 27 32  0  0  1  0  0  0  0  0999 V2000
    7.1521   -2.7318   -1.5346 C   0  0  0  0  0  0  0  0  0  0  0  0
    7.0814   -2.4625    0.0395 C   0  0  0  0  0  0  0  0  0  0  0  0
    5.6179   -2.5504    0.3422 C   0  0  1  0  0  0  0  0  0  0  0  0
    4.6686   -2.8606    1.4069 O   0  0  0  0  0  0  0  0  0  0  0  0
    3.9425   -3.7468    0.4259 C   0  0  1  0  0  0  0  0  0  0  0  0
    3.3297   -3.2105   -1.0230 C   0  0  1  0  0  0  0  0  0  0  0  0
    4.3996   -2.5064   -2.2913 C   0  0  1  0  0  0  0  0  0  0  0  0
    4.9050   -1.0592   -1.8638 C   0  0  0  0  0  0  0  0  0  0  0  0
    4.9503   -1.3593   -0.3510 C   0  0  1  0  0  0  0  0  0  0  0  0
    3.8071   -2.0624   -0.9266 C   0  0  1  0  0  0  0  0  0  0  0  0
    4.7798   -3.5747   -1.3350 C   0  0  1  0  0  0  0  0  0  0  0  0
    5.7866   -3.2028   -2.2835 C   0  0  2  0  0  0  0  0  0  0  0  0
    5.2380   -3.9128   -0.0963 C   0  0  1  0  0  0  0  0  0  0  0  0
    7.8969   -3.5066   -1.6974 H   0  0  0  0  0  0  0  0  0  0  0  0
    7.5767   -1.8869   -2.0620 H   0  0  0  0  0  0  0  0  0  0  0  0
    7.6232   -3.2530    0.5476 H   0  0  0  0  0  0  0  0  0  0  0  0
    7.5375   -1.5177    0.3427 H   0  0  0  0  0  0  0  0  0  0  0  0
    3.6051   -4.7120    0.8242 H   0  0  0  0  0  0  0  0  0  0  0  0
    2.2486   -3.2354   -1.1985 H   0  0  0  0  0  0  0  0  0  0  0  0
    3.9944   -2.4981   -3.3160 H   0  0  0  0  0  0  0  0  0  0  0  0
    5.8286   -0.7198   -2.2923 H   0  0  0  0  0  0  0  0  0  0  0  0
    4.1969   -0.2657   -2.1296 H   0  0  0  0  0  0  0  0  0  0  0  0
    4.7305   -0.5000    0.2916 H   0  0  0  0  0  0  0  0  0  0  0  0
    3.1423   -1.7995   -0.0783 H   0  0  0  0  0  0  0  0  0  0  0  0
    4.5460   -4.6120   -1.7844 H   0  0  0  0  0  0  0  0  0  0  0  0
    5.9251   -3.9686   -3.0569 H   0  0  0  0  0  0  0  0  0  0  0  0
    5.8063   -4.7960    0.1457 H   0  0  0  0  0  0  0  0  0  0  0  0
  1 12  1  0
  1  2  1  0
  1 14  1  0
  1 15  1  0
  2  3  1  0
  2 16  1  0
  2 17  1  0
  3  9  1  0
  3 13  1  0
  3  4  1  1
  4  5  1  0
  5 13  1  0
  5  6  1  0
  5 18  1  1
  6 10  1  0
  6  7  1  0
  6 19  1  6
  7 12  1  0
  7  8  1  0
  7 20  1  6
  8  9  1  0
  8 21  1  0
  8 22  1  0
  9 10  1  0
  9 23  1  1
 10 11  1  0
 10 24  1  6
 11 12  1  0
 11 13  1  0
 11 25  1  6
 12 26  1  6
 13 27  1  6
M  END
>  <i_m_ct_stereo_status>  (270) 
1

>  <s_m_source_file>  (270) 
/var/tmp/pbs.5076255.sched01/tmpyc7t0a4i/88yk12rjyo.sdf

>  <i_m_source_file_index>  (270) 
28

>  <i_lp_mmshare_version>  (270) 
48012

>  <i_f3d_flags>  (270) 
2

>  <s_epik_input>  (270) 
W0NIMl0xW0NIMl1bQ0BIXShbQ0BASF0yW0NIMl0zKVtDQEhdNFtDQEBIXTVbQ0BASF0oTzYpW0NASF0yW0NIXTRbQ0BIXTNbQ0BdMTU2

>  <s_epik_cmdline>  (270) 
J2VwaWtfcHl0aG9uJywgJy1waHQnLCAnMi4wJywgJy1waCcsICc3LjAnLCAnLXRuJywgJzgnLCAnLW1hJywgJzIwMCcsICctaW1hZScsICc8aW5maWxlLm1hZT4nLCAnLW9tYWUnLCAnPG91dGZpbGUubWFlPic=

>  <r_lp_tautomer_probability>  (270) 
1

>  <r_epik_Ionization_Penalty>  (270) 
3.66147e-10

>  <r_epik_Ionization_Penalty_Charging>  (270) 
0

>  <r_epik_Ionization_Penalty_Neutral>  (270) 
3.66147e-10

>  <r_epik_State_Penalty>  (270) 
-0

>  <r_epik_Charging_Adjusted_Penalty>  (270) 
0

>  <i_epik_Tot_Q>  (270) 
0

>  <i_epik_Tot_abs_Q>  (270) 
0

>  <s_lp_Force_Field>  (270) 
OPLS3e

>  <r_lp_Energy>  (270) 
498.032

>  <b_lp_Chiralities_Consistent>  (270) 
0

>  <s_lp_Variant>  (270) 
75:0-1

>  <s_i_glide_gridfile>  (270) 
pfpi4k_grid

>  <i_i_glide_lignum>  (270) 
28

>  <i_i_glide_rotatable_bonds>  (270) 
0

>  <r_i_docking_score>  (270) 
-3.6354

>  <r_i_glide_ligand_efficiency>  (270) 
-0.279646

>  <r_i_glide_ligand_efficiency_sa>  (270) 
-0.657541

>  <r_i_glide_ligand_efficiency_ln>  (270) 
-1.01976

>  <r_i_glide_gscore>  (270) 
-3.6354

>  <r_i_glide_lipo>  (270) 
-0.45615

>  <r_i_glide_hbond>  (270) 
0

>  <r_i_glide_metal>  (270) 
-0

>  <r_i_glide_rewards>  (270) 
-2.2211

>  <r_i_glide_evdw>  (270) 
-18.6113

>  <r_i_glide_ecoul>  (270) 
-0.183881

>  <r_i_glide_erotb>  (270) 
0

>  <r_i_glide_esite>  (270) 
0

>  <r_i_glide_emodel>  (270) 
-23

>  <r_i_glide_energy>  (270) 
-18.7952

>  <r_i_glide_einternal>  (270) 
0

>  <r_i_glide_intrahb_reward>  (270) 
-0

>  <i_i_glide_confnum>  (270) 
1

>  <i_i_glide_posenum>  (270) 
8

>  <r_i_glide_eff_state_penalty>  (270) 
0

>  <ligand_id>  (270) 
75

>  <original_smiles>  (270) 
C1CC23OC4C5C6CC2C5C(C16)C43

>  <smiles>  (270) 
[H]C1([H])C([H])([H])C23OC4([H])C5([H])C6([H])C([H])([H])C2([H])C5([H])C([H])(C16[H])C43[H]

$$$$
76:0:0
     RDKit          3D

 68 75  0  0  1  0  0  0  0  0999 V2000
    3.2207   -2.4782   -2.7247 C   0  0  0  0  0  0  0  0  0  0  0  0
    3.9930   -2.6906   -1.6414 C   0  0  0  0  0  0  0  0  0  0  0  0
    5.3316   -3.2653   -1.7134 C   0  0  0  0  0  0  0  0  0  0  0  0
    6.0148   -3.4040   -2.7231 O   0  0  0  0  0  0  0  0  0  0  0  0
    5.7093   -3.5657   -0.4680 O   0  0  0  0  0  0  0  0  0  0  0  0
    4.6437   -3.4849    0.4707 C   0  0  1  0  0  0  0  0  0  0  0  0
    5.1441   -3.4581    1.9677 C   0  0  0  0  0  0  0  0  0  0  0  0
    4.6217   -2.3764    3.0632 C   0  0  1  0  0  0  0  0  0  0  0  0
    5.1814   -1.1949    2.1173 C   0  0  0  0  0  0  0  0  0  0  0  0
    3.9912   -0.4256    1.5401 C   0  0  1  0  0  0  0  0  0  0  0  0
    3.7292   -0.9462    0.1132 C   0  0  0  0  0  0  0  0  0  0  0  0
    3.6527   -2.4723   -0.1902 C   0  0  1  0  0  0  0  0  0  0  0  0
    2.9039   -0.5840    2.6195 C   0  0  2  0  0  0  0  0  0  0  0  0
    3.9674   -0.0281    3.6023 O   0  0  0  0  0  0  0  0  0  0  0  0
    4.2159   -0.2745    5.0184 C   0  0  2  0  0  0  0  0  0  0  0  0
    4.7441   -1.7972    5.6659 C   0  0  0  0  0  0  0  0  0  0  0  0
    3.7394   -3.1320    5.3899 C   0  0  2  0  0  0  0  0  0  0  0  0
    3.1051   -3.5323    6.7724 C   0  0  0  0  0  0  0  0  0  0  0  0
    3.9339   -4.4870    4.5076 C   0  0  1  0  0  0  0  0  0  0  0  0
    3.8699   -5.8306    5.2761 C   0  0  0  0  0  0  0  0  0  0  0  0
    4.2885   -6.9947    4.3676 C   0  0  0  0  0  0  0  0  0  0  0  0
    3.4280   -7.0598    3.1019 C   0  0  0  0  0  0  0  0  0  0  0  0
    3.3913   -5.7979    2.4454 O   0  0  0  0  0  0  0  0  0  0  0  0
    2.9009   -4.7224    3.1965 C   0  0  2  0  0  0  0  0  0  0  0  0
    2.5865   -3.5837    2.2382 O   0  0  0  0  0  0  0  0  0  0  0  0
    2.0952   -2.1487    2.4612 C   0  0  1  0  0  0  0  0  0  0  0  0
    1.6019   -2.4958    3.7446 C   0  0  1  0  0  0  0  0  0  0  0  0
    0.6181   -3.4740    4.0831 O   0  0  0  0  0  0  0  0  0  0  0  0
    3.0816   -2.3771    4.3132 C   0  0  2  0  0  0  0  0  0  0  0  0
    2.3284   -1.2403    5.2596 C   0  0  0  0  0  0  0  0  0  0  0  0
    1.4406   -1.4271    6.1051 O   0  0  0  0  0  0  0  0  0  0  0  0
    2.7518    0.1267    4.9968 C   0  0  2  0  0  0  0  0  0  0  0  0
    2.2070    0.4845    3.5300 C   0  0  1  0  0  0  0  0  0  0  0  0
    2.3791    1.9745    3.1333 C   0  0  0  0  0  0  0  0  0  0  0  0
    2.2231   -2.0764   -2.6300 H   0  0  0  0  0  0  0  0  0  0  0  0
    3.5765   -2.7147   -3.7166 H   0  0  0  0  0  0  0  0  0  0  0  0
    4.1477   -4.4508    0.3654 H   0  0  0  0  0  0  0  0  0  0  0  0
    5.2168   -4.4885    2.2719 H   0  0  0  0  0  0  0  0  0  0  0  0
    6.2284   -3.3395    1.9014 H   0  0  0  0  0  0  0  0  0  0  0  0
    5.5158   -2.5391    3.6413 H   0  0  0  0  0  0  0  0  0  0  0  0
    5.8691   -0.5575    2.6827 H   0  0  0  0  0  0  0  0  0  0  0  0
    5.8693   -1.4212    1.2991 H   0  0  0  0  0  0  0  0  0  0  0  0
    4.2445    0.6287    1.4316 H   0  0  0  0  0  0  0  0  0  0  0  0
    2.7972   -0.5061   -0.2239 H   0  0  0  0  0  0  0  0  0  0  0  0
    4.5018   -0.5081   -0.5221 H   0  0  0  0  0  0  0  0  0  0  0  0
    2.6248   -2.8085   -0.0623 H   0  0  0  0  0  0  0  0  0  0  0  0
    4.8365    0.5321    5.4101 H   0  0  0  0  0  0  0  0  0  0  0  0
    5.8055   -1.9868    5.4971 H   0  0  0  0  0  0  0  0  0  0  0  0
    4.7591   -1.6401    6.7469 H   0  0  0  0  0  0  0  0  0  0  0  0
    2.1290   -4.0077    6.6643 H   0  0  0  0  0  0  0  0  0  0  0  0
    2.9896   -2.6965    7.4628 H   0  0  0  0  0  0  0  0  0  0  0  0
    3.7562   -4.2101    7.3226 H   0  0  0  0  0  0  0  0  0  0  0  0
    4.9804   -4.5117    4.2403 H   0  0  0  0  0  0  0  0  0  0  0  0
    4.5610   -5.8163    6.1177 H   0  0  0  0  0  0  0  0  0  0  0  0
    2.8694   -6.0132    5.6736 H   0  0  0  0  0  0  0  0  0  0  0  0
    5.3356   -6.8884    4.0875 H   0  0  0  0  0  0  0  0  0  0  0  0
    4.2085   -7.9371    4.9084 H   0  0  0  0  0  0  0  0  0  0  0  0
    3.8581   -7.7792    2.4062 H   0  0  0  0  0  0  0  0  0  0  0  0
    2.4186   -7.4097    3.3224 H   0  0  0  0  0  0  0  0  0  0  0  0
    1.9729   -5.1685    3.5395 H   0  0  0  0  0  0  0  0  0  0  0  0
    1.2814   -1.9933    1.7524 H   0  0  0  0  0  0  0  0  0  0  0  0
    0.8284   -1.7114    3.7451 H   0  0  0  0  0  0  0  0  0  0  0  0
   -0.1536   -3.3273    3.5604 H   0  0  0  0  0  0  0  0  0  0  0  0
    2.4454    0.8064    5.7933 H   0  0  0  0  0  0  0  0  0  0  0  0
    1.1275    0.3445    3.4918 H   0  0  0  0  0  0  0  0  0  0  0  0
    3.4152    2.3068    3.1688 H   0  0  0  0  0  0  0  0  0  0  0  0
    1.8171    2.6184    3.8146 H   0  0  0  0  0  0  0  0  0  0  0  0
    2.0054    2.1590    2.1238 H   0  0  0  0  0  0  0  0  0  0  0  0
  1  2  2  0
  1 35  1  0
  1 36  1  0
  2 12  1  0
  2  3  1  0
  3  4  2  0
  3  5  1  0
  5  6  1  0
  6 12  1  0
  6  7  1  0
  6 37  1  1
  7  8  1  0
  7 38  1  0
  7 39  1  0
  8 29  1  0
  8  9  1  0
  8 40  1  1
  9 10  1  0
  9 41  1  0
  9 42  1  0
 10 11  1  0
 10 13  1  0
 10 43  1  6
 11 12  1  0
 11 44  1  0
 11 45  1  0
 12 46  1  6
 13 26  1  0
 13 33  1  0
 13 14  1  1
 14 15  1  0
 15 32  1  0
 15 16  1  0
 15 47  1  1
 16 17  1  0
 16 48  1  0
 16 49  1  0
 17 29  1  0
 17 18  1  1
 17 19  1  0
 18 50  1  0
 18 51  1  0
 18 52  1  0
 19 24  1  0
 19 20  1  0
 19 53  1  6
 20 21  1  0
 20 54  1  0
 20 55  1  0
 21 22  1  0
 21 56  1  0
 21 57  1  0
 22 23  1  0
 22 58  1  0
 22 59  1  0
 23 24  1  0
 24 25  1  0
 24 60  1  1
 25 26  1  0
 26 27  1  0
 26 61  1  6
 27 28  1  0
 27 29  1  0
 27 62  1  1
 28 63  1  0
 29 30  1  1
 30 31  2  0
 30 32  1  0
 32 33  1  0
 32 64  1  1
 33 34  1  0
 33 65  1  1
 34 66  1  0
 34 67  1  0
 34 68  1  0
M  END
>  <i_m_ct_stereo_status>  (271) 
1

>  <s_m_source_file>  (271) 
/var/tmp/pbs.5076255.sched01/tmpyc7t0a4i/88yk12rjyo.sdf

>  <i_m_source_file_index>  (271) 
29

>  <i_lp_mmshare_version>  (271) 
48012

>  <i_f3d_flags>  (271) 
0

>  <s_epik_input>  (271) 
Tz1DKE8xKUMoPVtDSDJdKVtDQEhdKFtDSDJdMilbQ0BASF0xW0NIMl1bQ0BASF0oW0NIMl1bQ0BASF0yW0NAXTM0NSlDNjdbQ0BdKFtDSDNdKShbQ0gyXVtDQEBIXShPMylbQ0BIXShDNz1PKVtDQEhdNVtDSDNdKVtDQEBIXThbQ0BIXShPW0NIMl1bQ0gyXVtDSDJdOClPW0NASF00W0NASF02W09IXQ==

>  <s_epik_cmdline>  (271) 
J2VwaWtfcHl0aG9uJywgJy1waHQnLCAnMi4wJywgJy1waCcsICc3LjAnLCAnLXRuJywgJzgnLCAnLW1hJywgJzIwMCcsICctaW1hZScsICc8aW5maWxlLm1hZT4nLCAnLW9tYWUnLCAnPG91dGZpbGUubWFlPic=

>  <r_lp_tautomer_probability>  (271) 
1

>  <r_epik_Ionization_Penalty>  (271) 
3.71516e-07

>  <r_epik_Ionization_Penalty_Charging>  (271) 
0

>  <r_epik_Ionization_Penalty_Neutral>  (271) 
3.71516e-07

>  <r_epik_State_Penalty>  (271) 
-0

>  <r_epik_Charging_Adjusted_Penalty>  (271) 
0

>  <i_epik_Tot_Q>  (271) 
0

>  <i_epik_Tot_abs_Q>  (271) 
0

>  <s_epik_Chemistry_Notes>  (271) 
This compound has an ester and may undergo hydrolysis at high or low pH. This compound contains an acetal/aminal-like group ( X-CH(R)-Y where X, Y are N, S, or O) that may be acid/base labile, releasing an aldehyde.

>  <s_lp_Force_Field>  (271) 
OPLS3e

>  <r_lp_Energy>  (271) 
625.872

>  <b_lp_Chiralities_Consistent>  (271) 
1

>  <s_lp_Variant>  (271) 
76:0-1

>  <s_i_glide_gridfile>  (271) 
pfpi4k_grid

>  <i_i_glide_lignum>  (271) 
29

>  <i_i_glide_rotatable_bonds>  (271) 
1

>  <r_i_docking_score>  (271) 
-2.8523

>  <r_i_glide_ligand_efficiency>  (271) 
-0.0838912

>  <r_i_glide_ligand_efficiency_sa>  (271) 
-0.271775

>  <r_i_glide_ligand_efficiency_ln>  (271) 
-0.630153

>  <r_i_glide_gscore>  (271) 
-2.8523

>  <r_i_glide_lipo>  (271) 
-0.325171

>  <r_i_glide_hbond>  (271) 
0

>  <r_i_glide_metal>  (271) 
-0

>  <r_i_glide_rewards>  (271) 
-0.346071

>  <r_i_glide_evdw>  (271) 
-28.5751

>  <r_i_glide_ecoul>  (271) 
-5.0119

>  <r_i_glide_erotb>  (271) 
0

>  <r_i_glide_esite>  (271) 
-0.000516742

>  <r_i_glide_emodel>  (271) 
-38.9875

>  <r_i_glide_energy>  (271) 
-33.5871

>  <r_i_glide_einternal>  (271) 
0.33393

>  <r_i_glide_intrahb_reward>  (271) 
-0

>  <i_i_glide_confnum>  (271) 
2

>  <i_i_glide_posenum>  (271) 
27

>  <r_i_glide_eff_state_penalty>  (271) 
0

>  <ligand_id>  (271) 
76

>  <original_smiles>  (271) 
C=C1C(=O)OC2CC3CC(CC12)C12OC4CC5(C)C6CCCOC6OC1C(O)C35C(=O)C4C2C

>  <smiles>  (271) 
[H]OC1([H])C2([H])OC3([H])OC([H])([H])C([H])([H])C([H])([H])C3([H])C3(C([H])([H])[H])C([H])([H])C4([H])OC25C2([H])C([H])([H])C6([H])C(=C([H])[H])C(=O)OC6([H])C([H])([H])C([H])(C2([H])[H])C13C(=O)C4([H])C5([H])C([H])([H])[H]

$$$$
76:0:1
     RDKit          3D

 68 75  0  0  1  0  0  0  0  0999 V2000
    3.3532   -9.1937    1.4033 C   0  0  0  0  0  0  0  0  0  0  0  0
    4.2471   -8.2553    1.7810 C   0  0  0  0  0  0  0  0  0  0  0  0
    5.5143   -8.5636    2.4344 C   0  0  0  0  0  0  0  0  0  0  0  0
    6.0672   -9.6665    2.4977 O   0  0  0  0  0  0  0  0  0  0  0  0
    6.0120   -7.4243    2.9069 O   0  0  0  0  0  0  0  0  0  0  0  0
    5.0811   -6.3497    2.8683 C   0  0  1  0  0  0  0  0  0  0  0  0
    5.7627   -4.9407    3.0568 C   0  0  0  0  0  0  0  0  0  0  0  0
    5.4640   -3.6758    2.0903 C   0  0  1  0  0  0  0  0  0  0  0  0
    5.9922   -4.5493    0.8412 C   0  0  0  0  0  0  0  0  0  0  0  0
    4.8066   -4.8704   -0.0695 C   0  0  1  0  0  0  0  0  0  0  0  0
    4.3070   -6.2951    0.2539 C   0  0  0  0  0  0  0  0  0  0  0  0
    4.0915   -6.7561    1.7259 C   0  0  1  0  0  0  0  0  0  0  0  0
    3.8765   -3.6736    0.1625 C   0  0  2  0  0  0  0  0  0  0  0  0
    5.0908   -2.7890   -0.2016 O   0  0  0  0  0  0  0  0  0  0  0  0
    5.4786   -1.4620    0.2245 C   0  0  2  0  0  0  0  0  0  0  0  0
    5.9537   -1.0635    1.8454 C   0  0  0  0  0  0  0  0  0  0  0  0
    4.8217   -1.3621    3.0642 C   0  0  2  0  0  0  0  0  0  0  0  0
    4.3425    0.0350    3.6055 C   0  0  0  0  0  0  0  0  0  0  0  0
    4.8092   -2.3997    4.3127 C   0  0  1  0  0  0  0  0  0  0  0  0
    4.7378   -1.7842    5.7390 C   0  0  0  0  0  0  0  0  0  0  0  0
    4.9458   -2.8693    6.8033 C   0  0  0  0  0  0  0  0  0  0  0  0
    3.9285   -4.0015    6.6625 C   0  0  0  0  0  0  0  0  0  0  0  0
    3.9222   -4.4925    5.3261 O   0  0  0  0  0  0  0  0  0  0  0  0
    3.6046   -3.5729    4.3206 C   0  0  2  0  0  0  0  0  0  0  0  0
    3.2595   -4.3485    3.0490 O   0  0  0  0  0  0  0  0  0  0  0  0
    2.9225   -3.8977    1.6331 C   0  0  1  0  0  0  0  0  0  0  0  0
    2.5672   -2.6109    2.1042 C   0  0  1  0  0  0  0  0  0  0  0  0
    1.5590   -2.2728    3.0565 O   0  0  0  0  0  0  0  0  0  0  0  0
    4.1037   -2.2466    2.1477 C   0  0  2  0  0  0  0  0  0  0  0  0
    3.5662   -1.0806    1.0858 C   0  0  0  0  0  0  0  0  0  0  0  0
    2.8250   -0.1485    1.3297 O   0  0  0  0  0  0  0  0  0  0  0  0
    4.0713   -1.2423   -0.2705 C   0  0  2  0  0  0  0  0  0  0  0  0
    3.3888   -2.5744   -0.8346 C   0  0  1  0  0  0  0  0  0  0  0  0
    3.6244   -2.8166   -2.3508 C   0  0  0  0  0  0  0  0  0  0  0  0
    2.4052   -8.9330    0.9614 H   0  0  0  0  0  0  0  0  0  0  0  0
    3.5702  -10.2427    1.5368 H   0  0  0  0  0  0  0  0  0  0  0  0
    4.5064   -6.5020    3.7817 H   0  0  0  0  0  0  0  0  0  0  0  0
    5.8015   -4.7761    4.1214 H   0  0  0  0  0  0  0  0  0  0  0  0
    6.8349   -5.1454    2.9959 H   0  0  0  0  0  0  0  0  0  0  0  0
    6.4024   -3.2442    2.3678 H   0  0  0  0  0  0  0  0  0  0  0  0
    6.8014   -4.0149    0.3258 H   0  0  0  0  0  0  0  0  0  0  0  0
    6.5478   -5.4694    1.0110 H   0  0  0  0  0  0  0  0  0  0  0  0
    5.1399   -4.8887   -1.1085 H   0  0  0  0  0  0  0  0  0  0  0  0
    3.3921   -6.4524   -0.3090 H   0  0  0  0  0  0  0  0  0  0  0  0
    5.0158   -6.9792   -0.2037 H   0  0  0  0  0  0  0  0  0  0  0  0
    3.0649   -6.5368    2.0260 H   0  0  0  0  0  0  0  0  0  0  0  0
    6.2075   -1.0649   -0.4788 H   0  0  0  0  0  0  0  0  0  0  0  0
    6.9656   -1.3819    2.0689 H   0  0  0  0  0  0  0  0  0  0  0  0
    6.1014    0.0107    1.8264 H   0  0  0  0  0  0  0  0  0  0  0  0
    3.3261    0.0080    4.0029 H   0  0  0  0  0  0  0  0  0  0  0  0
    4.3601    0.8299    2.8646 H   0  0  0  0  0  0  0  0  0  0  0  0
    5.0084    0.4250    4.3775 H   0  0  0  0  0  0  0  0  0  0  0  0
    5.8124   -2.8082    4.3721 H   0  0  0  0  0  0  0  0  0  0  0  0
    5.5274   -1.0494    5.8671 H   0  0  0  0  0  0  0  0  0  0  0  0
    3.7831   -1.2812    5.9034 H   0  0  0  0  0  0  0  0  0  0  0  0
    5.9556   -3.2734    6.7283 H   0  0  0  0  0  0  0  0  0  0  0  0
    4.8619   -2.4316    7.7991 H   0  0  0  0  0  0  0  0  0  0  0  0
    4.2103   -4.8280    7.3138 H   0  0  0  0  0  0  0  0  0  0  0  0
    2.9306   -3.6872    6.9646 H   0  0  0  0  0  0  0  0  0  0  0  0
    2.6963   -3.1641    4.7497 H   0  0  0  0  0  0  0  0  0  0  0  0
    2.0377   -4.4694    1.3491 H   0  0  0  0  0  0  0  0  0  0  0  0
    1.8673   -2.4039    1.2788 H   0  0  0  0  0  0  0  0  0  0  0  0
    0.7093   -2.5049    2.7022 H   0  0  0  0  0  0  0  0  0  0  0  0
    3.9238   -0.3391   -0.8689 H   0  0  0  0  0  0  0  0  0  0  0  0
    2.3046   -2.5203   -0.7732 H   0  0  0  0  0  0  0  0  0  0  0  0
    4.6830   -2.8903   -2.6172 H   0  0  0  0  0  0  0  0  0  0  0  0
    3.1940   -1.9956   -2.9334 H   0  0  0  0  0  0  0  0  0  0  0  0
    3.1284   -3.7341   -2.6768 H   0  0  0  0  0  0  0  0  0  0  0  0
  1  2  2  0
  1 35  1  0
  1 36  1  0
  2 12  1  0
  2  3  1  0
  3  4  2  0
  3  5  1  0
  5  6  1  0
  6 12  1  0
  6  7  1  0
  6 37  1  1
  7  8  1  0
  7 38  1  0
  7 39  1  0
  8 29  1  0
  8  9  1  0
  8 40  1  1
  9 10  1  0
  9 41  1  0
  9 42  1  0
 10 11  1  0
 10 13  1  0
 10 43  1  6
 11 12  1  0
 11 44  1  0
 11 45  1  0
 12 46  1  1
 13 26  1  0
 13 33  1  0
 13 14  1  1
 14 15  1  0
 15 32  1  0
 15 16  1  0
 15 47  1  6
 16 17  1  0
 16 48  1  0
 16 49  1  0
 17 29  1  0
 17 18  1  1
 17 19  1  0
 18 50  1  0
 18 51  1  0
 18 52  1  0
 19 24  1  0
 19 20  1  0
 19 53  1  1
 20 21  1  0
 20 54  1  0
 20 55  1  0
 21 22  1  0
 21 56  1  0
 21 57  1  0
 22 23  1  0
 22 58  1  0
 22 59  1  0
 23 24  1  0
 24 25  1  0
 24 60  1  1
 25 26  1  0
 26 27  1  0
 26 61  1  6
 27 28  1  0
 27 29  1  0
 27 62  1  6
 28 63  1  0
 29 30  1  6
 30 31  2  0
 30 32  1  0
 32 33  1  0
 32 64  1  6
 33 34  1  0
 33 65  1  6
 34 66  1  0
 34 67  1  0
 34 68  1  0
M  END
>  <i_m_ct_stereo_status>  (272) 
1

>  <s_m_source_file>  (272) 
/var/tmp/pbs.5076255.sched01/tmpyc7t0a4i/88yk12rjyo.sdf

>  <i_m_source_file_index>  (272) 
29

>  <i_lp_mmshare_version>  (272) 
48012

>  <i_f3d_flags>  (272) 
0

>  <s_epik_input>  (272) 
Tz1DKE8xKUMoPVtDSDJdKVtDQEhdKFtDSDJdMilbQ0BASF0xW0NIMl1bQ0BASF0oW0NIMl1bQ0BASF0yW0NAXTM0NSlDNjdbQ0BdKFtDSDNdKShbQ0gyXVtDQEBIXShPMylbQ0BIXShDNz1PKVtDQEhdNVtDSDNdKVtDQEBIXThbQ0BIXShPW0NIMl1bQ0gyXVtDSDJdOClPW0NASF00W0NASF02W09IXQ==

>  <s_epik_cmdline>  (272) 
J2VwaWtfcHl0aG9uJywgJy1waHQnLCAnMi4wJywgJy1waCcsICc3LjAnLCAnLXRuJywgJzgnLCAnLW1hJywgJzIwMCcsICctaW1hZScsICc8aW5maWxlLm1hZT4nLCAnLW9tYWUnLCAnPG91dGZpbGUubWFlPic=

>  <r_lp_tautomer_probability>  (272) 
1

>  <r_epik_Ionization_Penalty>  (272) 
3.71516e-07

>  <r_epik_Ionization_Penalty_Charging>  (272) 
0

>  <r_epik_Ionization_Penalty_Neutral>  (272) 
3.71516e-07

>  <r_epik_State_Penalty>  (272) 
-0

>  <r_epik_Charging_Adjusted_Penalty>  (272) 
0

>  <i_epik_Tot_Q>  (272) 
0

>  <i_epik_Tot_abs_Q>  (272) 
0

>  <s_epik_Chemistry_Notes>  (272) 
This compound has an ester and may undergo hydrolysis at high or low pH. This compound contains an acetal/aminal-like group ( X-CH(R)-Y where X, Y are N, S, or O) that may be acid/base labile, releasing an aldehyde.

>  <s_lp_Force_Field>  (272) 
OPLS3e

>  <r_lp_Energy>  (272) 
625.872

>  <b_lp_Chiralities_Consistent>  (272) 
1

>  <s_lp_Variant>  (272) 
76:0-1

>  <s_i_glide_gridfile>  (272) 
pfpi4k_grid

>  <i_i_glide_lignum>  (272) 
29

>  <i_i_glide_rotatable_bonds>  (272) 
1

>  <r_i_docking_score>  (272) 
-2.80278

>  <r_i_glide_ligand_efficiency>  (272) 
-0.0824347

>  <r_i_glide_ligand_efficiency_sa>  (272) 
-0.267056

>  <r_i_glide_ligand_efficiency_ln>  (272) 
-0.619213

>  <r_i_glide_gscore>  (272) 
-2.80278

>  <r_i_glide_lipo>  (272) 
-0.610193

>  <r_i_glide_hbond>  (272) 
0

>  <r_i_glide_metal>  (272) 
-0

>  <r_i_glide_rewards>  (272) 
-0.200764

>  <r_i_glide_evdw>  (272) 
-29.1848

>  <r_i_glide_ecoul>  (272) 
-3.35426

>  <r_i_glide_erotb>  (272) 
0

>  <r_i_glide_esite>  (272) 
-0.0294474

>  <r_i_glide_emodel>  (272) 
-37.7283

>  <r_i_glide_energy>  (272) 
-32.539

>  <r_i_glide_einternal>  (272) 
0.442856

>  <r_i_glide_intrahb_reward>  (272) 
-0

>  <i_i_glide_confnum>  (272) 
1

>  <i_i_glide_posenum>  (272) 
2

>  <r_i_glide_eff_state_penalty>  (272) 
0

>  <ligand_id>  (272) 
76

>  <original_smiles>  (272) 
C=C1C(=O)OC2CC3CC(CC12)C12OC4CC5(C)C6CCCOC6OC1C(O)C35C(=O)C4C2C

>  <smiles>  (272) 
[H]OC1([H])C2([H])OC3([H])OC([H])([H])C([H])([H])C([H])([H])C3([H])C3(C([H])([H])[H])C([H])([H])C4([H])OC25C2([H])C([H])([H])C6([H])C(=C([H])[H])C(=O)OC6([H])C([H])([H])C([H])(C2([H])[H])C13C(=O)C4([H])C5([H])C([H])([H])[H]

$$$$
76:0:2
     RDKit          3D

 68 75  0  0  1  0  0  0  0  0999 V2000
    3.3696   -2.5873   -2.7252 C   0  0  0  0  0  0  0  0  0  0  0  0
    4.1488   -2.7768   -1.6472 C   0  0  0  0  0  0  0  0  0  0  0  0
    5.5107   -3.2969   -1.7172 C   0  0  0  0  0  0  0  0  0  0  0  0
    6.2053   -3.3964   -2.7241 O   0  0  0  0  0  0  0  0  0  0  0  0
    5.9006   -3.5931   -0.4782 O   0  0  0  0  0  0  0  0  0  0  0  0
    4.8347   -3.5577    0.4595 C   0  0  1  0  0  0  0  0  0  0  0  0
    5.3451   -3.5214    1.9522 C   0  0  0  0  0  0  0  0  0  0  0  0
    4.7895   -2.4657    3.0554 C   0  0  1  0  0  0  0  0  0  0  0  0
    5.3008   -1.2606    2.1101 C   0  0  0  0  0  0  0  0  0  0  0  0
    4.0803   -0.5275    1.5418 C   0  0  1  0  0  0  0  0  0  0  0  0
    3.8217   -1.0509    0.1111 C   0  0  0  0  0  0  0  0  0  0  0  0
    3.8046   -2.5782   -0.1930 C   0  0  1  0  0  0  0  0  0  0  0  0
    3.0058   -0.7337    2.6253 C   0  0  2  0  0  0  0  0  0  0  0  0
    4.0547   -0.1463    3.6092 O   0  0  0  0  0  0  0  0  0  0  0  0
    4.3163   -0.3920    5.0227 C   0  0  2  0  0  0  0  0  0  0  0  0
    4.8981   -1.8996    5.6630 C   0  0  0  0  0  0  0  0  0  0  0  0
    3.9420   -3.2675    5.3794 C   0  0  2  0  0  0  0  0  0  0  0  0
    3.3267   -3.6973    6.7617 C   0  0  0  0  0  0  0  0  0  0  0  0
    4.1872   -4.6096    4.4893 C   0  0  1  0  0  0  0  0  0  0  0  0
    4.1714   -5.9586    5.2507 C   0  0  0  0  0  0  0  0  0  0  0  0
    4.6262   -7.1030    4.3338 C   0  0  0  0  0  0  0  0  0  0  0  0
    3.7655   -7.1922    3.0698 C   0  0  0  0  0  0  0  0  0  0  0  0
    3.6918   -5.9279    2.4206 O   0  0  0  0  0  0  0  0  0  0  0  0
    3.1634   -4.8754    3.1781 C   0  0  2  0  0  0  0  0  0  0  0  0
    2.7953   -3.7458    2.2306 O   0  0  0  0  0  0  0  0  0  0  0  0
    2.2538   -2.3271    2.4587 C   0  0  1  0  0  0  0  0  0  0  0  0
    1.7843   -2.6958    3.7413 C   0  0  1  0  0  0  0  0  0  0  0  0
    0.8283   -3.6965    4.0795 O   0  0  0  0  0  0  0  0  0  0  0  0
    3.2558   -2.5273    4.3102 C   0  0  2  0  0  0  0  0  0  0  0  0
    2.4650   -1.4245    5.2654 C   0  0  0  0  0  0  0  0  0  0  0  0
    1.5897   -1.6471    6.1155 O   0  0  0  0  0  0  0  0  0  0  0  0
    2.8389   -0.0413    5.0090 C   0  0  2  0  0  0  0  0  0  0  0  0
    2.2764    0.3031    3.5463 C   0  0  1  0  0  0  0  0  0  0  0  0
    2.3913    1.7995    3.1561 C   0  0  0  0  0  0  0  0  0  0  0  0
    2.3568   -2.2223   -2.6281 H   0  0  0  0  0  0  0  0  0  0  0  0
    3.7315   -2.8038   -3.7204 H   0  0  0  0  0  0  0  0  0  0  0  0
    4.3777   -4.5413    0.3475 H   0  0  0  0  0  0  0  0  0  0  0  0
    5.4624   -4.5499    2.2499 H   0  0  0  0  0  0  0  0  0  0  0  0
    6.4238   -3.3623    1.8802 H   0  0  0  0  0  0  0  0  0  0  0  0
    5.6919   -2.5990    3.6298 H   0  0  0  0  0  0  0  0  0  0  0  0
    5.9696   -0.6038    2.6768 H   0  0  0  0  0  0  0  0  0  0  0  0
    5.9933   -1.4585    1.2893 H   0  0  0  0  0  0  0  0  0  0  0  0
    4.3032    0.5366    1.4434 H   0  0  0  0  0  0  0  0  0  0  0  0
    2.8802   -0.6432   -0.2413 H   0  0  0  0  0  0  0  0  0  0  0  0
    4.5831   -0.5872   -0.5189 H   0  0  0  0  0  0  0  0  0  0  0  0
    2.7902   -2.9544   -0.0653 H   0  0  0  0  0  0  0  0  0  0  0  0
    4.9113    0.4342    5.4167 H   0  0  0  0  0  0  0  0  0  0  0  0
    5.9629   -2.0552    5.4929 H   0  0  0  0  0  0  0  0  0  0  0  0
    4.9097   -1.7475    6.7444 H   0  0  0  0  0  0  0  0  0  0  0  0
    2.3669   -4.2045    6.6551 H   0  0  0  0  0  0  0  0  0  0  0  0
    3.1856   -2.8696    7.4571 H   0  0  0  0  0  0  0  0  0  0  0  0
    4.0036   -4.3531    7.3054 H   0  0  0  0  0  0  0  0  0  0  0  0
    5.2355   -4.5931    4.2226 H   0  0  0  0  0  0  0  0  0  0  0  0
    4.8642   -5.9242    6.0907 H   0  0  0  0  0  0  0  0  0  0  0  0
    3.1797   -6.1789    5.6520 H   0  0  0  0  0  0  0  0  0  0  0  0
    5.6671   -6.9558    4.0494 H   0  0  0  0  0  0  0  0  0  0  0  0
    4.5817   -8.0511    4.8694 H   0  0  0  0  0  0  0  0  0  0  0  0
    4.2160   -7.8941    2.3692 H   0  0  0  0  0  0  0  0  0  0  0  0
    2.7684   -7.5754    3.2920 H   0  0  0  0  0  0  0  0  0  0  0  0
    2.2559   -5.3646    3.5140 H   0  0  0  0  0  0  0  0  0  0  0  0
    1.4240   -2.2020    1.7609 H   0  0  0  0  0  0  0  0  0  0  0  0
    0.9819   -1.9396    3.7513 H   0  0  0  0  0  0  0  0  0  0  0  0
    1.2360   -4.5413    4.0362 H   0  0  0  0  0  0  0  0  0  0  0  0
    2.5122    0.6229    5.8099 H   0  0  0  0  0  0  0  0  0  0  0  0
    1.2026    0.1237    3.5111 H   0  0  0  0  0  0  0  0  0  0  0  0
    3.4176    2.1703    3.1893 H   0  0  0  0  0  0  0  0  0  0  0  0
    1.8123    2.4200    3.8433 H   0  0  0  0  0  0  0  0  0  0  0  0
    2.0072    1.9757    2.1490 H   0  0  0  0  0  0  0  0  0  0  0  0
  1  2  2  0
  1 35  1  0
  1 36  1  0
  2 12  1  0
  2  3  1  0
  3  4  2  0
  3  5  1  0
  5  6  1  0
  6 12  1  0
  6  7  1  0
  6 37  1  1
  7  8  1  0
  7 38  1  0
  7 39  1  0
  8 29  1  0
  8  9  1  0
  8 40  1  1
  9 10  1  0
  9 41  1  0
  9 42  1  0
 10 11  1  0
 10 13  1  0
 10 43  1  6
 11 12  1  0
 11 44  1  0
 11 45  1  0
 12 46  1  6
 13 26  1  0
 13 33  1  0
 13 14  1  1
 14 15  1  0
 15 32  1  0
 15 16  1  0
 15 47  1  1
 16 17  1  0
 16 48  1  0
 16 49  1  0
 17 29  1  0
 17 18  1  1
 17 19  1  0
 18 50  1  0
 18 51  1  0
 18 52  1  0
 19 24  1  0
 19 20  1  0
 19 53  1  6
 20 21  1  0
 20 54  1  0
 20 55  1  0
 21 22  1  0
 21 56  1  0
 21 57  1  0
 22 23  1  0
 22 58  1  0
 22 59  1  0
 23 24  1  0
 24 25  1  0
 24 60  1  1
 25 26  1  0
 26 27  1  0
 26 61  1  6
 27 28  1  0
 27 29  1  0
 27 62  1  1
 28 63  1  0
 29 30  1  1
 30 31  2  0
 30 32  1  0
 32 33  1  0
 32 64  1  1
 33 34  1  0
 33 65  1  1
 34 66  1  0
 34 67  1  0
 34 68  1  0
M  END
>  <i_m_ct_stereo_status>  (273) 
1

>  <s_m_source_file>  (273) 
/var/tmp/pbs.5076255.sched01/tmpyc7t0a4i/88yk12rjyo.sdf

>  <i_m_source_file_index>  (273) 
29

>  <i_lp_mmshare_version>  (273) 
48012

>  <i_f3d_flags>  (273) 
0

>  <s_epik_input>  (273) 
Tz1DKE8xKUMoPVtDSDJdKVtDQEhdKFtDSDJdMilbQ0BASF0xW0NIMl1bQ0BASF0oW0NIMl1bQ0BASF0yW0NAXTM0NSlDNjdbQ0BdKFtDSDNdKShbQ0gyXVtDQEBIXShPMylbQ0BIXShDNz1PKVtDQEhdNVtDSDNdKVtDQEBIXThbQ0BIXShPW0NIMl1bQ0gyXVtDSDJdOClPW0NASF00W0NASF02W09IXQ==

>  <s_epik_cmdline>  (273) 
J2VwaWtfcHl0aG9uJywgJy1waHQnLCAnMi4wJywgJy1waCcsICc3LjAnLCAnLXRuJywgJzgnLCAnLW1hJywgJzIwMCcsICctaW1hZScsICc8aW5maWxlLm1hZT4nLCAnLW9tYWUnLCAnPG91dGZpbGUubWFlPic=

>  <r_lp_tautomer_probability>  (273) 
1

>  <r_epik_Ionization_Penalty>  (273) 
3.71516e-07

>  <r_epik_Ionization_Penalty_Charging>  (273) 
0

>  <r_epik_Ionization_Penalty_Neutral>  (273) 
3.71516e-07

>  <r_epik_State_Penalty>  (273) 
-0

>  <r_epik_Charging_Adjusted_Penalty>  (273) 
0

>  <i_epik_Tot_Q>  (273) 
0

>  <i_epik_Tot_abs_Q>  (273) 
0

>  <s_epik_Chemistry_Notes>  (273) 
This compound has an ester and may undergo hydrolysis at high or low pH. This compound contains an acetal/aminal-like group ( X-CH(R)-Y where X, Y are N, S, or O) that may be acid/base labile, releasing an aldehyde.

>  <s_lp_Force_Field>  (273) 
OPLS3e

>  <r_lp_Energy>  (273) 
625.872

>  <b_lp_Chiralities_Consistent>  (273) 
1

>  <s_lp_Variant>  (273) 
76:0-1

>  <s_i_glide_gridfile>  (273) 
pfpi4k_grid

>  <i_i_glide_lignum>  (273) 
29

>  <i_i_glide_rotatable_bonds>  (273) 
1

>  <r_i_docking_score>  (273) 
-2.19294

>  <r_i_glide_ligand_efficiency>  (273) 
-0.0644982

>  <r_i_glide_ligand_efficiency_sa>  (273) 
-0.208949

>  <r_i_glide_ligand_efficiency_ln>  (273) 
-0.484482

>  <r_i_glide_gscore>  (273) 
-2.19294

>  <r_i_glide_lipo>  (273) 
-0.347715

>  <r_i_glide_hbond>  (273) 
0

>  <r_i_glide_metal>  (273) 
-0

>  <r_i_glide_rewards>  (273) 
-0.373042

>  <r_i_glide_evdw>  (273) 
-28.9914

>  <r_i_glide_ecoul>  (273) 
-0.150738

>  <r_i_glide_erotb>  (273) 
0

>  <r_i_glide_esite>  (273) 
0

>  <r_i_glide_emodel>  (273) 
-33.3675

>  <r_i_glide_energy>  (273) 
-29.1422

>  <r_i_glide_einternal>  (273) 
0.0386576

>  <r_i_glide_intrahb_reward>  (273) 
-0

>  <i_i_glide_confnum>  (273) 
1

>  <i_i_glide_posenum>  (273) 
8

>  <r_i_glide_eff_state_penalty>  (273) 
0

>  <ligand_id>  (273) 
76

>  <original_smiles>  (273) 
C=C1C(=O)OC2CC3CC(CC12)C12OC4CC5(C)C6CCCOC6OC1C(O)C35C(=O)C4C2C

>  <smiles>  (273) 
[H]OC1([H])C2([H])OC3([H])OC([H])([H])C([H])([H])C([H])([H])C3([H])C3(C([H])([H])[H])C([H])([H])C4([H])OC25C2([H])C([H])([H])C6([H])C(=C([H])[H])C(=O)OC6([H])C([H])([H])C([H])(C2([H])[H])C13C(=O)C4([H])C5([H])C([H])([H])[H]

$$$$
77:0:0
     RDKit          3D

 61 67  0  0  1  0  0  0  0  0999 V2000
    1.8144   -2.2660    5.2256 C   0  0  0  0  0  0  0  0  0  0  0  0
    2.6163   -3.5845    4.9502 C   0  0  0  0  0  0  0  0  0  0  0  0
    3.1454   -4.1092    6.3152 C   0  0  0  0  0  0  0  0  0  0  0  0
    1.6063   -4.6367    4.4424 C   0  0  0  0  0  0  0  0  0  0  0  0
    0.3952   -4.4352    4.4881 O   0  0  0  0  0  0  0  0  0  0  0  0
    2.1424   -5.9046    3.9740 C   0  0  0  0  0  0  0  0  0  0  0  0
    3.3783   -5.9913    3.4644 C   0  0  0  0  0  0  0  0  0  0  0  0
    4.3707   -4.8651    3.1437 C   0  0  2  0  0  0  0  0  0  0  0  0
    5.5227   -5.2176    4.1392 C   0  0  0  0  0  0  0  0  0  0  0  0
    3.7252   -3.3605    3.8261 C   0  0  2  0  0  0  0  0  0  0  0  0
    4.5508   -1.9254    4.1963 C   0  0  0  0  0  0  0  0  0  0  0  0
    4.9118   -1.7550    5.3607 O   0  0  0  0  0  0  0  0  0  0  0  0
    5.0608   -0.6921    3.1252 C   0  0  0  0  0  0  0  0  0  0  0  0
    5.0623   -0.5225    1.3868 C   0  0  1  0  0  0  0  0  0  0  0  0
    4.4541   -1.7733    1.5226 C   0  0  2  0  0  0  0  0  0  0  0  0
    5.6465   -2.7539    2.1958 O   0  0  0  0  0  0  0  0  0  0  0  0
    6.4735   -3.9417    1.5660 C   0  0  0  0  0  0  0  0  0  0  0  0
    5.7581   -4.6350    0.2750 C   0  0  1  0  0  0  0  0  0  0  0  0
    5.1862   -3.8505   -1.3666 C   0  0  0  0  0  0  0  0  0  0  0  0
    4.4787   -2.0226   -1.1959 C   0  0  2  0  0  0  0  0  0  0  0  0
    3.8581   -1.3317   -2.4209 C   0  0  0  0  0  0  0  0  0  0  0  0
    5.4678   -1.0973   -0.2151 C   0  0  2  0  0  0  0  0  0  0  0  0
    6.3530   -2.2553   -0.1387 C   0  0  0  0  0  0  0  0  0  0  0  0
    5.5087   -3.4303    0.1590 C   0  0  0  0  0  0  0  0  0  0  0  0
    3.8244   -3.3748    0.4628 C   0  0  2  0  0  0  0  0  0  0  0  0
    2.8729   -4.5208    0.0142 C   0  0  0  0  0  0  0  0  0  0  0  0
    3.5372   -5.7914    0.5720 C   0  0  0  0  0  0  0  0  0  0  0  0
    4.7668   -5.3863    1.4577 C   0  0  2  0  0  0  0  0  0  0  0  0
    3.6515   -2.0527    0.1335 C   0  0  1  0  0  0  0  0  0  0  0  0
    2.3868   -1.5219    5.7777 H   0  0  0  0  0  0  0  0  0  0  0  0
    0.9215   -2.4352    5.8292 H   0  0  0  0  0  0  0  0  0  0  0  0
    1.4788   -1.7993    4.2983 H   0  0  0  0  0  0  0  0  0  0  0  0
    4.0488   -3.6079    6.6558 H   0  0  0  0  0  0  0  0  0  0  0  0
    3.3679   -5.1757    6.2983 H   0  0  0  0  0  0  0  0  0  0  0  0
    2.3964   -3.9835    7.1003 H   0  0  0  0  0  0  0  0  0  0  0  0
    1.5427   -6.7912    4.1187 H   0  0  0  0  0  0  0  0  0  0  0  0
    3.7265   -6.9843    3.2084 H   0  0  0  0  0  0  0  0  0  0  0  0
    6.2127   -4.3871    4.2957 H   0  0  0  0  0  0  0  0  0  0  0  0
    6.1030   -6.0879    3.8239 H   0  0  0  0  0  0  0  0  0  0  0  0
    5.1620   -5.4596    5.1364 H   0  0  0  0  0  0  0  0  0  0  0  0
    2.9765   -3.0261    3.1333 H   0  0  0  0  0  0  0  0  0  0  0  0
    4.4528    0.1472    3.4579 H   0  0  0  0  0  0  0  0  0  0  0  0
    6.0546   -0.4199    3.4827 H   0  0  0  0  0  0  0  0  0  0  0  0
    6.1320   -0.3370    1.4915 H   0  0  0  0  0  0  0  0  0  0  0  0
    3.4893   -1.5868    2.0170 H   0  0  0  0  0  0  0  0  0  0  0  0
    7.5079   -3.6124    1.3772 H   0  0  0  0  0  0  0  0  0  0  0  0
    6.8225   -4.6900    2.2640 H   0  0  0  0  0  0  0  0  0  0  0  0
    6.0200   -3.8316   -2.0901 H   0  0  0  0  0  0  0  0  0  0  0  0
    4.5149   -4.5054   -1.9199 H   0  0  0  0  0  0  0  0  0  0  0  0
    3.4760   -0.3440   -2.1654 H   0  0  0  0  0  0  0  0  0  0  0  0
    3.0225   -1.9102   -2.8193 H   0  0  0  0  0  0  0  0  0  0  0  0
    4.5913   -1.1928   -3.2162 H   0  0  0  0  0  0  0  0  0  0  0  0
    5.9500   -0.3144   -0.7948 H   0  0  0  0  0  0  0  0  0  0  0  0
    7.4158   -2.2411   -0.3434 H   0  0  0  0  0  0  0  0  0  0  0  0
    3.3973   -3.5511    1.4279 H   0  0  0  0  0  0  0  0  0  0  0  0
    1.8855   -4.4112    0.4641 H   0  0  0  0  0  0  0  0  0  0  0  0
    2.6697   -4.5722   -1.0545 H   0  0  0  0  0  0  0  0  0  0  0  0
    2.8139   -6.4484    1.0552 H   0  0  0  0  0  0  0  0  0  0  0  0
    3.9073   -6.3776   -0.2725 H   0  0  0  0  0  0  0  0  0  0  0  0
    5.2766   -6.3368    1.6186 H   0  0  0  0  0  0  0  0  0  0  0  0
    2.6163   -1.7129    0.0805 H   0  0  0  0  0  0  0  0  0  0  0  0
  1  2  1  0
  1 30  1  0
  1 31  1  0
  1 32  1  0
  2 10  1  0
  2  3  1  0
  2  4  1  0
  3 33  1  0
  3 34  1  0
  3 35  1  0
  4  5  2  0
  4  6  1  0
  6  7  2  0
  6 36  1  0
  7  8  1  0
  7 37  1  0
  8 28  1  0
  8  9  1  1
  8 10  1  0
  9 38  1  0
  9 39  1  0
  9 40  1  0
 10 11  1  0
 10 41  1  6
 11 12  2  0
 11 13  1  0
 13 14  1  0
 13 42  1  0
 13 43  1  0
 14 22  1  0
 14 15  1  0
 14 44  1  1
 15 29  1  0
 15 16  1  0
 15 45  1  1
 16 17  1  0
 18 17  1  6
 17 46  1  0
 17 47  1  0
 18 24  1  0
 18 28  1  0
 18 19  1  0
 19 20  1  0
 19 48  1  0
 19 49  1  0
 20 29  1  0
 20 21  1  6
 20 22  1  0
 21 50  1  0
 21 51  1  0
 21 52  1  0
 22 23  1  0
 22 53  1  6
 23 24  2  0
 23 54  1  0
 24 25  1  0
 25 26  1  0
 25 29  1  0
 25 55  1  1
 26 27  1  0
 26 56  1  0
 26 57  1  0
 27 28  1  0
 27 58  1  0
 27 59  1  0
 28 60  1  1
 29 61  1  6
M  END
>  <i_m_ct_stereo_status>  (274) 
1

>  <s_m_source_file>  (274) 
/var/tmp/pbs.5076255.sched01/tmpyc7t0a4i/88yk12rjyo.sdf

>  <i_m_source_file_index>  (274) 
30

>  <i_lp_mmshare_version>  (274) 
48012

>  <i_f3d_flags>  (274) 
0

>  <s_epik_input>  (274) 
W0NIM11DMShbQ0gzXSlDKD1PKVtDSF09W0NIXVtDQEBdKFtDSDNdKShbQ0hdMltDSDJdW0NIMl0zKVtDQEBIXTFDKD1PKVtDSDJdW0NASF0oW0NAQEhdKFtDSF09NClbQ0BdNShbQ0gyXTYpW0NIM10pW0NAQEhdKE9bQ0gyXTcpW0NAQEhdNVtDSF0zQzRbQ0BAXTI2Nw==

>  <s_epik_cmdline>  (274) 
J2VwaWtfcHl0aG9uJywgJy1waHQnLCAnMi4wJywgJy1waCcsICc3LjAnLCAnLXRuJywgJzgnLCAnLW1hJywgJzIwMCcsICctaW1hZScsICc8aW5maWxlLm1hZT4nLCAnLW9tYWUnLCAnPG91dGZpbGUubWFlPic=

>  <r_lp_tautomer_probability>  (274) 
1

>  <r_epik_Ionization_Penalty>  (274) 
2.8013e-11

>  <r_epik_Ionization_Penalty_Charging>  (274) 
0

>  <r_epik_Ionization_Penalty_Neutral>  (274) 
2.8013e-11

>  <r_epik_State_Penalty>  (274) 
-0

>  <r_epik_Charging_Adjusted_Penalty>  (274) 
0

>  <i_epik_Tot_Q>  (274) 
0

>  <i_epik_Tot_abs_Q>  (274) 
0

>  <s_lp_Force_Field>  (274) 
OPLS3e

>  <r_lp_Energy>  (274) 
974.868

>  <b_lp_Chiralities_Consistent>  (274) 
1

>  <s_lp_Variant>  (274) 
77:0-1

>  <s_i_glide_gridfile>  (274) 
pfpi4k_grid

>  <i_i_glide_lignum>  (274) 
30

>  <i_i_glide_rotatable_bonds>  (274) 
0

>  <r_i_docking_score>  (274) 
-2.62235

>  <r_i_glide_ligand_efficiency>  (274) 
-0.090426

>  <r_i_glide_ligand_efficiency_sa>  (274) 
-0.277817

>  <r_i_glide_ligand_efficiency_ln>  (274) 
-0.600452

>  <r_i_glide_gscore>  (274) 
-2.62235

>  <r_i_glide_lipo>  (274) 
-0.572994

>  <r_i_glide_hbond>  (274) 
0

>  <r_i_glide_metal>  (274) 
-0

>  <r_i_glide_rewards>  (274) 
-0.765012

>  <r_i_glide_evdw>  (274) 
-25.2181

>  <r_i_glide_ecoul>  (274) 
-0.15596

>  <r_i_glide_erotb>  (274) 
0

>  <r_i_glide_esite>  (274) 
-4.79311e-05

>  <r_i_glide_emodel>  (274) 
-29.5916

>  <r_i_glide_energy>  (274) 
-25.3741

>  <r_i_glide_einternal>  (274) 
0

>  <r_i_glide_intrahb_reward>  (274) 
-0

>  <i_i_glide_confnum>  (274) 
2

>  <i_i_glide_posenum>  (274) 
24

>  <r_i_glide_eff_state_penalty>  (274) 
0

>  <ligand_id>  (274) 
77

>  <original_smiles>  (274) 
CC1(C)C(=O)C=CC2(C)C1C(=O)CC1C3OCC45CC6(C)C1C=C4C(CCC52)C36

>  <smiles>  (274) 
[H]C1=C([H])C2(C([H])([H])[H])C([H])(C(=O)C([H])([H])C3([H])C4([H])OC([H])([H])C56C7=C([H])C3([H])C(C([H])([H])[H])(C5([H])[H])C4([H])C7([H])C([H])([H])C([H])([H])C62[H])C(C([H])([H])[H])(C([H])([H])[H])C1=O

$$$$
77:0:1
     RDKit          3D

 61 67  0  0  1  0  0  0  0  0999 V2000
    0.2060   -2.5739    4.8755 C   0  0  0  0  0  0  0  0  0  0  0  0
    1.4740   -3.4752    5.0647 C   0  0  0  0  0  0  0  0  0  0  0  0
    1.9141   -3.3640    6.5527 C   0  0  0  0  0  0  0  0  0  0  0  0
    1.0355   -4.9399    4.8526 C   0  0  0  0  0  0  0  0  0  0  0  0
   -0.1514   -5.2543    4.7766 O   0  0  0  0  0  0  0  0  0  0  0  0
    2.0765   -5.9535    4.8279 C   0  0  0  0  0  0  0  0  0  0  0  0
    3.3236   -5.6577    4.4389 C   0  0  0  0  0  0  0  0  0  0  0  0
    3.8675   -4.3527    3.8448 C   0  0  2  0  0  0  0  0  0  0  0  0
    4.8764   -3.9298    4.9619 C   0  0  0  0  0  0  0  0  0  0  0  0
    2.5995   -3.1212    3.9893 C   0  0  2  0  0  0  0  0  0  0  0  0
    2.7525   -1.4301    3.9476 C   0  0  0  0  0  0  0  0  0  0  0  0
    2.8098   -0.8346    5.0190 O   0  0  0  0  0  0  0  0  0  0  0  0
    2.9496   -0.4238    2.5770 C   0  0  0  0  0  0  0  0  0  0  0  0
    3.1988   -0.7201    0.8755 C   0  0  1  0  0  0  0  0  0  0  0  0
    3.0820   -2.0315    1.3484 C   0  0  2  0  0  0  0  0  0  0  0  0
    4.4085   -2.2310    2.3564 O   0  0  0  0  0  0  0  0  0  0  0  0
    5.7105   -3.0977    2.1700 C   0  0  0  0  0  0  0  0  0  0  0  0
    5.5458   -4.3351    1.1240 C   0  0  1  0  0  0  0  0  0  0  0  0
    5.0213   -4.3125   -0.7085 C   0  0  0  0  0  0  0  0  0  0  0  0
    3.6769   -2.9479   -1.1556 C   0  0  2  0  0  0  0  0  0  0  0  0
    3.0506   -2.9092   -2.5574 C   0  0  0  0  0  0  0  0  0  0  0  0
    4.0607   -1.4782   -0.4505 C   0  0  2  0  0  0  0  0  0  0  0  0
    5.2794   -2.1224    0.0278 C   0  0  0  0  0  0  0  0  0  0  0  0
    4.8928   -3.4150    0.6285 C   0  0  0  0  0  0  0  0  0  0  0  0
    3.2855   -3.9755    0.8078 C   0  0  2  0  0  0  0  0  0  0  0  0
    2.9184   -5.4832    0.6848 C   0  0  0  0  0  0  0  0  0  0  0  0
    3.9004   -6.1778    1.6406 C   0  0  0  0  0  0  0  0  0  0  0  0
    4.7161   -5.0888    2.4238 C   0  0  2  0  0  0  0  0  0  0  0  0
    2.7089   -2.9703    0.0697 C   0  0  1  0  0  0  0  0  0  0  0  0
    0.3536   -1.5458    5.2014 H   0  0  0  0  0  0  0  0  0  0  0  0
   -0.6525   -2.9277    5.4468 H   0  0  0  0  0  0  0  0  0  0  0  0
   -0.1112   -2.5398    3.8321 H   0  0  0  0  0  0  0  0  0  0  0  0
    2.4932   -2.4705    6.7710 H   0  0  0  0  0  0  0  0  0  0  0  0
    2.5177   -4.2109    6.8756 H   0  0  0  0  0  0  0  0  0  0  0  0
    1.0505   -3.3560    7.2202 H   0  0  0  0  0  0  0  0  0  0  0  0
    1.8336   -6.9371    5.2038 H   0  0  0  0  0  0  0  0  0  0  0  0
    4.0505   -6.4543    4.5217 H   0  0  0  0  0  0  0  0  0  0  0  0
    5.1705   -2.8816    4.8881 H   0  0  0  0  0  0  0  0  0  0  0  0
    5.7804   -4.5404    4.9664 H   0  0  0  0  0  0  0  0  0  0  0  0
    4.4621   -4.0249    5.9623 H   0  0  0  0  0  0  0  0  0  0  0  0
    1.9146   -3.3087    3.1850 H   0  0  0  0  0  0  0  0  0  0  0  0
    2.0247    0.1504    2.5984 H   0  0  0  0  0  0  0  0  0  0  0  0
    3.6832    0.3212    2.8914 H   0  0  0  0  0  0  0  0  0  0  0  0
    4.0856   -0.0946    0.9788 H   0  0  0  0  0  0  0  0  0  0  0  0
    2.0449   -2.1300    1.7056 H   0  0  0  0  0  0  0  0  0  0  0  0
    6.5627   -2.4369    1.9569 H   0  0  0  0  0  0  0  0  0  0  0  0
    6.1718   -3.4274    3.0819 H   0  0  0  0  0  0  0  0  0  0  0  0
    5.8948   -4.1494   -1.3583 H   0  0  0  0  0  0  0  0  0  0  0  0
    4.7382   -5.3013   -1.0717 H   0  0  0  0  0  0  0  0  0  0  0  0
    2.2866   -2.1300   -2.6278 H   0  0  0  0  0  0  0  0  0  0  0  0
    2.5726   -3.8570   -2.8122 H   0  0  0  0  0  0  0  0  0  0  0  0
    3.8025   -2.6993   -3.3195 H   0  0  0  0  0  0  0  0  0  0  0  0
    4.3231   -0.7509   -1.2175 H   0  0  0  0  0  0  0  0  0  0  0  0
    6.2777   -1.7268   -0.1138 H   0  0  0  0  0  0  0  0  0  0  0  0
    2.7926   -4.0424    1.7545 H   0  0  0  0  0  0  0  0  0  0  0  0
    1.8962   -5.6680    1.0225 H   0  0  0  0  0  0  0  0  0  0  0  0
    2.9449   -5.8981   -0.3222 H   0  0  0  0  0  0  0  0  0  0  0  0
    3.4005   -6.9212    2.2602 H   0  0  0  0  0  0  0  0  0  0  0  0
    4.5990   -6.7597    1.0356 H   0  0  0  0  0  0  0  0  0  0  0  0
    5.5043   -5.6737    2.8979 H   0  0  0  0  0  0  0  0  0  0  0  0
    1.6597   -3.0924   -0.1730 H   0  0  0  0  0  0  0  0  0  0  0  0
  1  2  1  0
  1 30  1  0
  1 31  1  0
  1 32  1  0
  2 10  1  0
  2  3  1  0
  2  4  1  0
  3 33  1  0
  3 34  1  0
  3 35  1  0
  4  5  2  0
  4  6  1  0
  6  7  2  0
  6 36  1  0
  7  8  1  0
  7 37  1  0
  8 28  1  0
  8  9  1  1
  8 10  1  0
  9 38  1  0
  9 39  1  0
  9 40  1  0
 10 11  1  0
 10 41  1  6
 11 12  2  0
 11 13  1  0
 13 14  1  0
 13 42  1  0
 13 43  1  0
 14 22  1  0
 14 15  1  0
 14 44  1  6
 15 29  1  0
 15 16  1  0
 15 45  1  1
 16 17  1  0
 18 17  1  6
 17 46  1  0
 17 47  1  0
 18 24  1  0
 18 28  1  0
 18 19  1  0
 19 20  1  0
 19 48  1  0
 19 49  1  0
 20 29  1  0
 20 21  1  6
 20 22  1  0
 21 50  1  0
 21 51  1  0
 21 52  1  0
 22 23  1  0
 22 53  1  6
 23 24  2  0
 23 54  1  0
 24 25  1  0
 25 26  1  0
 25 29  1  0
 25 55  1  1
 26 27  1  0
 26 56  1  0
 26 57  1  0
 27 28  1  0
 27 58  1  0
 27 59  1  0
 28 60  1  1
 29 61  1  6
M  END
>  <i_m_ct_stereo_status>  (275) 
1

>  <s_m_source_file>  (275) 
/var/tmp/pbs.5076255.sched01/tmpyc7t0a4i/88yk12rjyo.sdf

>  <i_m_source_file_index>  (275) 
30

>  <i_lp_mmshare_version>  (275) 
48012

>  <i_f3d_flags>  (275) 
0

>  <s_epik_input>  (275) 
W0NIM11DMShbQ0gzXSlDKD1PKVtDSF09W0NIXVtDQEBdKFtDSDNdKShbQ0hdMltDSDJdW0NIMl0zKVtDQEBIXTFDKD1PKVtDSDJdW0NASF0oW0NAQEhdKFtDSF09NClbQ0BdNShbQ0gyXTYpW0NIM10pW0NAQEhdKE9bQ0gyXTcpW0NAQEhdNVtDSF0zQzRbQ0BAXTI2Nw==

>  <s_epik_cmdline>  (275) 
J2VwaWtfcHl0aG9uJywgJy1waHQnLCAnMi4wJywgJy1waCcsICc3LjAnLCAnLXRuJywgJzgnLCAnLW1hJywgJzIwMCcsICctaW1hZScsICc8aW5maWxlLm1hZT4nLCAnLW9tYWUnLCAnPG91dGZpbGUubWFlPic=

>  <r_lp_tautomer_probability>  (275) 
1

>  <r_epik_Ionization_Penalty>  (275) 
2.8013e-11

>  <r_epik_Ionization_Penalty_Charging>  (275) 
0

>  <r_epik_Ionization_Penalty_Neutral>  (275) 
2.8013e-11

>  <r_epik_State_Penalty>  (275) 
-0

>  <r_epik_Charging_Adjusted_Penalty>  (275) 
0

>  <i_epik_Tot_Q>  (275) 
0

>  <i_epik_Tot_abs_Q>  (275) 
0

>  <s_lp_Force_Field>  (275) 
OPLS3e

>  <r_lp_Energy>  (275) 
974.868

>  <b_lp_Chiralities_Consistent>  (275) 
1

>  <s_lp_Variant>  (275) 
77:0-1

>  <s_i_glide_gridfile>  (275) 
pfpi4k_grid

>  <i_i_glide_lignum>  (275) 
30

>  <i_i_glide_rotatable_bonds>  (275) 
0

>  <r_i_docking_score>  (275) 
-2.28244

>  <r_i_glide_ligand_efficiency>  (275) 
-0.078705

>  <r_i_glide_ligand_efficiency_sa>  (275) 
-0.241807

>  <r_i_glide_ligand_efficiency_ln>  (275) 
-0.522622

>  <r_i_glide_gscore>  (275) 
-2.28244

>  <r_i_glide_lipo>  (275) 
-0.247411

>  <r_i_glide_hbond>  (275) 
0

>  <r_i_glide_metal>  (275) 
-0

>  <r_i_glide_rewards>  (275) 
-0.732747

>  <r_i_glide_evdw>  (275) 
-23.1531

>  <r_i_glide_ecoul>  (275) 
-0.951254

>  <r_i_glide_erotb>  (275) 
0

>  <r_i_glide_esite>  (275) 
-0.00194233

>  <r_i_glide_emodel>  (275) 
-27.7301

>  <r_i_glide_energy>  (275) 
-24.1044

>  <r_i_glide_einternal>  (275) 
0

>  <r_i_glide_intrahb_reward>  (275) 
-0

>  <i_i_glide_confnum>  (275) 
1

>  <i_i_glide_posenum>  (275) 
14

>  <r_i_glide_eff_state_penalty>  (275) 
0

>  <ligand_id>  (275) 
77

>  <original_smiles>  (275) 
CC1(C)C(=O)C=CC2(C)C1C(=O)CC1C3OCC45CC6(C)C1C=C4C(CCC52)C36

>  <smiles>  (275) 
[H]C1=C([H])C2(C([H])([H])[H])C([H])(C(=O)C([H])([H])C3([H])C4([H])OC([H])([H])C56C7=C([H])C3([H])C(C([H])([H])[H])(C5([H])[H])C4([H])C7([H])C([H])([H])C([H])([H])C62[H])C(C([H])([H])[H])(C([H])([H])[H])C1=O

$$$$
77:0:2
     RDKit          3D

 61 67  0  0  1  0  0  0  0  0999 V2000
    2.4838   -2.4718    2.5033 C   0  0  0  0  0  0  0  0  0  0  0  0
    3.2747   -1.6796    3.5987 C   0  0  0  0  0  0  0  0  0  0  0  0
    4.0945   -2.7078    4.4309 C   0  0  0  0  0  0  0  0  0  0  0  0
    4.3055   -0.7931    2.8703 C   0  0  0  0  0  0  0  0  0  0  0  0
    4.5238   -0.9117    1.6634 O   0  0  0  0  0  0  0  0  0  0  0  0
    5.0678    0.1421    3.6821 C   0  0  0  0  0  0  0  0  0  0  0  0
    4.5580    0.6572    4.8119 C   0  0  0  0  0  0  0  0  0  0  0  0
    3.1473    0.5018    5.3915 C   0  0  2  0  0  0  0  0  0  0  0  0
    3.4758   -0.2564    6.7189 C   0  0  0  0  0  0  0  0  0  0  0  0
    2.3034   -0.7353    4.4439 C   0  0  2  0  0  0  0  0  0  0  0  0
    0.9429   -1.6569    4.8731 C   0  0  0  0  0  0  0  0  0  0  0  0
    1.1274   -2.7854    5.3170 O   0  0  0  0  0  0  0  0  0  0  0  0
   -0.6987   -1.1732    4.8746 C   0  0  0  0  0  0  0  0  0  0  0  0
   -1.5190    0.3437    4.6001 C   0  0  1  0  0  0  0  0  0  0  0  0
   -0.1904    0.7257    4.3897 C   0  0  2  0  0  0  0  0  0  0  0  0
    0.5471    0.5151    5.8898 O   0  0  0  0  0  0  0  0  0  0  0  0
    1.0809    1.5764    6.9287 C   0  0  0  0  0  0  0  0  0  0  0  0
    1.4116    3.0340    6.2705 C   0  0  1  0  0  0  0  0  0  0  0  0
    0.2774    4.2148    5.2906 C   0  0  0  0  0  0  0  0  0  0  0  0
   -1.0282    3.3100    4.1264 C   0  0  2  0  0  0  0  0  0  0  0  0
   -1.9167    4.1282    3.1835 C   0  0  0  0  0  0  0  0  0  0  0  0
   -1.7612    2.0469    4.9369 C   0  0  2  0  0  0  0  0  0  0  0  0
   -0.9965    2.4508    6.1088 C   0  0  0  0  0  0  0  0  0  0  0  0
    0.4001    2.6494    5.6764 C   0  0  0  0  0  0  0  0  0  0  0  0
    0.9901    2.3443    4.0975 C   0  0  2  0  0  0  0  0  0  0  0  0
    2.1042    3.2238    3.4547 C   0  0  0  0  0  0  0  0  0  0  0  0
    3.2150    3.2277    4.5213 C   0  0  0  0  0  0  0  0  0  0  0  0
    2.8260    2.2573    5.6922 C   0  0  2  0  0  0  0  0  0  0  0  0
   -0.2348    2.1036    3.5203 C   0  0  1  0  0  0  0  0  0  0  0  0
    1.8746   -3.2769    2.9107 H   0  0  0  0  0  0  0  0  0  0  0  0
    3.1405   -2.9580    1.7809 H   0  0  0  0  0  0  0  0  0  0  0  0
    1.8243   -1.8183    1.9300 H   0  0  0  0  0  0  0  0  0  0  0  0
    3.5090   -3.2172    5.1928 H   0  0  0  0  0  0  0  0  0  0  0  0
    4.9446   -2.2565    4.9407 H   0  0  0  0  0  0  0  0  0  0  0  0
    4.5219   -3.4807    3.7881 H   0  0  0  0  0  0  0  0  0  0  0  0
    6.0752    0.3722    3.3763 H   0  0  0  0  0  0  0  0  0  0  0  0
    5.2126    1.3010    5.3822 H   0  0  0  0  0  0  0  0  0  0  0  0
    2.5973   -0.7289    7.1625 H   0  0  0  0  0  0  0  0  0  0  0  0
    3.9354    0.3883    7.4712 H   0  0  0  0  0  0  0  0  0  0  0  0
    4.1794   -1.0736    6.5751 H   0  0  0  0  0  0  0  0  0  0  0  0
    1.9787   -0.2432    3.5476 H   0  0  0  0  0  0  0  0  0  0  0  0
   -1.1040   -1.8221    4.1005 H   0  0  0  0  0  0  0  0  0  0  0  0
   -1.1064   -1.6132    5.7858 H   0  0  0  0  0  0  0  0  0  0  0  0
   -1.9720    0.1782    5.5779 H   0  0  0  0  0  0  0  0  0  0  0  0
    0.1369    0.1911    3.4839 H   0  0  0  0  0  0  0  0  0  0  0  0
    0.4007    1.6193    7.7933 H   0  0  0  0  0  0  0  0  0  0  0  0
    1.8926    1.2448    7.5605 H   0  0  0  0  0  0  0  0  0  0  0  0
   -0.2738    4.8726    5.9836 H   0  0  0  0  0  0  0  0  0  0  0  0
    0.8410    4.9805    4.7561 H   0  0  0  0  0  0  0  0  0  0  0  0
   -2.5441    3.4766    2.5704 H   0  0  0  0  0  0  0  0  0  0  0  0
   -1.3201    4.7366    2.5008 H   0  0  0  0  0  0  0  0  0  0  0  0
   -2.5796    4.7920    3.7350 H   0  0  0  0  0  0  0  0  0  0  0  0
   -2.8080    2.2842    5.1123 H   0  0  0  0  0  0  0  0  0  0  0  0
   -1.4250    2.6411    7.0866 H   0  0  0  0  0  0  0  0  0  0  0  0
    1.6473    1.5314    3.8682 H   0  0  0  0  0  0  0  0  0  0  0  0
    2.4887    2.7593    2.5428 H   0  0  0  0  0  0  0  0  0  0  0  0
    1.8053    4.2222    3.1329 H   0  0  0  0  0  0  0  0  0  0  0  0
    4.1938    3.0440    4.0809 H   0  0  0  0  0  0  0  0  0  0  0  0
    3.2892    4.2393    4.9262 H   0  0  0  0  0  0  0  0  0  0  0  0
    3.5569    2.4999    6.4630 H   0  0  0  0  0  0  0  0  0  0  0  0
   -0.2320    2.0151    2.4332 H   0  0  0  0  0  0  0  0  0  0  0  0
  1  2  1  0
  1 30  1  0
  1 31  1  0
  1 32  1  0
  2 10  1  0
  2  3  1  0
  2  4  1  0
  3 33  1  0
  3 34  1  0
  3 35  1  0
  4  5  2  0
  4  6  1  0
  6  7  2  0
  6 36  1  0
  7  8  1  0
  7 37  1  0
  8 28  1  0
  8  9  1  1
  8 10  1  0
  9 38  1  0
  9 39  1  0
  9 40  1  0
 10 11  1  0
 10 41  1  6
 11 12  2  0
 11 13  1  0
 13 14  1  0
 13 42  1  0
 13 43  1  0
 14 22  1  0
 14 15  1  0
 14 44  1  6
 15 29  1  0
 15 16  1  0
 15 45  1  6
 16 17  1  0
 18 17  1  1
 17 46  1  0
 17 47  1  0
 18 24  1  0
 18 28  1  0
 18 19  1  0
 19 20  1  0
 19 48  1  0
 19 49  1  0
 20 29  1  0
 20 21  1  6
 20 22  1  0
 21 50  1  0
 21 51  1  0
 21 52  1  0
 22 23  1  0
 22 53  1  1
 23 24  2  0
 23 54  1  0
 24 25  1  0
 25 26  1  0
 25 29  1  0
 25 55  1  1
 26 27  1  0
 26 56  1  0
 26 57  1  0
 27 28  1  0
 27 58  1  0
 27 59  1  0
 28 60  1  1
 29 61  1  6
M  END
>  <i_m_ct_stereo_status>  (276) 
1

>  <s_m_source_file>  (276) 
/var/tmp/pbs.5076255.sched01/tmpyc7t0a4i/88yk12rjyo.sdf

>  <i_m_source_file_index>  (276) 
30

>  <i_lp_mmshare_version>  (276) 
48012

>  <i_f3d_flags>  (276) 
0

>  <s_epik_input>  (276) 
W0NIM11DMShbQ0gzXSlDKD1PKVtDSF09W0NIXVtDQEBdKFtDSDNdKShbQ0hdMltDSDJdW0NIMl0zKVtDQEBIXTFDKD1PKVtDSDJdW0NASF0oW0NAQEhdKFtDSF09NClbQ0BdNShbQ0gyXTYpW0NIM10pW0NAQEhdKE9bQ0gyXTcpW0NAQEhdNVtDSF0zQzRbQ0BAXTI2Nw==

>  <s_epik_cmdline>  (276) 
J2VwaWtfcHl0aG9uJywgJy1waHQnLCAnMi4wJywgJy1waCcsICc3LjAnLCAnLXRuJywgJzgnLCAnLW1hJywgJzIwMCcsICctaW1hZScsICc8aW5maWxlLm1hZT4nLCAnLW9tYWUnLCAnPG91dGZpbGUubWFlPic=

>  <r_lp_tautomer_probability>  (276) 
1

>  <r_epik_Ionization_Penalty>  (276) 
2.8013e-11

>  <r_epik_Ionization_Penalty_Charging>  (276) 
0

>  <r_epik_Ionization_Penalty_Neutral>  (276) 
2.8013e-11

>  <r_epik_State_Penalty>  (276) 
-0

>  <r_epik_Charging_Adjusted_Penalty>  (276) 
0

>  <i_epik_Tot_Q>  (276) 
0

>  <i_epik_Tot_abs_Q>  (276) 
0

>  <s_lp_Force_Field>  (276) 
OPLS3e

>  <r_lp_Energy>  (276) 
974.868

>  <b_lp_Chiralities_Consistent>  (276) 
1

>  <s_lp_Variant>  (276) 
77:0-1

>  <s_i_glide_gridfile>  (276) 
pfpi4k_grid

>  <i_i_glide_lignum>  (276) 
30

>  <i_i_glide_rotatable_bonds>  (276) 
0

>  <r_i_docking_score>  (276) 
-2.09067

>  <r_i_glide_ligand_efficiency>  (276) 
-0.0720919

>  <r_i_glide_ligand_efficiency_sa>  (276) 
-0.221489

>  <r_i_glide_ligand_efficiency_ln>  (276) 
-0.47871

>  <r_i_glide_gscore>  (276) 
-2.09067

>  <r_i_glide_lipo>  (276) 
-0.116395

>  <r_i_glide_hbond>  (276) 
0

>  <r_i_glide_metal>  (276) 
-0

>  <r_i_glide_rewards>  (276) 
-0.794118

>  <r_i_glide_evdw>  (276) 
-23.9099

>  <r_i_glide_ecoul>  (276) 
0.109248

>  <r_i_glide_erotb>  (276) 
0

>  <r_i_glide_esite>  (276) 
-0.00104597

>  <r_i_glide_emodel>  (276) 
-27.1292

>  <r_i_glide_energy>  (276) 
-23.8006

>  <r_i_glide_einternal>  (276) 
0

>  <r_i_glide_intrahb_reward>  (276) 
-0

>  <i_i_glide_confnum>  (276) 
1

>  <i_i_glide_posenum>  (276) 
2

>  <r_i_glide_eff_state_penalty>  (276) 
0

>  <ligand_id>  (276) 
77

>  <original_smiles>  (276) 
CC1(C)C(=O)C=CC2(C)C1C(=O)CC1C3OCC45CC6(C)C1C=C4C(CCC52)C36

>  <smiles>  (276) 
[H]C1=C([H])C2(C([H])([H])[H])C([H])(C(=O)C([H])([H])C3([H])C4([H])OC([H])([H])C56C7=C([H])C3([H])C(C([H])([H])[H])(C5([H])[H])C4([H])C7([H])C([H])([H])C([H])([H])C62[H])C(C([H])([H])[H])(C([H])([H])[H])C1=O

$$$$
79:0:0
     RDKit          3D

 36 38  0  0  1  0  0  0  0  0999 V2000
    4.6348   -5.5364    1.5271 C   0  0  0  0  0  0  0  0  0  0  0  0
    4.1941   -4.1885    1.1874 N   0  0  0  0  0  0  0  0  0  0  0  0
    3.6809   -4.1004   -0.1892 C   0  0  0  0  0  0  0  0  0  0  0  0
    4.4304   -2.8748   -0.7770 C   0  0  1  0  0  0  0  0  0  0  0  0
    3.8466   -2.2256   -2.0252 C   0  0  0  0  0  0  0  0  0  0  0  0
    2.8925   -2.9393   -2.7883 C   0  0  0  0  0  0  0  0  0  0  0  0
    2.3231   -2.3559   -3.9192 C   0  0  0  0  0  0  0  0  0  0  0  0
    2.7017   -1.0612   -4.3154 C   0  0  0  0  0  0  0  0  0  0  0  0
    3.6412   -0.3400   -3.5736 C   0  0  0  0  0  0  0  0  0  0  0  0
    3.9013    0.9444   -3.9426 O   0  0  0  0  0  0  0  0  0  0  0  0
    4.2263   -0.9248   -2.4254 C   0  0  0  0  0  0  0  0  0  0  0  0
    4.5276   -2.0408    0.4786 C   0  0  0  0  0  0  0  0  0  0  0  0
    5.2565   -3.1710    1.2171 C   0  0  1  0  0  0  0  0  0  0  0  0
    5.6456   -2.7913    2.6478 C   0  0  0  0  0  0  0  0  0  0  0  0
    6.3818   -3.4209    0.3007 N   0  0  0  0  0  0  0  0  0  0  0  0
    7.7188   -3.8692    0.6858 C   0  0  0  0  0  0  0  0  0  0  0  0
    5.9022   -3.2469   -0.9326 C   0  0  0  0  0  0  0  0  0  0  0  0
    6.5015   -3.3415   -2.0007 O   0  0  0  0  0  0  0  0  0  0  0  0
    3.7999   -6.2323    1.4497 H   0  0  0  0  0  0  0  0  0  0  0  0
    5.0025   -5.5724    2.5532 H   0  0  0  0  0  0  0  0  0  0  0  0
    5.4266   -5.8922    0.8651 H   0  0  0  0  0  0  0  0  0  0  0  0
    3.8931   -5.0036   -0.7609 H   0  0  0  0  0  0  0  0  0  0  0  0
    2.5980   -3.9581   -0.1651 H   0  0  0  0  0  0  0  0  0  0  0  0
    2.5395   -3.9142   -2.5002 H   0  0  0  0  0  0  0  0  0  0  0  0
    1.5567   -2.9021   -4.4549 H   0  0  0  0  0  0  0  0  0  0  0  0
    2.2182   -0.5872   -5.1492 H   0  0  0  0  0  0  0  0  0  0  0  0
    3.2447    1.5476   -3.5898 H   0  0  0  0  0  0  0  0  0  0  0  0
    4.9281   -0.3520   -1.8379 H   0  0  0  0  0  0  0  0  0  0  0  0
    5.1449   -1.1478    0.3628 H   0  0  0  0  0  0  0  0  0  0  0  0
    3.5578   -1.7648    0.8990 H   0  0  0  0  0  0  0  0  0  0  0  0
    6.1290   -3.6281    3.1512 H   0  0  0  0  0  0  0  0  0  0  0  0
    4.7670   -2.5175    3.2300 H   0  0  0  0  0  0  0  0  0  0  0  0
    6.3025   -1.9224    2.6451 H   0  0  0  0  0  0  0  0  0  0  0  0
    8.3501   -4.0706   -0.1839 H   0  0  0  0  0  0  0  0  0  0  0  0
    7.6540   -4.7829    1.2864 H   0  0  0  0  0  0  0  0  0  0  0  0
    8.2101   -3.0843    1.2594 H   0  0  0  0  0  0  0  0  0  0  0  0
  1  2  1  0
  1 19  1  0
  1 20  1  0
  1 21  1  0
  2 13  1  0
  2  3  1  0
  3  4  1  0
  3 22  1  0
  3 23  1  0
  4 17  1  0
  4  5  1  6
  4 12  1  0
  5 11  1  0
  5  6  2  0
  6  7  1  0
  6 24  1  0
  7  8  2  0
  7 25  1  0
  8  9  1  0
  8 26  1  0
  9 10  1  0
  9 11  2  0
 10 27  1  0
 11 28  1  0
 12 13  1  0
 12 29  1  0
 12 30  1  0
 13 14  1  1
 13 15  1  0
 14 31  1  0
 14 32  1  0
 14 33  1  0
 15 16  1  0
 15 17  1  0
 16 34  1  0
 16 35  1  0
 16 36  1  0
 17 18  2  0
M  END
>  <i_m_ct_stereo_status>  (277) 
1

>  <s_m_source_file>  (277) 
/var/tmp/pbs.5076255.sched01/tmpyc7t0a4i/88yk12rjyo.sdf

>  <i_m_source_file_index>  (277) 
32

>  <i_lp_mmshare_version>  (277) 
48012

>  <i_f3d_flags>  (277) 
0

>  <s_epik_input>  (277) 
Tz1DMU4oW0NIM10pW0NAXShbQ0gyXTIpKFtDSDNdKU4oW0NIM10pW0NIMl1bQ0BdMTJjM1tjSF1bY0hdW2NIXWMoW09IXSlbY0hdMw==

>  <s_epik_cmdline>  (277) 
J2VwaWtfcHl0aG9uJywgJy1waHQnLCAnMi4wJywgJy1waCcsICc3LjAnLCAnLXRuJywgJzgnLCAnLW1hJywgJzIwMCcsICctaW1hZScsICc8aW5maWxlLm1hZT4nLCAnLW9tYWUnLCAnPG91dGZpbGUubWFlPic=

>  <r_lp_tautomer_probability>  (277) 
1

>  <r_epik_Ionization_Penalty>  (277) 
0.291278

>  <r_epik_Ionization_Penalty_Charging>  (277) 
0

>  <r_epik_Ionization_Penalty_Neutral>  (277) 
0.291278

>  <r_epik_State_Penalty>  (277) 
0.191528

>  <r_epik_Charging_Adjusted_Penalty>  (277) 
0.191528

>  <i_epik_Tot_Q>  (277) 
0

>  <i_epik_Tot_abs_Q>  (277) 
0

>  <s_lp_Force_Field>  (277) 
OPLS3e

>  <r_lp_Energy>  (277) 
22.7451

>  <b_lp_Chiralities_Consistent>  (277) 
1

>  <s_lp_Variant>  (277) 
79:0-1

>  <s_i_glide_gridfile>  (277) 
pfpi4k_grid

>  <i_i_glide_lignum>  (277) 
32

>  <i_i_glide_rotatable_bonds>  (277) 
2

>  <r_i_docking_score>  (277) 
-4.77044

>  <r_i_glide_ligand_efficiency>  (277) 
-0.265025

>  <r_i_glide_ligand_efficiency_sa>  (277) 
-0.694561

>  <r_i_glide_ligand_efficiency_ln>  (277) 
-1.22622

>  <r_i_glide_gscore>  (277) 
-4.77044

>  <r_i_glide_lipo>  (277) 
-0.678412

>  <r_i_glide_hbond>  (277) 
-0.32

>  <r_i_glide_metal>  (277) 
-0

>  <r_i_glide_rewards>  (277) 
-2.02934

>  <r_i_glide_evdw>  (277) 
-14.5776

>  <r_i_glide_ecoul>  (277) 
-8.67361

>  <r_i_glide_erotb>  (277) 
0.287233

>  <r_i_glide_esite>  (277) 
0

>  <r_i_glide_emodel>  (277) 
-27.6014

>  <r_i_glide_energy>  (277) 
-23.2512

>  <r_i_glide_einternal>  (277) 
3.53265

>  <r_i_glide_intrahb_reward>  (277) 
-0

>  <i_i_glide_confnum>  (277) 
4

>  <i_i_glide_posenum>  (277) 
19

>  <r_i_glide_eff_state_penalty>  (277) 
0

>  <ligand_id>  (277) 
79

>  <original_smiles>  (277) 
CN1CC2(c3cccc(O)c3)CC1(C)N(C)C2=O

>  <smiles>  (277) 
[H]Oc1c([H])c([H])c([H])c(C23C(=O)N(C([H])([H])[H])C(C([H])([H])[H])(N(C([H])([H])[H])C2([H])[H])C3([H])[H])c1[H]

$$$$
79:0:1
     RDKit          3D

 36 38  0  0  1  0  0  0  0  0999 V2000
    8.0569   -3.0842    0.5535 C   0  0  0  0  0  0  0  0  0  0  0  0
    6.9646   -3.6149   -0.2499 N   0  0  0  0  0  0  0  0  0  0  0  0
    6.4592   -2.6328   -1.2281 C   0  0  0  0  0  0  0  0  0  0  0  0
    4.9312   -2.6689   -1.0147 C   0  0  1  0  0  0  0  0  0  0  0  0
    4.1104   -2.0984   -2.1568 C   0  0  0  0  0  0  0  0  0  0  0  0
    3.1122   -2.8782   -2.7850 C   0  0  0  0  0  0  0  0  0  0  0  0
    2.3874   -2.3720   -3.8706 C   0  0  0  0  0  0  0  0  0  0  0  0
    2.6359   -1.0629   -4.3195 C   0  0  0  0  0  0  0  0  0  0  0  0
    3.6239   -0.2818   -3.7218 C   0  0  0  0  0  0  0  0  0  0  0  0
    3.8135    0.9710   -4.1942 O   0  0  0  0  0  0  0  0  0  0  0  0
    4.3533   -0.7838   -2.6294 C   0  0  0  0  0  0  0  0  0  0  0  0
    4.7878   -4.1406   -0.6615 C   0  0  0  0  0  0  0  0  0  0  0  0
    5.7617   -4.0025    0.5120 C   0  0  1  0  0  0  0  0  0  0  0  0
    5.9564   -5.3097    1.2993 C   0  0  0  0  0  0  0  0  0  0  0  0
    5.1215   -2.9178    1.2624 N   0  0  0  0  0  0  0  0  0  0  0  0
    5.1656   -2.7520    2.7106 C   0  0  0  0  0  0  0  0  0  0  0  0
    4.6275   -2.0586    0.3568 C   0  0  0  0  0  0  0  0  0  0  0  0
    4.0690   -0.9858    0.5587 O   0  0  0  0  0  0  0  0  0  0  0  0
    8.9042   -2.8021   -0.0729 H   0  0  0  0  0  0  0  0  0  0  0  0
    8.4071   -3.8333    1.2641 H   0  0  0  0  0  0  0  0  0  0  0  0
    7.7442   -2.2006    1.1090 H   0  0  0  0  0  0  0  0  0  0  0  0
    6.8343   -1.6312   -1.0329 H   0  0  0  0  0  0  0  0  0  0  0  0
    6.7508   -2.9163   -2.2428 H   0  0  0  0  0  0  0  0  0  0  0  0
    2.8769   -3.8647   -2.4342 H   0  0  0  0  0  0  0  0  0  0  0  0
    1.6058   -2.9676   -4.3208 H   0  0  0  0  0  0  0  0  0  0  0  0
    2.0337   -0.6361   -5.1132 H   0  0  0  0  0  0  0  0  0  0  0  0
    3.2390    1.5709   -3.7224 H   0  0  0  0  0  0  0  0  0  0  0  0
    5.1047   -0.1716   -2.1509 H   0  0  0  0  0  0  0  0  0  0  0  0
    3.7797   -4.4118   -0.3412 H   0  0  0  0  0  0  0  0  0  0  0  0
    5.1123   -4.8169   -1.4533 H   0  0  0  0  0  0  0  0  0  0  0  0
    6.6707   -5.1987    2.1156 H   0  0  0  0  0  0  0  0  0  0  0  0
    6.3204   -6.0940    0.6396 H   0  0  0  0  0  0  0  0  0  0  0  0
    5.0107   -5.6506    1.7173 H   0  0  0  0  0  0  0  0  0  0  0  0
    4.6858   -1.8223    3.0301 H   0  0  0  0  0  0  0  0  0  0  0  0
    6.2036   -2.7115    3.0361 H   0  0  0  0  0  0  0  0  0  0  0  0
    4.6681   -3.5917    3.2057 H   0  0  0  0  0  0  0  0  0  0  0  0
  1  2  1  0
  1 19  1  0
  1 20  1  0
  1 21  1  0
  2 13  1  0
  2  3  1  0
  3  4  1  0
  3 22  1  0
  3 23  1  0
  4 17  1  0
  4  5  1  6
  4 12  1  0
  5 11  1  0
  5  6  2  0
  6  7  1  0
  6 24  1  0
  7  8  2  0
  7 25  1  0
  8  9  1  0
  8 26  1  0
  9 10  1  0
  9 11  2  0
 10 27  1  0
 11 28  1  0
 12 13  1  0
 12 29  1  0
 12 30  1  0
 13 14  1  1
 13 15  1  0
 14 31  1  0
 14 32  1  0
 14 33  1  0
 15 16  1  0
 15 17  1  0
 16 34  1  0
 16 35  1  0
 16 36  1  0
 17 18  2  0
M  END
>  <i_m_ct_stereo_status>  (278) 
1

>  <s_m_source_file>  (278) 
/var/tmp/pbs.5076255.sched01/tmpyc7t0a4i/88yk12rjyo.sdf

>  <i_m_source_file_index>  (278) 
32

>  <i_lp_mmshare_version>  (278) 
48012

>  <i_f3d_flags>  (278) 
0

>  <s_epik_input>  (278) 
Tz1DMU4oW0NIM10pW0NAXShbQ0gyXTIpKFtDSDNdKU4oW0NIM10pW0NIMl1bQ0BdMTJjM1tjSF1bY0hdW2NIXWMoW09IXSlbY0hdMw==

>  <s_epik_cmdline>  (278) 
J2VwaWtfcHl0aG9uJywgJy1waHQnLCAnMi4wJywgJy1waCcsICc3LjAnLCAnLXRuJywgJzgnLCAnLW1hJywgJzIwMCcsICctaW1hZScsICc8aW5maWxlLm1hZT4nLCAnLW9tYWUnLCAnPG91dGZpbGUubWFlPic=

>  <r_lp_tautomer_probability>  (278) 
1

>  <r_epik_Ionization_Penalty>  (278) 
0.291278

>  <r_epik_Ionization_Penalty_Charging>  (278) 
0

>  <r_epik_Ionization_Penalty_Neutral>  (278) 
0.291278

>  <r_epik_State_Penalty>  (278) 
0.191528

>  <r_epik_Charging_Adjusted_Penalty>  (278) 
0.191528

>  <i_epik_Tot_Q>  (278) 
0

>  <i_epik_Tot_abs_Q>  (278) 
0

>  <s_lp_Force_Field>  (278) 
OPLS3e

>  <r_lp_Energy>  (278) 
22.7451

>  <b_lp_Chiralities_Consistent>  (278) 
1

>  <s_lp_Variant>  (278) 
79:0-1

>  <s_i_glide_gridfile>  (278) 
pfpi4k_grid

>  <i_i_glide_lignum>  (278) 
32

>  <i_i_glide_rotatable_bonds>  (278) 
2

>  <r_i_docking_score>  (278) 
-4.6758

>  <r_i_glide_ligand_efficiency>  (278) 
-0.259767

>  <r_i_glide_ligand_efficiency_sa>  (278) 
-0.680782

>  <r_i_glide_ligand_efficiency_ln>  (278) 
-1.20189

>  <r_i_glide_gscore>  (278) 
-4.6758

>  <r_i_glide_lipo>  (278) 
-0.828967

>  <r_i_glide_hbond>  (278) 
-0.32

>  <r_i_glide_metal>  (278) 
-0

>  <r_i_glide_rewards>  (278) 
-1.88074

>  <r_i_glide_evdw>  (278) 
-18.1206

>  <r_i_glide_ecoul>  (278) 
-6.83669

>  <r_i_glide_erotb>  (278) 
0.287233

>  <r_i_glide_esite>  (278) 
-0.00179068

>  <r_i_glide_emodel>  (278) 
-29.512

>  <r_i_glide_energy>  (278) 
-24.9573

>  <r_i_glide_einternal>  (278) 
3.37027

>  <r_i_glide_intrahb_reward>  (278) 
-0

>  <i_i_glide_confnum>  (278) 
1

>  <i_i_glide_posenum>  (278) 
1

>  <r_i_glide_eff_state_penalty>  (278) 
0

>  <ligand_id>  (278) 
79

>  <original_smiles>  (278) 
CN1CC2(c3cccc(O)c3)CC1(C)N(C)C2=O

>  <smiles>  (278) 
[H]Oc1c([H])c([H])c([H])c(C23C(=O)N(C([H])([H])[H])C(C([H])([H])[H])(N(C([H])([H])[H])C2([H])[H])C3([H])[H])c1[H]

$$$$
79:0:2
     RDKit          3D

 36 38  0  0  1  0  0  0  0  0999 V2000
    4.7962   -4.0469    2.0500 C   0  0  0  0  0  0  0  0  0  0  0  0
    4.3229   -2.8088    1.4473 N   0  0  0  0  0  0  0  0  0  0  0  0
    3.7804   -3.0200    0.0965 C   0  0  0  0  0  0  0  0  0  0  0  0
    4.5098   -1.9425   -0.7449 C   0  0  1  0  0  0  0  0  0  0  0  0
    3.9103   -1.5997   -2.0854 C   0  0  0  0  0  0  0  0  0  0  0  0
    3.0282   -2.5082   -2.6998 C   0  0  0  0  0  0  0  0  0  0  0  0
    2.4247   -2.1587   -3.9081 C   0  0  0  0  0  0  0  0  0  0  0  0
    2.6938   -0.8970   -4.4778 C   0  0  0  0  0  0  0  0  0  0  0  0
    3.6109   -0.0257   -3.9190 C   0  0  0  0  0  0  0  0  0  0  0  0
    3.8130    1.1739   -4.5318 O   0  0  0  0  0  0  0  0  0  0  0  0
    4.2251   -0.3699   -2.7205 C   0  0  0  0  0  0  0  0  0  0  0  0
    4.6003   -0.8552    0.2997 C   0  0  0  0  0  0  0  0  0  0  0  0
    5.3625   -1.7864    1.2440 C   0  0  1  0  0  0  0  0  0  0  0  0
    5.7460   -1.1085    2.5623 C   0  0  0  0  0  0  0  0  0  0  0  0
    6.4775   -2.2046    0.3750 N   0  0  0  0  0  0  0  0  0  0  0  0
    7.8242   -2.5278    0.8118 C   0  0  0  0  0  0  0  0  0  0  0  0
    5.9819   -2.3172   -0.8517 C   0  0  0  0  0  0  0  0  0  0  0  0
    6.5754   -2.6273   -1.8828 O   0  0  0  0  0  0  0  0  0  0  0  0
    3.9728   -4.7557    2.1367 H   0  0  0  0  0  0  0  0  0  0  0  0
    5.1828   -3.8657    3.0545 H   0  0  0  0  0  0  0  0  0  0  0  0
    5.5845   -4.5228    1.4603 H   0  0  0  0  0  0  0  0  0  0  0  0
    3.9922   -4.0163   -0.2893 H   0  0  0  0  0  0  0  0  0  0  0  0
    2.6961   -2.8802    0.1112 H   0  0  0  0  0  0  0  0  0  0  0  0
    2.7445   -3.4527   -2.2431 H   0  0  0  0  0  0  0  0  0  0  0  0
    1.6865   -2.8191   -4.3426 H   0  0  0  0  0  0  0  0  0  0  0  0
    2.1905   -0.5614   -5.3665 H   0  0  0  0  0  0  0  0  0  0  0  0
    3.4175    1.8652   -4.0107 H   0  0  0  0  0  0  0  0  0  0  0  0
    4.9038    0.3481   -2.3072 H   0  0  0  0  0  0  0  0  0  0  0  0
    5.2054    0.0056    0.0120 H   0  0  0  0  0  0  0  0  0  0  0  0
    3.6318   -0.5130    0.6786 H   0  0  0  0  0  0  0  0  0  0  0  0
    6.1444   -1.8485    3.2519 H   0  0  0  0  0  0  0  0  0  0  0  0
    4.8663   -0.6886    3.0500 H   0  0  0  0  0  0  0  0  0  0  0  0
    6.4657   -0.2992    2.4100 H   0  0  0  0  0  0  0  0  0  0  0  0
    8.4639   -2.8770    0.0037 H   0  0  0  0  0  0  0  0  0  0  0  0
    7.7786   -3.3294    1.5543 H   0  0  0  0  0  0  0  0  0  0  0  0
    8.2621   -1.6054    1.1964 H   0  0  0  0  0  0  0  0  0  0  0  0
  1  2  1  0
  1 19  1  0
  1 20  1  0
  1 21  1  0
  2 13  1  0
  2  3  1  0
  3  4  1  0
  3 22  1  0
  3 23  1  0
  4 17  1  0
  4  5  1  6
  4 12  1  0
  5 11  1  0
  5  6  2  0
  6  7  1  0
  6 24  1  0
  7  8  2  0
  7 25  1  0
  8  9  1  0
  8 26  1  0
  9 10  1  0
  9 11  2  0
 10 27  1  0
 11 28  1  0
 12 13  1  0
 12 29  1  0
 12 30  1  0
 13 14  1  1
 13 15  1  0
 14 31  1  0
 14 32  1  0
 14 33  1  0
 15 16  1  0
 15 17  1  0
 16 34  1  0
 16 35  1  0
 16 36  1  0
 17 18  2  0
M  END
>  <i_m_ct_stereo_status>  (279) 
1

>  <s_m_source_file>  (279) 
/var/tmp/pbs.5076255.sched01/tmpyc7t0a4i/88yk12rjyo.sdf

>  <i_m_source_file_index>  (279) 
32

>  <i_lp_mmshare_version>  (279) 
48012

>  <i_f3d_flags>  (279) 
0

>  <s_epik_input>  (279) 
Tz1DMU4oW0NIM10pW0NAXShbQ0gyXTIpKFtDSDNdKU4oW0NIM10pW0NIMl1bQ0BdMTJjM1tjSF1bY0hdW2NIXWMoW09IXSlbY0hdMw==

>  <s_epik_cmdline>  (279) 
J2VwaWtfcHl0aG9uJywgJy1waHQnLCAnMi4wJywgJy1waCcsICc3LjAnLCAnLXRuJywgJzgnLCAnLW1hJywgJzIwMCcsICctaW1hZScsICc8aW5maWxlLm1hZT4nLCAnLW9tYWUnLCAnPG91dGZpbGUubWFlPic=

>  <r_lp_tautomer_probability>  (279) 
1

>  <r_epik_Ionization_Penalty>  (279) 
0.291278

>  <r_epik_Ionization_Penalty_Charging>  (279) 
0

>  <r_epik_Ionization_Penalty_Neutral>  (279) 
0.291278

>  <r_epik_State_Penalty>  (279) 
0.191528

>  <r_epik_Charging_Adjusted_Penalty>  (279) 
0.191528

>  <i_epik_Tot_Q>  (279) 
0

>  <i_epik_Tot_abs_Q>  (279) 
0

>  <s_lp_Force_Field>  (279) 
OPLS3e

>  <r_lp_Energy>  (279) 
22.7451

>  <b_lp_Chiralities_Consistent>  (279) 
1

>  <s_lp_Variant>  (279) 
79:0-1

>  <s_i_glide_gridfile>  (279) 
pfpi4k_grid

>  <i_i_glide_lignum>  (279) 
32

>  <i_i_glide_rotatable_bonds>  (279) 
2

>  <r_i_docking_score>  (279) 
-4.46475

>  <r_i_glide_ligand_efficiency>  (279) 
-0.248042

>  <r_i_glide_ligand_efficiency_sa>  (279) 
-0.650053

>  <r_i_glide_ligand_efficiency_ln>  (279) 
-1.14764

>  <r_i_glide_gscore>  (279) 
-4.46475

>  <r_i_glide_lipo>  (279) 
-0.833429

>  <r_i_glide_hbond>  (279) 
-0.357258

>  <r_i_glide_metal>  (279) 
-0

>  <r_i_glide_rewards>  (279) 
-1.95173

>  <r_i_glide_evdw>  (279) 
-11.8745

>  <r_i_glide_ecoul>  (279) 
-6.57709

>  <r_i_glide_erotb>  (279) 
0.287233

>  <r_i_glide_esite>  (279) 
-0.0292789

>  <r_i_glide_emodel>  (279) 
-22.1935

>  <r_i_glide_energy>  (279) 
-18.4515

>  <r_i_glide_einternal>  (279) 
3.14587

>  <r_i_glide_intrahb_reward>  (279) 
-0

>  <i_i_glide_confnum>  (279) 
4

>  <i_i_glide_posenum>  (279) 
6

>  <r_i_glide_eff_state_penalty>  (279) 
0

>  <ligand_id>  (279) 
79

>  <original_smiles>  (279) 
CN1CC2(c3cccc(O)c3)CC1(C)N(C)C2=O

>  <smiles>  (279) 
[H]Oc1c([H])c([H])c([H])c(C23C(=O)N(C([H])([H])[H])C(C([H])([H])[H])(N(C([H])([H])[H])C2([H])[H])C3([H])[H])c1[H]

$$$$
79:1:0
     RDKit          3D

 37 39  0  0  1  0  0  0  0  0999 V2000
    8.0968   -3.0927    0.6357 C   0  0  0  0  0  0  0  0  0  0  0  0
    7.0591   -3.6403   -0.2574 N   0  0  2  0  0  0  0  0  0  0  0  0
    6.5268   -2.6638   -1.2455 C   0  0  0  0  0  0  0  0  0  0  0  0
    4.9939   -2.7747   -1.0784 C   0  0  1  0  0  0  0  0  0  0  0  0
    4.1587   -2.1779   -2.2071 C   0  0  0  0  0  0  0  0  0  0  0  0
    3.1648   -2.9495   -2.8492 C   0  0  0  0  0  0  0  0  0  0  0  0
    2.4158   -2.4106   -3.9037 C   0  0  0  0  0  0  0  0  0  0  0  0
    2.6379   -1.0836   -4.3111 C   0  0  0  0  0  0  0  0  0  0  0  0
    3.6267   -0.3220   -3.6886 C   0  0  0  0  0  0  0  0  0  0  0  0
    3.8165    0.9450   -4.1226 O   0  0  0  0  0  0  0  0  0  0  0  0
    4.3834   -0.8522   -2.6312 C   0  0  0  0  0  0  0  0  0  0  0  0
    4.8848   -4.2611   -0.7956 C   0  0  0  0  0  0  0  0  0  0  0  0
    5.8256   -4.1520    0.4091 C   0  0  1  0  0  0  0  0  0  0  0  0
    6.0043   -5.4993    1.1309 C   0  0  0  0  0  0  0  0  0  0  0  0
    5.1160   -3.1345    1.1868 N   0  0  0  0  0  0  0  0  0  0  0  0
    5.1712   -3.0097    2.6397 C   0  0  0  0  0  0  0  0  0  0  0  0
    4.6304   -2.2474    0.3135 C   0  0  0  0  0  0  0  0  0  0  0  0
    4.0553   -1.1928    0.5484 O   0  0  0  0  0  0  0  0  0  0  0  0
    7.7245   -2.2294    1.1868 H   0  0  0  0  0  0  0  0  0  0  0  0
    8.9734   -2.7597    0.0769 H   0  0  0  0  0  0  0  0  0  0  0  0
    8.4388   -3.8404    1.3533 H   0  0  0  0  0  0  0  0  0  0  0  0
    6.8601   -1.6518   -1.0411 H   0  0  0  0  0  0  0  0  0  0  0  0
    6.8534   -2.9203   -2.2532 H   0  0  0  0  0  0  0  0  0  0  0  0
    2.9360   -3.9452   -2.5336 H   0  0  0  0  0  0  0  0  0  0  0  0
    1.6397   -3.0039   -4.3731 H   0  0  0  0  0  0  0  0  0  0  0  0
    2.0488   -0.6425   -5.1071 H   0  0  0  0  0  0  0  0  0  0  0  0
    3.2270    1.5440   -3.6636 H   0  0  0  0  0  0  0  0  0  0  0  0
    5.1216   -0.2340   -2.1404 H   0  0  0  0  0  0  0  0  0  0  0  0
    3.8768   -4.5915   -0.5234 H   0  0  0  0  0  0  0  0  0  0  0  0
    5.2546   -4.8850   -1.6139 H   0  0  0  0  0  0  0  0  0  0  0  0
    5.0363   -5.8561    1.4944 H   0  0  0  0  0  0  0  0  0  0  0  0
    6.6666   -5.4362    1.9980 H   0  0  0  0  0  0  0  0  0  0  0  0
    6.3860   -6.2778    0.4675 H   0  0  0  0  0  0  0  0  0  0  0  0
    4.6839   -2.0958    2.9796 H   0  0  0  0  0  0  0  0  0  0  0  0
    6.2073   -2.9726    2.9720 H   0  0  0  0  0  0  0  0  0  0  0  0
    4.6745   -3.8608    3.1064 H   0  0  0  0  0  0  0  0  0  0  0  0
    7.4803   -4.3859   -0.7758 H   0  0  0  0  0  0  0  0  0  0  0  0
  1  2  1  0
  1 19  1  0
  1 20  1  0
  1 21  1  0
  2 13  1  0
  2  3  1  0
  2 37  1  6
  3  4  1  0
  3 22  1  0
  3 23  1  0
  4 17  1  0
  4  5  1  6
  4 12  1  0
  5 11  1  0
  5  6  2  0
  6  7  1  0
  6 24  1  0
  7  8  2  0
  7 25  1  0
  8  9  1  0
  8 26  1  0
  9 10  1  0
  9 11  2  0
 10 27  1  0
 11 28  1  0
 12 13  1  0
 12 29  1  0
 12 30  1  0
 13 14  1  1
 13 15  1  0
 14 31  1  0
 14 32  1  0
 14 33  1  0
 15 16  1  0
 15 17  1  0
 16 34  1  0
 16 35  1  0
 16 36  1  0
 17 18  2  0
M  CHG  1   2   1
M  END
>  <i_m_ct_stereo_status>  (280) 
1

>  <s_m_source_file>  (280) 
/var/tmp/pbs.5076255.sched01/tmpyc7t0a4i/88yk12rjyo.sdf

>  <i_m_source_file_index>  (280) 
33

>  <i_lp_mmshare_version>  (280) 
48012

>  <i_f3d_flags>  (280) 
0

>  <s_epik_input>  (280) 
Tz1DMU4oW0NIM10pW0NAXShbQ0gyXTIpKFtDSDNdKU4oW0NIM10pW0NIMl1bQ0BdMTJjM1tjSF1bY0hdW2NIXWMoW09IXSlbY0hdMw==

>  <s_epik_cmdline>  (280) 
J2VwaWtfcHl0aG9uJywgJy1waHQnLCAnMi4wJywgJy1waCcsICc3LjAnLCAnLXRuJywgJzgnLCAnLW1hJywgJzIwMCcsICctaW1hZScsICc8aW5maWxlLm1hZT4nLCAnLW9tYWUnLCAnPG91dGZpbGUubWFlPic=

>  <r_lp_tautomer_probability>  (280) 
1

>  <r_epik_Ionization_Penalty>  (280) 
0.567473

>  <r_epik_Ionization_Penalty_Charging>  (280) 
0.561838

>  <r_epik_Ionization_Penalty_Neutral>  (280) 
0.00563518

>  <r_epik_State_Penalty>  (280) 
0.767383

>  <r_epik_Charging_Adjusted_Penalty>  (280) 
1.32922

>  <i_epik_Tot_Q>  (280) 
1

>  <i_epik_Tot_abs_Q>  (280) 
1

>  <s_lp_Force_Field>  (280) 
OPLS3e

>  <r_lp_Energy>  (280) 
28.7848

>  <b_lp_Chiralities_Consistent>  (280) 
1

>  <s_lp_Variant>  (280) 
79:0-2

>  <s_i_glide_gridfile>  (280) 
pfpi4k_grid

>  <i_i_glide_lignum>  (280) 
33

>  <i_i_glide_rotatable_bonds>  (280) 
2

>  <r_i_docking_score>  (280) 
-4.61469

>  <r_i_glide_ligand_efficiency>  (280) 
-0.256372

>  <r_i_glide_ligand_efficiency_sa>  (280) 
-0.671884

>  <r_i_glide_ligand_efficiency_ln>  (280) 
-1.18618

>  <r_i_glide_gscore>  (280) 
-4.61469

>  <r_i_glide_lipo>  (280) 
-0.786794

>  <r_i_glide_hbond>  (280) 
-0.32

>  <r_i_glide_metal>  (280) 
-0

>  <r_i_glide_rewards>  (280) 
-1.88197

>  <r_i_glide_evdw>  (280) 
-16.2129

>  <r_i_glide_ecoul>  (280) 
-7.32233

>  <r_i_glide_erotb>  (280) 
0.285232

>  <r_i_glide_esite>  (280) 
-0.00216118

>  <r_i_glide_emodel>  (280) 
-29.925

>  <r_i_glide_energy>  (280) 
-23.5353

>  <r_i_glide_einternal>  (280) 
3.35711

>  <r_i_glide_intrahb_reward>  (280) 
-0

>  <i_i_glide_confnum>  (280) 
1

>  <i_i_glide_posenum>  (280) 
34

>  <r_i_glide_eff_state_penalty>  (280) 
0

>  <ligand_id>  (280) 
79

>  <original_smiles>  (280) 
CN1CC2(c3cccc(O)c3)CC1(C)N(C)C2=O

>  <smiles>  (280) 
[H]Oc1c([H])c([H])c([H])c(C23C(=O)N(C([H])([H])[H])C(C([H])([H])[H])(C2([H])[H])[N+]([H])(C([H])([H])[H])C3([H])[H])c1[H]

$$$$
79:1:1
     RDKit          3D

 37 39  0  0  1  0  0  0  0  0999 V2000
    7.6953   -3.9407    0.8911 C   0  0  0  0  0  0  0  0  0  0  0  0
    6.4443   -4.2049    0.1401 N   0  0  2  0  0  0  0  0  0  0  0  0
    6.2217   -3.3004   -1.0302 C   0  0  0  0  0  0  0  0  0  0  0  0
    4.7774   -2.7863   -0.8162 C   0  0  1  0  0  0  0  0  0  0  0  0
    4.1223   -2.1500   -2.0389 C   0  0  0  0  0  0  0  0  0  0  0  0
    3.1587   -2.8618   -2.7879 C   0  0  0  0  0  0  0  0  0  0  0  0
    2.5711   -2.2816   -3.9158 C   0  0  0  0  0  0  0  0  0  0  0  0
    2.9234   -0.9759   -4.3148 C   0  0  0  0  0  0  0  0  0  0  0  0
    3.8666   -0.2567   -3.5695 C   0  0  0  0  0  0  0  0  0  0  0  0
    4.1912    1.0124   -3.9223 O   0  0  0  0  0  0  0  0  0  0  0  0
    4.4788   -0.8497   -2.4526 C   0  0  0  0  0  0  0  0  0  0  0  0
    4.1565   -4.0482   -0.2278 C   0  0  0  0  0  0  0  0  0  0  0  0
    5.1718   -4.0882    0.9141 C   0  0  1  0  0  0  0  0  0  0  0  0
    4.9143   -5.2347    1.9044 C   0  0  0  0  0  0  0  0  0  0  0  0
    4.9644   -2.7529    1.4840 N   0  0  0  0  0  0  0  0  0  0  0  0
    5.1911   -2.3798    2.8733 C   0  0  0  0  0  0  0  0  0  0  0  0
    4.7585   -1.9235    0.4580 C   0  0  0  0  0  0  0  0  0  0  0  0
    4.6285   -0.7009    0.5092 O   0  0  0  0  0  0  0  0  0  0  0  0
    7.7209   -2.9193    1.2686 H   0  0  0  0  0  0  0  0  0  0  0  0
    8.5655   -4.0777    0.2526 H   0  0  0  0  0  0  0  0  0  0  0  0
    7.7955   -4.6169    1.7385 H   0  0  0  0  0  0  0  0  0  0  0  0
    6.9356   -2.4799   -1.0633 H   0  0  0  0  0  0  0  0  0  0  0  0
    6.3263   -3.8542   -1.9641 H   0  0  0  0  0  0  0  0  0  0  0  0
    2.8360   -3.8495   -2.4962 H   0  0  0  0  0  0  0  0  0  0  0  0
    1.8081   -2.8312   -4.4487 H   0  0  0  0  0  0  0  0  0  0  0  0
    2.4337   -0.5115   -5.1608 H   0  0  0  0  0  0  0  0  0  0  0  0
    3.5133    1.6199   -3.6399 H   0  0  0  0  0  0  0  0  0  0  0  0
    5.2004   -0.2607   -1.8992 H   0  0  0  0  0  0  0  0  0  0  0  0
    3.1254   -3.9142    0.1059 H   0  0  0  0  0  0  0  0  0  0  0  0
    4.2166   -4.9149   -0.8897 H   0  0  0  0  0  0  0  0  0  0  0  0
    3.9258   -5.1177    2.3441 H   0  0  0  0  0  0  0  0  0  0  0  0
    5.6355   -5.2568    2.7245 H   0  0  0  0  0  0  0  0  0  0  0  0
    4.9245   -6.2071    1.4090 H   0  0  0  0  0  0  0  0  0  0  0  0
    5.1109   -1.3007    3.0188 H   0  0  0  0  0  0  0  0  0  0  0  0
    6.1953   -2.6720    3.1763 H   0  0  0  0  0  0  0  0  0  0  0  0
    4.4624   -2.8742    3.5173 H   0  0  0  0  0  0  0  0  0  0  0  0
    6.4944   -5.1509   -0.2172 H   0  0  0  0  0  0  0  0  0  0  0  0
  1  2  1  0
  1 19  1  0
  1 20  1  0
  1 21  1  0
  2 13  1  0
  2  3  1  0
  2 37  1  6
  3  4  1  0
  3 22  1  0
  3 23  1  0
  4 17  1  0
  4  5  1  6
  4 12  1  0
  5 11  1  0
  5  6  2  0
  6  7  1  0
  6 24  1  0
  7  8  2  0
  7 25  1  0
  8  9  1  0
  8 26  1  0
  9 10  1  0
  9 11  2  0
 10 27  1  0
 11 28  1  0
 12 13  1  0
 12 29  1  0
 12 30  1  0
 13 14  1  1
 13 15  1  0
 14 31  1  0
 14 32  1  0
 14 33  1  0
 15 16  1  0
 15 17  1  0
 16 34  1  0
 16 35  1  0
 16 36  1  0
 17 18  2  0
M  CHG  1   2   1
M  END
>  <i_m_ct_stereo_status>  (281) 
1

>  <s_m_source_file>  (281) 
/var/tmp/pbs.5076255.sched01/tmpyc7t0a4i/88yk12rjyo.sdf

>  <i_m_source_file_index>  (281) 
33

>  <i_lp_mmshare_version>  (281) 
48012

>  <i_f3d_flags>  (281) 
0

>  <s_epik_input>  (281) 
Tz1DMU4oW0NIM10pW0NAXShbQ0gyXTIpKFtDSDNdKU4oW0NIM10pW0NIMl1bQ0BdMTJjM1tjSF1bY0hdW2NIXWMoW09IXSlbY0hdMw==

>  <s_epik_cmdline>  (281) 
J2VwaWtfcHl0aG9uJywgJy1waHQnLCAnMi4wJywgJy1waCcsICc3LjAnLCAnLXRuJywgJzgnLCAnLW1hJywgJzIwMCcsICctaW1hZScsICc8aW5maWxlLm1hZT4nLCAnLW9tYWUnLCAnPG91dGZpbGUubWFlPic=

>  <r_lp_tautomer_probability>  (281) 
1

>  <r_epik_Ionization_Penalty>  (281) 
0.567473

>  <r_epik_Ionization_Penalty_Charging>  (281) 
0.561838

>  <r_epik_Ionization_Penalty_Neutral>  (281) 
0.00563518

>  <r_epik_State_Penalty>  (281) 
0.767383

>  <r_epik_Charging_Adjusted_Penalty>  (281) 
1.32922

>  <i_epik_Tot_Q>  (281) 
1

>  <i_epik_Tot_abs_Q>  (281) 
1

>  <s_lp_Force_Field>  (281) 
OPLS3e

>  <r_lp_Energy>  (281) 
28.7848

>  <b_lp_Chiralities_Consistent>  (281) 
1

>  <s_lp_Variant>  (281) 
79:0-2

>  <s_i_glide_gridfile>  (281) 
pfpi4k_grid

>  <i_i_glide_lignum>  (281) 
33

>  <i_i_glide_rotatable_bonds>  (281) 
2

>  <r_i_docking_score>  (281) 
-4.5377

>  <r_i_glide_ligand_efficiency>  (281) 
-0.252094

>  <r_i_glide_ligand_efficiency_sa>  (281) 
-0.660674

>  <r_i_glide_ligand_efficiency_ln>  (281) 
-1.16639

>  <r_i_glide_gscore>  (281) 
-4.5377

>  <r_i_glide_lipo>  (281) 
-0.763509

>  <r_i_glide_hbond>  (281) 
-0.32

>  <r_i_glide_metal>  (281) 
-0

>  <r_i_glide_rewards>  (281) 
-1.84277

>  <r_i_glide_evdw>  (281) 
-16.8325

>  <r_i_glide_ecoul>  (281) 
-7.03355

>  <r_i_glide_erotb>  (281) 
0.285232

>  <r_i_glide_esite>  (281) 
0

>  <r_i_glide_emodel>  (281) 
-29.6465

>  <r_i_glide_energy>  (281) 
-23.8661

>  <r_i_glide_einternal>  (281) 
3.99269

>  <r_i_glide_intrahb_reward>  (281) 
-0

>  <i_i_glide_confnum>  (281) 
3

>  <i_i_glide_posenum>  (281) 
6

>  <r_i_glide_eff_state_penalty>  (281) 
0

>  <ligand_id>  (281) 
79

>  <original_smiles>  (281) 
CN1CC2(c3cccc(O)c3)CC1(C)N(C)C2=O

>  <smiles>  (281) 
[H]Oc1c([H])c([H])c([H])c(C23C(=O)N(C([H])([H])[H])C(C([H])([H])[H])(C2([H])[H])[N+]([H])(C([H])([H])[H])C3([H])[H])c1[H]

$$$$
79:1:2
     RDKit          3D

 37 39  0  0  1  0  0  0  0  0999 V2000
    6.8865   -4.6902    1.5844 C   0  0  0  0  0  0  0  0  0  0  0  0
    5.6416   -4.8143    0.7891 N   0  0  2  0  0  0  0  0  0  0  0  0
    5.5888   -3.9380   -0.4221 C   0  0  0  0  0  0  0  0  0  0  0  0
    4.2270   -3.2219   -0.2905 C   0  0  1  0  0  0  0  0  0  0  0  0
    3.7167   -2.5551   -1.5693 C   0  0  0  0  0  0  0  0  0  0  0  0
    2.7153   -3.1830   -2.3504 C   0  0  0  0  0  0  0  0  0  0  0  0
    2.2628   -2.5889   -3.5391 C   0  0  0  0  0  0  0  0  0  0  0  0
    2.7810   -1.3405   -3.9310 C   0  0  0  0  0  0  0  0  0  0  0  0
    3.7569   -0.6886   -3.1604 C   0  0  0  0  0  0  0  0  0  0  0  0
    4.2055    0.5429   -3.5179 O   0  0  0  0  0  0  0  0  0  0  0  0
    4.2442   -1.3115   -1.9990 C   0  0  0  0  0  0  0  0  0  0  0  0
    3.4153   -4.3582    0.3186 C   0  0  0  0  0  0  0  0  0  0  0  0
    4.3682   -4.4894    1.5037 C   0  0  1  0  0  0  0  0  0  0  0  0
    3.9203   -5.5410    2.5256 C   0  0  0  0  0  0  0  0  0  0  0  0
    4.3341   -3.1190    2.0171 N   0  0  0  0  0  0  0  0  0  0  0  0
    4.5664   -2.7151    3.3992 C   0  0  0  0  0  0  0  0  0  0  0  0
    4.2787   -2.3085    0.9528 C   0  0  0  0  0  0  0  0  0  0  0  0
    4.3145   -1.0859    0.9564 O   0  0  0  0  0  0  0  0  0  0  0  0
    7.0309   -3.6635    1.9082 H   0  0  0  0  0  0  0  0  0  0  0  0
    7.7549   -4.9718    0.9965 H   0  0  0  0  0  0  0  0  0  0  0  0
    6.8653   -5.3261    2.4645 H   0  0  0  0  0  0  0  0  0  0  0  0
    6.4127   -3.2287   -0.4608 H   0  0  0  0  0  0  0  0  0  0  0  0
    5.6495   -4.5428   -1.3233 H   0  0  0  0  0  0  0  0  0  0  0  0
    2.2751   -4.1237   -2.0573 H   0  0  0  0  0  0  0  0  0  0  0  0
    1.4915   -3.0585   -4.1344 H   0  0  0  0  0  0  0  0  0  0  0  0
    2.3904   -0.8526   -4.8121 H   0  0  0  0  0  0  0  0  0  0  0  0
    3.5048    1.1911   -3.5204 H   0  0  0  0  0  0  0  0  0  0  0  0
    4.9890   -0.7844   -1.4201 H   0  0  0  0  0  0  0  0  0  0  0  0
    2.4046   -4.0640    0.6052 H   0  0  0  0  0  0  0  0  0  0  0  0
    3.3705   -5.2532   -0.3093 H   0  0  0  0  0  0  0  0  0  0  0  0
    2.9442   -5.2678    2.9164 H   0  0  0  0  0  0  0  0  0  0  0  0
    4.5974   -5.6271    3.3797 H   0  0  0  0  0  0  0  0  0  0  0  0
    3.8112   -6.5269    2.0727 H   0  0  0  0  0  0  0  0  0  0  0  0
    4.6261   -1.6297    3.4924 H   0  0  0  0  0  0  0  0  0  0  0  0
    5.5061   -3.1311    3.7726 H   0  0  0  0  0  0  0  0  0  0  0  0
    3.7429   -3.0665    4.0237 H   0  0  0  0  0  0  0  0  0  0  0  0
    5.5811   -5.7731    0.4690 H   0  0  0  0  0  0  0  0  0  0  0  0
  1  2  1  0
  1 19  1  0
  1 20  1  0
  1 21  1  0
  2 13  1  0
  2  3  1  0
  2 37  1  6
  3  4  1  0
  3 22  1  0
  3 23  1  0
  4 17  1  0
  4  5  1  6
  4 12  1  0
  5 11  1  0
  5  6  2  0
  6  7  1  0
  6 24  1  0
  7  8  2  0
  7 25  1  0
  8  9  1  0
  8 26  1  0
  9 10  1  0
  9 11  2  0
 10 27  1  0
 11 28  1  0
 12 13  1  0
 12 29  1  0
 12 30  1  0
 13 14  1  1
 13 15  1  0
 14 31  1  0
 14 32  1  0
 14 33  1  0
 15 16  1  0
 15 17  1  0
 16 34  1  0
 16 35  1  0
 16 36  1  0
 17 18  2  0
M  CHG  1   2   1
M  END
>  <i_m_ct_stereo_status>  (282) 
1

>  <s_m_source_file>  (282) 
/var/tmp/pbs.5076255.sched01/tmpyc7t0a4i/88yk12rjyo.sdf

>  <i_m_source_file_index>  (282) 
33

>  <i_lp_mmshare_version>  (282) 
48012

>  <i_f3d_flags>  (282) 
0

>  <s_epik_input>  (282) 
Tz1DMU4oW0NIM10pW0NAXShbQ0gyXTIpKFtDSDNdKU4oW0NIM10pW0NIMl1bQ0BdMTJjM1tjSF1bY0hdW2NIXWMoW09IXSlbY0hdMw==

>  <s_epik_cmdline>  (282) 
J2VwaWtfcHl0aG9uJywgJy1waHQnLCAnMi4wJywgJy1waCcsICc3LjAnLCAnLXRuJywgJzgnLCAnLW1hJywgJzIwMCcsICctaW1hZScsICc8aW5maWxlLm1hZT4nLCAnLW9tYWUnLCAnPG91dGZpbGUubWFlPic=

>  <r_lp_tautomer_probability>  (282) 
1

>  <r_epik_Ionization_Penalty>  (282) 
0.567473

>  <r_epik_Ionization_Penalty_Charging>  (282) 
0.561838

>  <r_epik_Ionization_Penalty_Neutral>  (282) 
0.00563518

>  <r_epik_State_Penalty>  (282) 
0.767383

>  <r_epik_Charging_Adjusted_Penalty>  (282) 
1.32922

>  <i_epik_Tot_Q>  (282) 
1

>  <i_epik_Tot_abs_Q>  (282) 
1

>  <s_lp_Force_Field>  (282) 
OPLS3e

>  <r_lp_Energy>  (282) 
28.7848

>  <b_lp_Chiralities_Consistent>  (282) 
1

>  <s_lp_Variant>  (282) 
79:0-2

>  <s_i_glide_gridfile>  (282) 
pfpi4k_grid

>  <i_i_glide_lignum>  (282) 
33

>  <i_i_glide_rotatable_bonds>  (282) 
2

>  <r_i_docking_score>  (282) 
-4.20618

>  <r_i_glide_ligand_efficiency>  (282) 
-0.233677

>  <r_i_glide_ligand_efficiency_sa>  (282) 
-0.612406

>  <r_i_glide_ligand_efficiency_ln>  (282) 
-1.08118

>  <r_i_glide_gscore>  (282) 
-4.20618

>  <r_i_glide_lipo>  (282) 
-0.677951

>  <r_i_glide_hbond>  (282) 
-0.32

>  <r_i_glide_metal>  (282) 
-0

>  <r_i_glide_rewards>  (282) 
-1.7687

>  <r_i_glide_evdw>  (282) 
-16.1578

>  <r_i_glide_ecoul>  (282) 
-6.0996

>  <r_i_glide_erotb>  (282) 
0.285232

>  <r_i_glide_esite>  (282) 
-0.00192247

>  <r_i_glide_emodel>  (282) 
-27.29

>  <r_i_glide_energy>  (282) 
-22.2574

>  <r_i_glide_einternal>  (282) 
3.70937

>  <r_i_glide_intrahb_reward>  (282) 
-0

>  <i_i_glide_confnum>  (282) 
1

>  <i_i_glide_posenum>  (282) 
13

>  <r_i_glide_eff_state_penalty>  (282) 
0

>  <ligand_id>  (282) 
79

>  <original_smiles>  (282) 
CN1CC2(c3cccc(O)c3)CC1(C)N(C)C2=O

>  <smiles>  (282) 
[H]Oc1c([H])c([H])c([H])c(C23C(=O)N(C([H])([H])[H])C(C([H])([H])[H])(C2([H])[H])[N+]([H])(C([H])([H])[H])C3([H])[H])c1[H]

$$$$
80:0:0
     RDKit          3D

 58 64  0  0  1  0  0  0  0  0999 V2000
    0.7478   -3.2565    7.9629 C   0  0  0  0  0  0  0  0  0  0  0  0
    0.1457   -1.9825    7.3910 C   0  0  0  0  0  0  0  0  0  0  0  0
   -0.8902   -2.0393    6.7428 O   0  0  0  0  0  0  0  0  0  0  0  0
    0.8474   -0.8840    7.7122 O   0  0  0  0  0  0  0  0  0  0  0  0
    0.5365    0.3975    7.1708 C   0  0  0  0  0  0  0  0  0  0  0  0
    1.2654    0.6501    5.8026 C   0  0  1  0  0  0  0  0  0  0  0  0
    2.7277    0.3890    6.2416 C   0  0  1  0  0  0  0  0  0  0  0  0
    3.2969   -0.8761    5.9616 O   0  0  0  0  0  0  0  0  0  0  0  0
    3.9385    0.2804    5.3610 C   0  0  1  0  0  0  0  0  0  0  0  0
    3.8353    0.5677    3.8713 C   0  0  1  0  0  0  0  0  0  0  0  0
    4.7435   -0.3229    3.2409 O   0  0  0  0  0  0  0  0  0  0  0  0
    2.3707    0.5815    3.2617 C   0  0  1  0  0  0  0  0  0  0  0  0
    2.5381    0.6047    1.6895 C   0  0  0  0  0  0  0  0  0  0  0  0
    1.6578   -0.7046    3.6491 C   0  0  1  0  0  0  0  0  0  0  0  0
    1.4449   -1.9238    2.7372 C   0  0  0  0  0  0  0  0  0  0  0  0
    2.4351   -1.9067    3.7598 O   0  0  0  0  0  0  0  0  0  0  0  0
    0.6218   -0.3342    4.5970 C   0  0  2  0  0  0  0  0  0  0  0  0
   -0.3883    0.3250    3.5294 C   0  0  0  0  0  0  0  0  0  0  0  0
   -0.1805    1.7567    3.9495 C   0  0  2  0  0  0  0  0  0  0  0  0
   -1.3763    1.5819    5.1324 C   0  0  0  0  0  0  0  0  0  0  0  0
   -1.4441    2.5700    6.3090 C   0  0  0  0  0  0  0  0  0  0  0  0
   -2.5459    2.4607    7.3466 C   0  0  0  0  0  0  0  0  0  0  0  0
   -0.4836    3.4804    6.3278 C   0  0  0  0  0  0  0  0  0  0  0  0
    0.4169    3.4352    5.1331 C   0  0  2  0  0  0  0  0  0  0  0  0
   -0.4970    3.2294    3.8168 C   0  0  0  0  0  0  0  0  0  0  0  0
    1.4883    2.1925    5.2419 C   0  0  2  0  0  0  0  0  0  0  0  0
    1.4866    1.8858    3.7832 C   0  0  1  0  0  0  0  0  0  0  0  0
    2.1004    3.0850    2.9337 C   0  0  0  0  0  0  0  0  0  0  0  0
    0.5768   -3.2670    9.0460 H   0  0  0  0  0  0  0  0  0  0  0  0
    1.8216   -3.3431    7.7487 H   0  0  0  0  0  0  0  0  0  0  0  0
    0.2408   -4.1280    7.5185 H   0  0  0  0  0  0  0  0  0  0  0  0
   -0.5281    0.5093    7.1944 H   0  0  0  0  0  0  0  0  0  0  0  0
    0.8596    1.1486    7.8938 H   0  0  0  0  0  0  0  0  0  0  0  0
    2.9798    0.7561    7.2494 H   0  0  0  0  0  0  0  0  0  0  0  0
    4.9007    0.5317    5.8125 H   0  0  0  0  0  0  0  0  0  0  0  0
    4.3092    1.5387    3.7228 H   0  0  0  0  0  0  0  0  0  0  0  0
    4.6055   -0.2732    2.3087 H   0  0  0  0  0  0  0  0  0  0  0  0
    1.5631    0.6569    1.1983 H   0  0  0  0  0  0  0  0  0  0  0  0
    3.0498   -0.2752    1.3026 H   0  0  0  0  0  0  0  0  0  0  0  0
    3.1591    1.4214    1.3085 H   0  0  0  0  0  0  0  0  0  0  0  0
    0.6095   -2.5961    2.9640 H   0  0  0  0  0  0  0  0  0  0  0  0
    1.8395   -1.9592    1.7090 H   0  0  0  0  0  0  0  0  0  0  0  0
    0.2873   -1.3018    4.8879 H   0  0  0  0  0  0  0  0  0  0  0  0
   -0.1717    0.1979    2.4594 H   0  0  0  0  0  0  0  0  0  0  0  0
   -1.3817   -0.0974    3.6352 H   0  0  0  0  0  0  0  0  0  0  0  0
   -2.3436    1.7146    4.6303 H   0  0  0  0  0  0  0  0  0  0  0  0
   -1.5170    0.5852    5.5540 H   0  0  0  0  0  0  0  0  0  0  0  0
   -2.5195    1.4921    7.8396 H   0  0  0  0  0  0  0  0  0  0  0  0
   -3.5265    2.5977    6.8910 H   0  0  0  0  0  0  0  0  0  0  0  0
   -2.4205    3.2280    8.1109 H   0  0  0  0  0  0  0  0  0  0  0  0
   -0.3555    4.2322    7.0900 H   0  0  0  0  0  0  0  0  0  0  0  0
    0.9095    4.4078    5.0978 H   0  0  0  0  0  0  0  0  0  0  0  0
   -0.1794    3.6654    2.8777 H   0  0  0  0  0  0  0  0  0  0  0  0
   -1.5398    3.5534    3.9135 H   0  0  0  0  0  0  0  0  0  0  0  0
    2.4498    2.6469    5.5652 H   0  0  0  0  0  0  0  0  0  0  0  0
    1.9333    4.1076    3.2849 H   0  0  0  0  0  0  0  0  0  0  0  0
    1.7290    3.0472    1.9063 H   0  0  0  0  0  0  0  0  0  0  0  0
    3.1804    3.0256    2.8638 H   0  0  0  0  0  0  0  0  0  0  0  0
  1  2  1  0
  1 29  1  0
  1 30  1  0
  1 31  1  0
  2  3  2  0
  2  4  1  0
  4  5  1  0
  6  5  1  1
  5 32  1  0
  5 33  1  0
  6 17  1  0
  6 26  1  0
  6  7  1  0
  7  9  1  0
  7  8  1  0
  7 34  1  1
  8  9  1  0
  9 10  1  0
  9 35  1  1
 10 11  1  0
 10 12  1  0
 10 36  1  1
 11 37  1  0
 12 27  1  0
 12 13  1  6
 12 14  1  0
 13 38  1  0
 13 39  1  0
 13 40  1  0
 14 16  1  1
 14 15  1  0
 14 17  1  0
 15 16  1  0
 15 41  1  0
 15 42  1  0
 17 18  1  0
 17 43  1  1
 18 19  1  0
 18 44  1  0
 18 45  1  0
 19 25  1  0
 19 27  1  0
 19 20  1  1
 20 21  1  0
 20 46  1  0
 20 47  1  0
 21 22  1  0
 21 23  2  0
 22 48  1  0
 22 49  1  0
 22 50  1  0
 23 24  1  0
 23 51  1  0
 24 25  1  0
 24 26  1  0
 24 52  1  6
 25 53  1  0
 25 54  1  0
 26 27  1  0
 26 55  1  1
 27 28  1  6
 28 56  1  0
 28 57  1  0
 28 58  1  0
M  END
>  <i_m_ct_stereo_status>  (283) 
1

>  <s_m_source_file>  (283) 
/var/tmp/pbs.5076255.sched01/tmpyc7t0a4i/88yk12rjyo.sdf

>  <i_m_source_file_index>  (283) 
34

>  <i_lp_mmshare_version>  (283) 
48012

>  <i_f3d_flags>  (283) 
0

>  <s_epik_input>  (283) 
W0NIMl0xQyhbQ0gzXSk9W0NIXVtDQEhdKFtDSDJdMilbQ0BIXTNbQ0BdKFtDSDJdT0MoPU8pW0NIM10pKFtDQEBIXTRbQ0BASF0oTzQpW0NASF01W09IXSlbQ0BIXTZbQ0gyXUMxMltDQF0zKFtDSDNdKVtDQF01KFtDSDNdKVtDQF02N1tDSDJdTzc=

>  <s_epik_cmdline>  (283) 
J2VwaWtfcHl0aG9uJywgJy1waHQnLCAnMi4wJywgJy1waCcsICc3LjAnLCAnLXRuJywgJzgnLCAnLW1hJywgJzIwMCcsICctaW1hZScsICc8aW5maWxlLm1hZT4nLCAnLW9tYWUnLCAnPG91dGZpbGUubWFlPic=

>  <r_lp_tautomer_probability>  (283) 
1

>  <r_epik_Ionization_Penalty>  (283) 
4.26211e-08

>  <r_epik_Ionization_Penalty_Charging>  (283) 
0

>  <r_epik_Ionization_Penalty_Neutral>  (283) 
4.26211e-08

>  <r_epik_State_Penalty>  (283) 
-0

>  <r_epik_Charging_Adjusted_Penalty>  (283) 
0

>  <i_epik_Tot_Q>  (283) 
0

>  <i_epik_Tot_abs_Q>  (283) 
0

>  <s_epik_Chemistry_Notes>  (283) 
This compound has an ester and may undergo hydrolysis at high or low pH.

>  <s_lp_Force_Field>  (283) 
OPLS3e

>  <r_lp_Energy>  (283) 
295.757

>  <b_lp_Chiralities_Consistent>  (283) 
1

>  <s_lp_Variant>  (283) 
80:0-1

>  <s_i_glide_gridfile>  (283) 
pfpi4k_grid

>  <i_i_glide_lignum>  (283) 
34

>  <i_i_glide_rotatable_bonds>  (283) 
4

>  <r_i_docking_score>  (283) 
-2.13519

>  <r_i_glide_ligand_efficiency>  (283) 
-0.0762568

>  <r_i_glide_ligand_efficiency_sa>  (283) 
-0.231561

>  <r_i_glide_ligand_efficiency_ln>  (283) 
-0.492865

>  <r_i_glide_gscore>  (283) 
-2.13519

>  <r_i_glide_lipo>  (283) 
-0.121877

>  <r_i_glide_hbond>  (283) 
0

>  <r_i_glide_metal>  (283) 
-0

>  <r_i_glide_rewards>  (283) 
-0.773991

>  <r_i_glide_evdw>  (283) 
-20.1413

>  <r_i_glide_ecoul>  (283) 
-2.97336

>  <r_i_glide_erotb>  (283) 
0.260616

>  <r_i_glide_esite>  (283) 
-0.0468692

>  <r_i_glide_emodel>  (283) 
-24.8401

>  <r_i_glide_energy>  (283) 
-23.1147

>  <r_i_glide_einternal>  (283) 
1.28709

>  <r_i_glide_intrahb_reward>  (283) 
-0

>  <i_i_glide_confnum>  (283) 
2

>  <i_i_glide_posenum>  (283) 
11

>  <r_i_glide_eff_state_penalty>  (283) 
0

>  <ligand_id>  (283) 
80

>  <original_smiles>  (283) 
CC(=O)OCC12C3OC3C(O)C3(C)C4(CO4)C1CC14CC(C)=CC(C1)C2C43C

>  <smiles>  (283) 
[H]OC1([H])C2([H])OC2([H])C2(C([H])([H])OC(=O)C([H])([H])[H])C3([H])C([H])([H])C45C([H])([H])C(C([H])([H])[H])=C([H])C([H])(C4([H])[H])C2([H])C5(C([H])([H])[H])C1(C([H])([H])[H])C31OC1([H])[H]

$$$$
80:0:1
     RDKit          3D

 58 64  0  0  1  0  0  0  0  0999 V2000
   -0.3914    1.8188   10.0547 C   0  0  0  0  0  0  0  0  0  0  0  0
   -0.5810    1.8456    8.5450 C   0  0  0  0  0  0  0  0  0  0  0  0
   -1.5931    1.3718    8.0261 O   0  0  0  0  0  0  0  0  0  0  0  0
    0.4686    2.4066    7.8929 O   0  0  0  0  0  0  0  0  0  0  0  0
    0.4619    2.5356    6.4675 C   0  0  0  0  0  0  0  0  0  0  0  0
    1.3922    1.4791    5.7369 C   0  0  1  0  0  0  0  0  0  0  0  0
    2.7431    1.9311    6.2978 C   0  0  1  0  0  0  0  0  0  0  0  0
    3.3531    1.1597    7.3512 O   0  0  0  0  0  0  0  0  0  0  0  0
    4.0794    1.2316    6.0817 C   0  0  1  0  0  0  0  0  0  0  0  0
    4.1795    0.0197    5.1831 C   0  0  1  0  0  0  0  0  0  0  0  0
    5.1684   -0.8480    5.7328 O   0  0  0  0  0  0  0  0  0  0  0  0
    2.8288   -0.7019    4.7946 C   0  0  1  0  0  0  0  0  0  0  0  0
    3.2252   -2.0603    4.1022 C   0  0  0  0  0  0  0  0  0  0  0  0
    2.0535   -1.0145    6.0815 C   0  0  1  0  0  0  0  0  0  0  0  0
    1.9190   -2.3688    6.7772 C   0  0  0  0  0  0  0  0  0  0  0  0
    2.7539   -1.3468    7.2997 O   0  0  0  0  0  0  0  0  0  0  0  0
    0.8926   -0.0978    6.0765 C   0  0  2  0  0  0  0  0  0  0  0  0
    0.0328   -0.8962    4.9483 C   0  0  0  0  0  0  0  0  0  0  0  0
    0.2116    0.1097    3.8484 C   0  0  2  0  0  0  0  0  0  0  0  0
   -1.1321    0.9432    4.4138 C   0  0  0  0  0  0  0  0  0  0  0  0
   -1.3466    2.4051    4.0006 C   0  0  0  0  0  0  0  0  0  0  0  0
   -2.5812    3.1531    4.4715 C   0  0  0  0  0  0  0  0  0  0  0  0
   -0.3780    2.9399    3.2929 C   0  0  0  0  0  0  0  0  0  0  0  0
    0.6824    1.9682    2.8881 C   0  0  2  0  0  0  0  0  0  0  0  0
   -0.0424    0.5904    2.4489 C   0  0  0  0  0  0  0  0  0  0  0  0
    1.6950    1.6675    4.1261 C   0  0  2  0  0  0  0  0  0  0  0  0
    1.8923    0.2285    3.7829 C   0  0  1  0  0  0  0  0  0  0  0  0
    2.6411    0.0694    2.3869 C   0  0  0  0  0  0  0  0  0  0  0  0
   -0.2457    2.8297   10.4354 H   0  0  0  0  0  0  0  0  0  0  0  0
    0.4751    1.2120   10.3164 H   0  0  0  0  0  0  0  0  0  0  0  0
   -1.2690    1.3931   10.5435 H   0  0  0  0  0  0  0  0  0  0  0  0
   -0.5699    2.5550    6.1767 H   0  0  0  0  0  0  0  0  0  0  0  0
    0.7959    3.5460    6.2315 H   0  0  0  0  0  0  0  0  0  0  0  0
    2.8732    2.9987    6.4024 H   0  0  0  0  0  0  0  0  0  0  0  0
    4.9525    1.8615    6.1258 H   0  0  0  0  0  0  0  0  0  0  0  0
    4.6825    0.3739    4.2808 H   0  0  0  0  0  0  0  0  0  0  0  0
    5.9073   -0.3466    5.9917 H   0  0  0  0  0  0  0  0  0  0  0  0
    2.3444   -2.6040    3.7755 H   0  0  0  0  0  0  0  0  0  0  0  0
    3.7991   -2.7140    4.7534 H   0  0  0  0  0  0  0  0  0  0  0  0
    3.8725   -1.9346    3.2377 H   0  0  0  0  0  0  0  0  0  0  0  0
    1.0547   -2.5732    7.4059 H   0  0  0  0  0  0  0  0  0  0  0  0
    2.4624   -3.2395    6.4311 H   0  0  0  0  0  0  0  0  0  0  0  0
    0.4349   -0.1840    7.0584 H   0  0  0  0  0  0  0  0  0  0  0  0
    0.4222   -1.8638    4.6381 H   0  0  0  0  0  0  0  0  0  0  0  0
   -0.9763   -1.1414    5.2858 H   0  0  0  0  0  0  0  0  0  0  0  0
   -2.0164    0.4347    4.0223 H   0  0  0  0  0  0  0  0  0  0  0  0
   -1.3404    0.8994    5.4812 H   0  0  0  0  0  0  0  0  0  0  0  0
   -2.6478    3.1678    5.5601 H   0  0  0  0  0  0  0  0  0  0  0  0
   -3.4838    2.6892    4.0718 H   0  0  0  0  0  0  0  0  0  0  0  0
   -2.5501    4.1844    4.1193 H   0  0  0  0  0  0  0  0  0  0  0  0
   -0.3471    3.9637    2.9375 H   0  0  0  0  0  0  0  0  0  0  0  0
    1.1833    2.4299    2.0360 H   0  0  0  0  0  0  0  0  0  0  0  0
    0.4086   -0.0025    1.6585 H   0  0  0  0  0  0  0  0  0  0  0  0
   -1.0736    0.7062    2.1018 H   0  0  0  0  0  0  0  0  0  0  0  0
    2.5998    2.2540    3.9491 H   0  0  0  0  0  0  0  0  0  0  0  0
    2.4471    0.8083    1.6180 H   0  0  0  0  0  0  0  0  0  0  0  0
    2.4064   -0.8941    1.9337 H   0  0  0  0  0  0  0  0  0  0  0  0
    3.7213    0.1138    2.4804 H   0  0  0  0  0  0  0  0  0  0  0  0
  1  2  1  0
  1 29  1  0
  1 30  1  0
  1 31  1  0
  2  3  2  0
  2  4  1  0
  4  5  1  0
  6  5  1  1
  5 32  1  0
  5 33  1  0
  6 17  1  0
  6 26  1  0
  6  7  1  0
  7  9  1  0
  7  8  1  0
  7 34  1  1
  8  9  1  0
  9 10  1  0
  9 35  1  1
 10 11  1  0
 10 12  1  0
 10 36  1  6
 11 37  1  0
 12 27  1  0
 12 13  1  6
 12 14  1  0
 13 38  1  0
 13 39  1  0
 13 40  1  0
 14 16  1  1
 14 15  1  0
 14 17  1  0
 15 16  1  0
 15 41  1  0
 15 42  1  0
 17 18  1  0
 17 43  1  1
 18 19  1  0
 18 44  1  0
 18 45  1  0
 19 25  1  0
 19 27  1  0
 19 20  1  1
 20 21  1  0
 20 46  1  0
 20 47  1  0
 21 22  1  0
 21 23  2  0
 22 48  1  0
 22 49  1  0
 22 50  1  0
 23 24  1  0
 23 51  1  0
 24 25  1  0
 24 26  1  0
 24 52  1  6
 25 53  1  0
 25 54  1  0
 26 27  1  0
 26 55  1  1
 27 28  1  6
 28 56  1  0
 28 57  1  0
 28 58  1  0
M  END
>  <i_m_ct_stereo_status>  (284) 
1

>  <s_m_source_file>  (284) 
/var/tmp/pbs.5076255.sched01/tmpyc7t0a4i/88yk12rjyo.sdf

>  <i_m_source_file_index>  (284) 
34

>  <i_lp_mmshare_version>  (284) 
48012

>  <i_f3d_flags>  (284) 
0

>  <s_epik_input>  (284) 
W0NIMl0xQyhbQ0gzXSk9W0NIXVtDQEhdKFtDSDJdMilbQ0BIXTNbQ0BdKFtDSDJdT0MoPU8pW0NIM10pKFtDQEBIXTRbQ0BASF0oTzQpW0NASF01W09IXSlbQ0BIXTZbQ0gyXUMxMltDQF0zKFtDSDNdKVtDQF01KFtDSDNdKVtDQF02N1tDSDJdTzc=

>  <s_epik_cmdline>  (284) 
J2VwaWtfcHl0aG9uJywgJy1waHQnLCAnMi4wJywgJy1waCcsICc3LjAnLCAnLXRuJywgJzgnLCAnLW1hJywgJzIwMCcsICctaW1hZScsICc8aW5maWxlLm1hZT4nLCAnLW9tYWUnLCAnPG91dGZpbGUubWFlPic=

>  <r_lp_tautomer_probability>  (284) 
1

>  <r_epik_Ionization_Penalty>  (284) 
4.26211e-08

>  <r_epik_Ionization_Penalty_Charging>  (284) 
0

>  <r_epik_Ionization_Penalty_Neutral>  (284) 
4.26211e-08

>  <r_epik_State_Penalty>  (284) 
-0

>  <r_epik_Charging_Adjusted_Penalty>  (284) 
0

>  <i_epik_Tot_Q>  (284) 
0

>  <i_epik_Tot_abs_Q>  (284) 
0

>  <s_epik_Chemistry_Notes>  (284) 
This compound has an ester and may undergo hydrolysis at high or low pH.

>  <s_lp_Force_Field>  (284) 
OPLS3e

>  <r_lp_Energy>  (284) 
295.757

>  <b_lp_Chiralities_Consistent>  (284) 
1

>  <s_lp_Variant>  (284) 
80:0-1

>  <s_i_glide_gridfile>  (284) 
pfpi4k_grid

>  <i_i_glide_lignum>  (284) 
34

>  <i_i_glide_rotatable_bonds>  (284) 
4

>  <r_i_docking_score>  (284) 
-2.0331

>  <r_i_glide_ligand_efficiency>  (284) 
-0.0726109

>  <r_i_glide_ligand_efficiency_sa>  (284) 
-0.220489

>  <r_i_glide_ligand_efficiency_ln>  (284) 
-0.4693

>  <r_i_glide_gscore>  (284) 
-2.0331

>  <r_i_glide_lipo>  (284) 
-0.00395059

>  <r_i_glide_hbond>  (284) 
-0.0583557

>  <r_i_glide_metal>  (284) 
-0

>  <r_i_glide_rewards>  (284) 
-0.773991

>  <r_i_glide_evdw>  (284) 
-21.5153

>  <r_i_glide_ecoul>  (284) 
-2.427

>  <r_i_glide_erotb>  (284) 
0.260616

>  <r_i_glide_esite>  (284) 
-0.0176062

>  <r_i_glide_emodel>  (284) 
-26.1047

>  <r_i_glide_energy>  (284) 
-23.9423

>  <r_i_glide_einternal>  (284) 
1.73127

>  <r_i_glide_intrahb_reward>  (284) 
-0

>  <i_i_glide_confnum>  (284) 
2

>  <i_i_glide_posenum>  (284) 
18

>  <r_i_glide_eff_state_penalty>  (284) 
0

>  <ligand_id>  (284) 
80

>  <original_smiles>  (284) 
CC(=O)OCC12C3OC3C(O)C3(C)C4(CO4)C1CC14CC(C)=CC(C1)C2C43C

>  <smiles>  (284) 
[H]OC1([H])C2([H])OC2([H])C2(C([H])([H])OC(=O)C([H])([H])[H])C3([H])C([H])([H])C45C([H])([H])C(C([H])([H])[H])=C([H])C([H])(C4([H])[H])C2([H])C5(C([H])([H])[H])C1(C([H])([H])[H])C31OC1([H])[H]

$$$$
80:0:2
     RDKit          3D

 58 64  0  0  1  0  0  0  0  0999 V2000
   -2.7137    2.9421    7.5423 C   0  0  0  0  0  0  0  0  0  0  0  0
   -1.6667    3.6706    8.3788 C   0  0  0  0  0  0  0  0  0  0  0  0
   -1.8574    3.9150    9.5849 O   0  0  0  0  0  0  0  0  0  0  0  0
   -0.5172    4.0114    7.7126 O   0  0  0  0  0  0  0  0  0  0  0  0
   -0.2589    3.7164    6.3157 C   0  0  0  0  0  0  0  0  0  0  0  0
    0.9526    2.7212    6.1057 C   0  0  1  0  0  0  0  0  0  0  0  0
    2.1161    3.6163    6.6118 C   0  0  1  0  0  0  0  0  0  0  0  0
    2.6437    3.4074    7.9150 O   0  0  0  0  0  0  0  0  0  0  0  0
    3.5438    3.2094    6.7998 C   0  0  1  0  0  0  0  0  0  0  0  0
    4.0216    1.8157    6.4124 C   0  0  1  0  0  0  0  0  0  0  0  0
    5.0077    1.4716    7.3657 O   0  0  0  0  0  0  0  0  0  0  0  0
    2.9068    0.7232    6.1855 C   0  0  1  0  0  0  0  0  0  0  0  0
    3.6345   -0.6638    6.0872 C   0  0  0  0  0  0  0  0  0  0  0  0
    1.9871    0.7154    7.4050 C   0  0  1  0  0  0  0  0  0  0  0  0
    2.0020   -0.3433    8.5232 C   0  0  0  0  0  0  0  0  0  0  0  0
    2.5327    0.9616    8.7130 O   0  0  0  0  0  0  0  0  0  0  0  0
    0.6914    1.2830    6.9472 C   0  0  2  0  0  0  0  0  0  0  0  0
    0.1985   -0.0281    6.1071 C   0  0  0  0  0  0  0  0  0  0  0  0
    0.3837    0.5496    4.7323 C   0  0  2  0  0  0  0  0  0  0  0  0
   -1.1894    1.1641    4.7982 C   0  0  0  0  0  0  0  0  0  0  0  0
   -1.5924    2.3289    3.8818 C   0  0  0  0  0  0  0  0  0  0  0  0
   -2.9795    2.9327    3.8972 C   0  0  0  0  0  0  0  0  0  0  0  0
   -0.5904    2.8181    3.1264 C   0  0  0  0  0  0  0  0  0  0  0  0
    0.6861    2.0435    3.2237 C   0  0  2  0  0  0  0  0  0  0  0  0
    0.3142    0.4621    3.2257 C   0  0  0  0  0  0  0  0  0  0  0  0
    1.5182    2.4010    4.5882 C   0  0  2  0  0  0  0  0  0  0  0  0
    2.0093    1.0116    4.8189 C   0  0  1  0  0  0  0  0  0  0  0  0
    3.0037    0.5787    3.6540 C   0  0  0  0  0  0  0  0  0  0  0  0
   -2.2520    2.0178    7.2618 H   0  0  0  0  0  0  0  0  0  0  0  0
   -2.9760    3.5919    6.6950 H   0  0  0  0  0  0  0  0  0  0  0  0
   -3.6219    2.6927    8.0715 H   0  0  0  0  0  0  0  0  0  0  0  0
   -1.1786    3.3878    5.8725 H   0  0  0  0  0  0  0  0  0  0  0  0
   -0.0065    4.6664    5.8307 H   0  0  0  0  0  0  0  0  0  0  0  0
    2.0242    4.6684    6.3321 H   0  0  0  0  0  0  0  0  0  0  0  0
    4.2948    3.9980    6.6907 H   0  0  0  0  0  0  0  0  0  0  0  0
    4.5994    1.9472    5.5025 H   0  0  0  0  0  0  0  0  0  0  0  0
    5.3473    0.6174    7.1547 H   0  0  0  0  0  0  0  0  0  0  0  0
    2.9239   -1.4672    5.8754 H   0  0  0  0  0  0  0  0  0  0  0  0
    4.1391   -0.9247    7.0186 H   0  0  0  0  0  0  0  0  0  0  0  0
    4.4040   -0.6969    5.3073 H   0  0  0  0  0  0  0  0  0  0  0  0
    1.0884   -0.5247    9.1187 H   0  0  0  0  0  0  0  0  0  0  0  0
    2.7646   -1.1277    8.4935 H   0  0  0  0  0  0  0  0  0  0  0  0
    0.0949    1.4412    7.8443 H   0  0  0  0  0  0  0  0  0  0  0  0
    0.8012   -0.9341    6.2491 H   0  0  0  0  0  0  0  0  0  0  0  0
   -0.7943   -0.3664    6.4205 H   0  0  0  0  0  0  0  0  0  0  0  0
   -1.8547    0.3369    4.4849 H   0  0  0  0  0  0  0  0  0  0  0  0
   -1.5308    1.4797    5.7451 H   0  0  0  0  0  0  0  0  0  0  0  0
   -3.2508    3.2981    4.8816 H   0  0  0  0  0  0  0  0  0  0  0  0
   -3.7055    2.1610    3.6422 H   0  0  0  0  0  0  0  0  0  0  0  0
   -3.0664    3.7558    3.1706 H   0  0  0  0  0  0  0  0  0  0  0  0
   -0.6851    3.6814    2.4861 H   0  0  0  0  0  0  0  0  0  0  0  0
    1.2412    2.3068    2.3123 H   0  0  0  0  0  0  0  0  0  0  0  0
    0.9880   -0.2469    2.7551 H   0  0  0  0  0  0  0  0  0  0  0  0
   -0.6432    0.2063    2.7474 H   0  0  0  0  0  0  0  0  0  0  0  0
    2.3126    3.1021    4.2973 H   0  0  0  0  0  0  0  0  0  0  0  0
    2.8132    0.9588    2.6457 H   0  0  0  0  0  0  0  0  0  0  0  0
    3.0213   -0.5107    3.5640 H   0  0  0  0  0  0  0  0  0  0  0  0
    4.0309    0.8974    3.8328 H   0  0  0  0  0  0  0  0  0  0  0  0
  1  2  1  0
  1 29  1  0
  1 30  1  0
  1 31  1  0
  2  3  2  0
  2  4  1  0
  4  5  1  0
  6  5  1  6
  5 32  1  0
  5 33  1  0
  6 17  1  0
  6 26  1  0
  6  7  1  0
  7  9  1  0
  7  8  1  0
  7 34  1  1
  8  9  1  0
  9 10  1  0
  9 35  1  1
 10 11  1  0
 10 12  1  0
 10 36  1  6
 11 37  1  0
 12 27  1  0
 12 13  1  6
 12 14  1  0
 13 38  1  0
 13 39  1  0
 13 40  1  0
 14 16  1  1
 14 15  1  0
 14 17  1  0
 15 16  1  0
 15 41  1  0
 15 42  1  0
 17 18  1  0
 17 43  1  1
 18 19  1  0
 18 44  1  0
 18 45  1  0
 19 25  1  0
 19 27  1  0
 19 20  1  1
 20 21  1  0
 20 46  1  0
 20 47  1  0
 21 22  1  0
 21 23  2  0
 22 48  1  0
 22 49  1  0
 22 50  1  0
 23 24  1  0
 23 51  1  0
 24 25  1  0
 24 26  1  0
 24 52  1  6
 25 53  1  0
 25 54  1  0
 26 27  1  0
 26 55  1  6
 27 28  1  6
 28 56  1  0
 28 57  1  0
 28 58  1  0
M  END
>  <i_m_ct_stereo_status>  (285) 
1

>  <s_m_source_file>  (285) 
/var/tmp/pbs.5076255.sched01/tmpyc7t0a4i/88yk12rjyo.sdf

>  <i_m_source_file_index>  (285) 
34

>  <i_lp_mmshare_version>  (285) 
48012

>  <i_f3d_flags>  (285) 
0

>  <s_epik_input>  (285) 
W0NIMl0xQyhbQ0gzXSk9W0NIXVtDQEhdKFtDSDJdMilbQ0BIXTNbQ0BdKFtDSDJdT0MoPU8pW0NIM10pKFtDQEBIXTRbQ0BASF0oTzQpW0NASF01W09IXSlbQ0BIXTZbQ0gyXUMxMltDQF0zKFtDSDNdKVtDQF01KFtDSDNdKVtDQF02N1tDSDJdTzc=

>  <s_epik_cmdline>  (285) 
J2VwaWtfcHl0aG9uJywgJy1waHQnLCAnMi4wJywgJy1waCcsICc3LjAnLCAnLXRuJywgJzgnLCAnLW1hJywgJzIwMCcsICctaW1hZScsICc8aW5maWxlLm1hZT4nLCAnLW9tYWUnLCAnPG91dGZpbGUubWFlPic=

>  <r_lp_tautomer_probability>  (285) 
1

>  <r_epik_Ionization_Penalty>  (285) 
4.26211e-08

>  <r_epik_Ionization_Penalty_Charging>  (285) 
0

>  <r_epik_Ionization_Penalty_Neutral>  (285) 
4.26211e-08

>  <r_epik_State_Penalty>  (285) 
-0

>  <r_epik_Charging_Adjusted_Penalty>  (285) 
0

>  <i_epik_Tot_Q>  (285) 
0

>  <i_epik_Tot_abs_Q>  (285) 
0

>  <s_epik_Chemistry_Notes>  (285) 
This compound has an ester and may undergo hydrolysis at high or low pH.

>  <s_lp_Force_Field>  (285) 
OPLS3e

>  <r_lp_Energy>  (285) 
295.757

>  <b_lp_Chiralities_Consistent>  (285) 
1

>  <s_lp_Variant>  (285) 
80:0-1

>  <s_i_glide_gridfile>  (285) 
pfpi4k_grid

>  <i_i_glide_lignum>  (285) 
34

>  <i_i_glide_rotatable_bonds>  (285) 
4

>  <r_i_docking_score>  (285) 
-1.5498

>  <r_i_glide_ligand_efficiency>  (285) 
-0.0553499

>  <r_i_glide_ligand_efficiency_sa>  (285) 
-0.168075

>  <r_i_glide_ligand_efficiency_ln>  (285) 
-0.357739

>  <r_i_glide_gscore>  (285) 
-1.5498

>  <r_i_glide_lipo>  (285) 
-0.148999

>  <r_i_glide_hbond>  (285) 
0

>  <r_i_glide_metal>  (285) 
-0

>  <r_i_glide_rewards>  (285) 
-0.773991

>  <r_i_glide_evdw>  (285) 
-18.4392

>  <r_i_glide_ecoul>  (285) 
0.256888

>  <r_i_glide_erotb>  (285) 
0.260616

>  <r_i_glide_esite>  (285) 
-0.0039939

>  <r_i_glide_emodel>  (285) 
-15.1715

>  <r_i_glide_energy>  (285) 
-18.1823

>  <r_i_glide_einternal>  (285) 
7.53674

>  <r_i_glide_intrahb_reward>  (285) 
-0

>  <i_i_glide_confnum>  (285) 
2

>  <i_i_glide_posenum>  (285) 
12

>  <r_i_glide_eff_state_penalty>  (285) 
0

>  <ligand_id>  (285) 
80

>  <original_smiles>  (285) 
CC(=O)OCC12C3OC3C(O)C3(C)C4(CO4)C1CC14CC(C)=CC(C1)C2C43C

>  <smiles>  (285) 
[H]OC1([H])C2([H])OC2([H])C2(C([H])([H])OC(=O)C([H])([H])[H])C3([H])C([H])([H])C45C([H])([H])C(C([H])([H])[H])=C([H])C([H])(C4([H])[H])C2([H])C5(C([H])([H])[H])C1(C([H])([H])[H])C31OC1([H])[H]

$$$$
81:0:0
     RDKit          3D

 55 59  0  0  1  0  0  0  0  0999 V2000
    1.0046    0.9838    2.0799 C   0  0  0  0  0  0  0  0  0  0  0  0
    2.4919    1.3053    2.2578 C   0  0  0  0  0  0  0  0  0  0  0  0
    3.2450    0.5305    1.3314 O   0  0  0  0  0  0  0  0  0  0  0  0
    4.2377   -0.2758    1.7512 C   0  0  0  0  0  0  0  0  0  0  0  0
    4.6841   -0.3227    2.8976 O   0  0  0  0  0  0  0  0  0  0  0  0
    4.8331   -1.1400    0.6238 C   0  0  2  0  0  0  0  0  0  0  0  0
    3.8387   -1.6540   -0.4405 C   0  0  0  0  0  0  0  0  0  0  0  0
    4.0437   -3.1849   -0.5146 C   0  0  2  0  0  0  0  0  0  0  0  0
    3.0462   -3.8586    0.4875 C   0  0  1  0  0  0  0  0  0  0  0  0
    2.7152   -5.3260    0.1463 C   0  0  0  0  0  0  0  0  0  0  0  0
    2.1329   -6.1274    1.2849 C   0  0  0  0  0  0  0  0  0  0  0  0
    2.1462   -5.7550    2.5745 C   0  0  0  0  0  0  0  0  0  0  0  0
    1.5454   -6.6430    3.6553 C   0  0  0  0  0  0  0  0  0  0  0  0
    0.5612   -5.8401    4.4989 C   0  0  0  0  0  0  0  0  0  0  0  0
   -0.5666   -6.2556    4.7575 O   0  0  0  0  0  0  0  0  0  0  0  0
    1.0600   -4.4952    5.0216 C   0  0  0  0  0  0  0  0  0  0  0  0
    1.6896   -3.6565    3.8909 C   0  0  0  0  0  0  0  0  0  0  0  0
    2.7456   -4.4367    3.0669 C   0  0  2  0  0  0  0  0  0  0  0  0
    3.4201   -3.5511    1.9666 C   0  0  1  0  0  0  0  0  0  0  0  0
    4.9551   -3.3530    2.1536 C   0  0  1  0  0  0  0  0  0  0  0  0
    5.7086   -4.6712    1.9219 C   0  0  0  0  0  0  0  0  0  0  0  0
    6.0204   -4.6992    0.4227 C   0  0  0  0  0  0  0  0  0  0  0  0
    5.5535   -3.3389   -0.1376 C   0  0  1  0  0  0  0  0  0  0  0  0
    6.4907   -2.9012   -1.2897 C   0  0  0  0  0  0  0  0  0  0  0  0
    5.5898   -2.4152    1.0783 C   0  0  1  0  0  0  0  0  0  0  0  0
    0.4002    1.5640    2.7759 H   0  0  0  0  0  0  0  0  0  0  0  0
    0.8061   -0.0736    2.2566 H   0  0  0  0  0  0  0  0  0  0  0  0
    0.6631    1.2209    1.0689 H   0  0  0  0  0  0  0  0  0  0  0  0
    2.6760    2.3641    2.0764 H   0  0  0  0  0  0  0  0  0  0  0  0
    2.7769    1.1159    3.2927 H   0  0  0  0  0  0  0  0  0  0  0  0
    5.5475   -0.4953    0.1107 H   0  0  0  0  0  0  0  0  0  0  0  0
    2.8084   -1.3928   -0.2183 H   0  0  0  0  0  0  0  0  0  0  0  0
    4.0704   -1.1951   -1.4023 H   0  0  0  0  0  0  0  0  0  0  0  0
    3.8454   -3.5474   -1.5245 H   0  0  0  0  0  0  0  0  0  0  0  0
    2.0838   -3.3689    0.3403 H   0  0  0  0  0  0  0  0  0  0  0  0
    1.9821   -5.3299   -0.6621 H   0  0  0  0  0  0  0  0  0  0  0  0
    3.5709   -5.8773   -0.2289 H   0  0  0  0  0  0  0  0  0  0  0  0
    1.7135   -7.0857    1.0072 H   0  0  0  0  0  0  0  0  0  0  0  0
    1.0378   -7.4999    3.2119 H   0  0  0  0  0  0  0  0  0  0  0  0
    2.3355   -7.0283    4.2964 H   0  0  0  0  0  0  0  0  0  0  0  0
    0.2337   -3.9561    5.4820 H   0  0  0  0  0  0  0  0  0  0  0  0
    1.7927   -4.6863    5.8051 H   0  0  0  0  0  0  0  0  0  0  0  0
    0.8980   -3.2938    3.2337 H   0  0  0  0  0  0  0  0  0  0  0  0
    2.1492   -2.7686    4.3294 H   0  0  0  0  0  0  0  0  0  0  0  0
    3.5221   -4.7314    3.7732 H   0  0  0  0  0  0  0  0  0  0  0  0
    2.9958   -2.5647    2.1380 H   0  0  0  0  0  0  0  0  0  0  0  0
    5.1475   -2.9731    3.1568 H   0  0  0  0  0  0  0  0  0  0  0  0
    6.6453   -4.6569    2.4805 H   0  0  0  0  0  0  0  0  0  0  0  0
    5.1562   -5.5539    2.2452 H   0  0  0  0  0  0  0  0  0  0  0  0
    7.0994   -4.8044    0.3063 H   0  0  0  0  0  0  0  0  0  0  0  0
    5.5933   -5.5482   -0.1008 H   0  0  0  0  0  0  0  0  0  0  0  0
    7.5324   -2.8835   -0.9668 H   0  0  0  0  0  0  0  0  0  0  0  0
    6.2560   -1.9112   -1.6769 H   0  0  0  0  0  0  0  0  0  0  0  0
    6.4207   -3.5965   -2.1268 H   0  0  0  0  0  0  0  0  0  0  0  0
    6.6159   -2.1726    1.3595 H   0  0  0  0  0  0  0  0  0  0  0  0
  1  2  1  0
  1 26  1  0
  1 27  1  0
  1 28  1  0
  2  3  1  0
  2 29  1  0
  2 30  1  0
  3  4  1  0
  4  5  2  0
  4  6  1  0
  6 25  1  0
  6  7  1  0
  6 31  1  6
  7  8  1  0
  7 32  1  0
  7 33  1  0
  8 23  1  0
  8  9  1  0
  8 34  1  6
  9 19  1  0
  9 10  1  0
  9 35  1  6
 10 11  1  0
 10 36  1  0
 10 37  1  0
 11 12  2  0
 11 38  1  0
 12 18  1  0
 12 13  1  0
 13 14  1  0
 13 39  1  0
 13 40  1  0
 14 15  2  0
 14 16  1  0
 16 17  1  0
 16 41  1  0
 16 42  1  0
 17 18  1  0
 17 43  1  0
 17 44  1  0
 18 19  1  0
 18 45  1  1
 19 20  1  0
 19 46  1  1
 20 25  1  0
 20 21  1  0
 20 47  1  1
 21 22  1  0
 21 48  1  0
 21 49  1  0
 22 23  1  0
 22 50  1  0
 22 51  1  0
 23 24  1  6
 23 25  1  0
 24 52  1  0
 24 53  1  0
 24 54  1  0
 25 55  1  1
M  END
>  <i_m_ct_stereo_status>  (286) 
1

>  <s_m_source_file>  (286) 
/var/tmp/pbs.5076255.sched01/tmpyc7t0a4i/88yk12rjyo.sdf

>  <i_m_source_file_index>  (286) 
35

>  <i_lp_mmshare_version>  (286) 
48012

>  <i_f3d_flags>  (286) 
0

>  <s_epik_input>  (286) 
W0NIM11bQ0gyXU9DKD1PKVtDQEhdKFtDSDJdMSlbQ0BIXTJbQ0BIXShbQ0gyXVtDSDJdMylbQ0BASF0oW0NASF00W0NAQEhdMVtDQEBdMjNbQ0gzXSlbQ0BASF01Qyg9W0NIXVtDSDJdNClbQ0gyXUMoPU8pW0NIMl1bQ0gyXTU=

>  <s_epik_cmdline>  (286) 
J2VwaWtfcHl0aG9uJywgJy1waHQnLCAnMi4wJywgJy1waCcsICc3LjAnLCAnLXRuJywgJzgnLCAnLW1hJywgJzIwMCcsICctaW1hZScsICc8aW5maWxlLm1hZT4nLCAnLW9tYWUnLCAnPG91dGZpbGUubWFlPic=

>  <r_lp_tautomer_probability>  (286) 
1

>  <r_epik_Ionization_Penalty>  (286) 
1.79314e-13

>  <r_epik_Ionization_Penalty_Charging>  (286) 
0

>  <r_epik_Ionization_Penalty_Neutral>  (286) 
1.79314e-13

>  <r_epik_State_Penalty>  (286) 
-0

>  <r_epik_Charging_Adjusted_Penalty>  (286) 
0

>  <i_epik_Tot_Q>  (286) 
0

>  <i_epik_Tot_abs_Q>  (286) 
0

>  <s_epik_Chemistry_Notes>  (286) 
This compound has an ester and may undergo hydrolysis at high or low pH.

>  <s_lp_Force_Field>  (286) 
OPLS3e

>  <r_lp_Energy>  (286) 
53.9451

>  <b_lp_Chiralities_Consistent>  (286) 
1

>  <s_lp_Variant>  (286) 
81:0-1

>  <s_i_glide_gridfile>  (286) 
pfpi4k_grid

>  <i_i_glide_lignum>  (286) 
35

>  <i_i_glide_rotatable_bonds>  (286) 
3

>  <r_i_docking_score>  (286) 
-3.01954

>  <r_i_glide_ligand_efficiency>  (286) 
-0.120782

>  <r_i_glide_ligand_efficiency_sa>  (286) 
-0.353167

>  <r_i_glide_ligand_efficiency_ln>  (286) 
-0.715721

>  <r_i_glide_gscore>  (286) 
-3.01954

>  <r_i_glide_lipo>  (286) 
-0.432685

>  <r_i_glide_hbond>  (286) 
0

>  <r_i_glide_metal>  (286) 
-0

>  <r_i_glide_rewards>  (286) 
-1.19524

>  <r_i_glide_evdw>  (286) 
-28.0645

>  <r_i_glide_ecoul>  (286) 
-1.97677

>  <r_i_glide_erotb>  (286) 
0.32336

>  <r_i_glide_esite>  (286) 
-0.015237

>  <r_i_glide_emodel>  (286) 
-34.9119

>  <r_i_glide_energy>  (286) 
-30.0413

>  <r_i_glide_einternal>  (286) 
1.46112

>  <r_i_glide_intrahb_reward>  (286) 
-0

>  <i_i_glide_confnum>  (286) 
1

>  <i_i_glide_posenum>  (286) 
23

>  <r_i_glide_eff_state_penalty>  (286) 
0

>  <ligand_id>  (286) 
81

>  <original_smiles>  (286) 
CCOC(=O)C1CC2C3CC=C4CC(=O)CCC4C3C3CCC2(C)C13

>  <smiles>  (286) 
[H]C1=C2C([H])([H])C(=O)C([H])([H])C([H])([H])C2([H])C2([H])C([H])(C1([H])[H])C1([H])C([H])([H])C([H])(C(=O)OC([H])([H])C([H])([H])[H])C3([H])C2([H])C([H])([H])C([H])([H])C13C([H])([H])[H]

$$$$
81:0:1
     RDKit          3D

 55 59  0  0  1  0  0  0  0  0999 V2000
    8.6406   -6.2383    2.4928 C   0  0  0  0  0  0  0  0  0  0  0  0
    8.2643   -6.2241    1.0102 C   0  0  0  0  0  0  0  0  0  0  0  0
    7.4556   -5.0964    0.8321 O   0  0  0  0  0  0  0  0  0  0  0  0
    7.7849   -3.9882    0.1881 C   0  0  0  0  0  0  0  0  0  0  0  0
    8.8584   -3.8366   -0.4105 O   0  0  0  0  0  0  0  0  0  0  0  0
    6.7315   -2.8770    0.2600 C   0  0  2  0  0  0  0  0  0  0  0  0
    6.1984   -2.5513    1.6732 C   0  0  0  0  0  0  0  0  0  0  0  0
    4.6523   -2.5108    1.5920 C   0  0  2  0  0  0  0  0  0  0  0  0
    4.0564   -3.9159    1.9480 C   0  0  1  0  0  0  0  0  0  0  0  0
    2.6101   -3.9160    2.4642 C   0  0  0  0  0  0  0  0  0  0  0  0
    1.9275   -5.2708    2.3983 C   0  0  0  0  0  0  0  0  0  0  0  0
    2.3812   -6.3356    1.6960 C   0  0  0  0  0  0  0  0  0  0  0  0
    1.6281   -7.6597    1.6853 C   0  0  0  0  0  0  0  0  0  0  0  0
    2.5690   -8.8106    2.0520 C   0  0  0  0  0  0  0  0  0  0  0  0
    2.2458   -9.6591    2.8756 O   0  0  0  0  0  0  0  0  0  0  0  0
    3.9120   -8.8677    1.3283 C   0  0  0  0  0  0  0  0  0  0  0  0
    4.5973   -7.4922    1.3374 C   0  0  0  0  0  0  0  0  0  0  0  0
    3.6588   -6.3347    0.8758 C   0  0  2  0  0  0  0  0  0  0  0  0
    4.4238   -4.9755    0.8760 C   0  0  1  0  0  0  0  0  0  0  0  0
    4.5938   -4.3424   -0.5483 C   0  0  1  0  0  0  0  0  0  0  0  0
    3.2341   -3.8562   -1.0690 C   0  0  0  0  0  0  0  0  0  0  0  0
    3.0980   -2.4309   -0.5435 C   0  0  0  0  0  0  0  0  0  0  0  0
    4.4413   -2.0872    0.1109 C   0  0  1  0  0  0  0  0  0  0  0  0
    4.7234   -0.5893   -0.0949 C   0  0  0  0  0  0  0  0  0  0  0  0
    5.4340   -3.0278   -0.5715 C   0  0  1  0  0  0  0  0  0  0  0  0
    9.2807   -7.0748    2.7653 H   0  0  0  0  0  0  0  0  0  0  0  0
    7.7432   -6.2957    3.1119 H   0  0  0  0  0  0  0  0  0  0  0  0
    9.1473   -5.3119    2.7534 H   0  0  0  0  0  0  0  0  0  0  0  0
    9.1470   -6.2891    0.3507 H   0  0  0  0  0  0  0  0  0  0  0  0
    7.6767   -7.1117    0.7937 H   0  0  0  0  0  0  0  0  0  0  0  0
    7.2481   -1.9826   -0.0951 H   0  0  0  0  0  0  0  0  0  0  0  0
    6.5523   -3.2436    2.4313 H   0  0  0  0  0  0  0  0  0  0  0  0
    6.5776   -1.5685    1.9472 H   0  0  0  0  0  0  0  0  0  0  0  0
    4.2623   -1.7557    2.2785 H   0  0  0  0  0  0  0  0  0  0  0  0
    4.6042   -4.2487    2.8293 H   0  0  0  0  0  0  0  0  0  0  0  0
    2.6150   -3.5972    3.5093 H   0  0  0  0  0  0  0  0  0  0  0  0
    1.9849   -3.2111    1.9282 H   0  0  0  0  0  0  0  0  0  0  0  0
    1.0073   -5.3497    2.9475 H   0  0  0  0  0  0  0  0  0  0  0  0
    0.7899   -7.6254    2.3781 H   0  0  0  0  0  0  0  0  0  0  0  0
    1.2436   -7.8459    0.6790 H   0  0  0  0  0  0  0  0  0  0  0  0
    4.5442   -9.6376    1.7807 H   0  0  0  0  0  0  0  0  0  0  0  0
    3.7366   -9.1976    0.3097 H   0  0  0  0  0  0  0  0  0  0  0  0
    4.9863   -7.3096    2.3425 H   0  0  0  0  0  0  0  0  0  0  0  0
    5.4713   -7.5501    0.6908 H   0  0  0  0  0  0  0  0  0  0  0  0
    3.3833   -6.5727   -0.1539 H   0  0  0  0  0  0  0  0  0  0  0  0
    5.3620   -5.2811    1.2495 H   0  0  0  0  0  0  0  0  0  0  0  0
    5.0231   -5.0716   -1.2278 H   0  0  0  0  0  0  0  0  0  0  0  0
    3.2202   -3.8408   -2.1641 H   0  0  0  0  0  0  0  0  0  0  0  0
    2.4036   -4.4810   -0.7374 H   0  0  0  0  0  0  0  0  0  0  0  0
    2.9152   -1.7851   -1.4017 H   0  0  0  0  0  0  0  0  0  0  0  0
    2.2481   -2.2839    0.1161 H   0  0  0  0  0  0  0  0  0  0  0  0
    4.6771   -0.3265   -1.1502 H   0  0  0  0  0  0  0  0  0  0  0  0
    5.6975   -0.2734    0.2761 H   0  0  0  0  0  0  0  0  0  0  0  0
    3.9722    0.0204    0.4111 H   0  0  0  0  0  0  0  0  0  0  0  0
    5.6113   -2.7011   -1.5993 H   0  0  0  0  0  0  0  0  0  0  0  0
  1  2  1  0
  1 26  1  0
  1 27  1  0
  1 28  1  0
  2  3  1  0
  2 29  1  0
  2 30  1  0
  3  4  1  0
  4  5  2  0
  4  6  1  0
  6 25  1  0
  6  7  1  0
  6 31  1  6
  7  8  1  0
  7 32  1  0
  7 33  1  0
  8 23  1  0
  8  9  1  0
  8 34  1  1
  9 19  1  0
  9 10  1  0
  9 35  1  1
 10 11  1  0
 10 36  1  0
 10 37  1  0
 11 12  2  0
 11 38  1  0
 12 18  1  0
 12 13  1  0
 13 14  1  0
 13 39  1  0
 13 40  1  0
 14 15  2  0
 14 16  1  0
 16 17  1  0
 16 41  1  0
 16 42  1  0
 17 18  1  0
 17 43  1  0
 17 44  1  0
 18 19  1  0
 18 45  1  6
 19 20  1  0
 19 46  1  1
 20 25  1  0
 20 21  1  0
 20 47  1  6
 21 22  1  0
 21 48  1  0
 21 49  1  0
 22 23  1  0
 22 50  1  0
 22 51  1  0
 23 24  1  1
 23 25  1  0
 24 52  1  0
 24 53  1  0
 24 54  1  0
 25 55  1  6
M  END
>  <i_m_ct_stereo_status>  (287) 
1

>  <s_m_source_file>  (287) 
/var/tmp/pbs.5076255.sched01/tmpyc7t0a4i/88yk12rjyo.sdf

>  <i_m_source_file_index>  (287) 
35

>  <i_lp_mmshare_version>  (287) 
48012

>  <i_f3d_flags>  (287) 
0

>  <s_epik_input>  (287) 
W0NIM11bQ0gyXU9DKD1PKVtDQEhdKFtDSDJdMSlbQ0BIXTJbQ0BIXShbQ0gyXVtDSDJdMylbQ0BASF0oW0NASF00W0NAQEhdMVtDQEBdMjNbQ0gzXSlbQ0BASF01Qyg9W0NIXVtDSDJdNClbQ0gyXUMoPU8pW0NIMl1bQ0gyXTU=

>  <s_epik_cmdline>  (287) 
J2VwaWtfcHl0aG9uJywgJy1waHQnLCAnMi4wJywgJy1waCcsICc3LjAnLCAnLXRuJywgJzgnLCAnLW1hJywgJzIwMCcsICctaW1hZScsICc8aW5maWxlLm1hZT4nLCAnLW9tYWUnLCAnPG91dGZpbGUubWFlPic=

>  <r_lp_tautomer_probability>  (287) 
1

>  <r_epik_Ionization_Penalty>  (287) 
1.79314e-13

>  <r_epik_Ionization_Penalty_Charging>  (287) 
0

>  <r_epik_Ionization_Penalty_Neutral>  (287) 
1.79314e-13

>  <r_epik_State_Penalty>  (287) 
-0

>  <r_epik_Charging_Adjusted_Penalty>  (287) 
0

>  <i_epik_Tot_Q>  (287) 
0

>  <i_epik_Tot_abs_Q>  (287) 
0

>  <s_epik_Chemistry_Notes>  (287) 
This compound has an ester and may undergo hydrolysis at high or low pH.

>  <s_lp_Force_Field>  (287) 
OPLS3e

>  <r_lp_Energy>  (287) 
53.9451

>  <b_lp_Chiralities_Consistent>  (287) 
1

>  <s_lp_Variant>  (287) 
81:0-1

>  <s_i_glide_gridfile>  (287) 
pfpi4k_grid

>  <i_i_glide_lignum>  (287) 
35

>  <i_i_glide_rotatable_bonds>  (287) 
3

>  <r_i_docking_score>  (287) 
-2.9389

>  <r_i_glide_ligand_efficiency>  (287) 
-0.117556

>  <r_i_glide_ligand_efficiency_sa>  (287) 
-0.343736

>  <r_i_glide_ligand_efficiency_ln>  (287) 
-0.696609

>  <r_i_glide_gscore>  (287) 
-2.9389

>  <r_i_glide_lipo>  (287) 
-0.414046

>  <r_i_glide_hbond>  (287) 
-0.0709128

>  <r_i_glide_metal>  (287) 
-0

>  <r_i_glide_rewards>  (287) 
-1.3022

>  <r_i_glide_evdw>  (287) 
-26.5709

>  <r_i_glide_ecoul>  (287) 
-0.918882

>  <r_i_glide_erotb>  (287) 
0.32336

>  <r_i_glide_esite>  (287) 
-0.00873162

>  <r_i_glide_emodel>  (287) 
-31.0115

>  <r_i_glide_energy>  (287) 
-27.4898

>  <r_i_glide_einternal>  (287) 
1.91437

>  <r_i_glide_intrahb_reward>  (287) 
-0

>  <i_i_glide_confnum>  (287) 
2

>  <i_i_glide_posenum>  (287) 
22

>  <r_i_glide_eff_state_penalty>  (287) 
0

>  <ligand_id>  (287) 
81

>  <original_smiles>  (287) 
CCOC(=O)C1CC2C3CC=C4CC(=O)CCC4C3C3CCC2(C)C13

>  <smiles>  (287) 
[H]C1=C2C([H])([H])C(=O)C([H])([H])C([H])([H])C2([H])C2([H])C([H])(C1([H])[H])C1([H])C([H])([H])C([H])(C(=O)OC([H])([H])C([H])([H])[H])C3([H])C2([H])C([H])([H])C([H])([H])C13C([H])([H])[H]

$$$$
81:0:2
     RDKit          3D

 55 59  0  0  1  0  0  0  0  0999 V2000
    0.6701    0.4140    4.6534 C   0  0  0  0  0  0  0  0  0  0  0  0
    2.0325    1.1145    4.7819 C   0  0  0  0  0  0  0  0  0  0  0  0
    2.8667    0.7502    3.6914 O   0  0  0  0  0  0  0  0  0  0  0  0
    3.6309   -0.3545    3.7748 C   0  0  0  0  0  0  0  0  0  0  0  0
    3.7267   -1.0715    4.7730 O   0  0  0  0  0  0  0  0  0  0  0  0
    4.4186   -0.6367    2.4816 C   0  0  2  0  0  0  0  0  0  0  0  0
    3.5940   -0.6448    1.1746 C   0  0  0  0  0  0  0  0  0  0  0  0
    3.9629   -1.9665    0.4605 C   0  0  2  0  0  0  0  0  0  0  0  0
    2.9434   -3.0636    0.9039 C   0  0  1  0  0  0  0  0  0  0  0  0
    2.8268   -4.2402   -0.0921 C   0  0  0  0  0  0  0  0  0  0  0  0
    2.2066   -5.4865    0.4848 C   0  0  0  0  0  0  0  0  0  0  0  0
    2.0476   -5.7395    1.7971 C   0  0  0  0  0  0  0  0  0  0  0  0
    1.4115   -7.0354    2.2817 C   0  0  0  0  0  0  0  0  0  0  0  0
    0.2624   -6.7126    3.2254 C   0  0  0  0  0  0  0  0  0  0  0  0
   -0.8748   -7.1571    3.0513 O   0  0  0  0  0  0  0  0  0  0  0  0
    0.5721   -5.7455    4.3641 C   0  0  0  0  0  0  0  0  0  0  0  0
    1.2351   -4.4608    3.8236 C   0  0  0  0  0  0  0  0  0  0  0  0
    2.4436   -4.7511    2.9003 C   0  0  2  0  0  0  0  0  0  0  0  0
    3.1247   -3.4351    2.4071 C   0  0  1  0  0  0  0  0  0  0  0  0
    4.5981   -3.2872    2.8797 C   0  0  1  0  0  0  0  0  0  0  0  0
    5.4901   -4.3317    2.1945 C   0  0  0  0  0  0  0  0  0  0  0  0
    5.9775   -3.6643    0.9050 C   0  0  0  0  0  0  0  0  0  0  0  0
    5.4307   -2.2223    0.9443 C   0  0  1  0  0  0  0  0  0  0  0  0
    6.4398   -1.2777    0.2587 C   0  0  0  0  0  0  0  0  0  0  0  0
    5.2434   -1.9458    2.4325 C   0  0  1  0  0  0  0  0  0  0  0  0
    0.0148    0.6930    5.4794 H   0  0  0  0  0  0  0  0  0  0  0  0
    0.7627   -0.6759    4.6598 H   0  0  0  0  0  0  0  0  0  0  0  0
    0.1741    0.7000    3.7247 H   0  0  0  0  0  0  0  0  0  0  0  0
    1.8982    2.1970    4.7604 H   0  0  0  0  0  0  0  0  0  0  0  0
    2.4993    0.8747    5.7393 H   0  0  0  0  0  0  0  0  0  0  0  0
    5.1310    0.1817    2.3966 H   0  0  0  0  0  0  0  0  0  0  0  0
    2.5215   -0.5362    1.3371 H   0  0  0  0  0  0  0  0  0  0  0  0
    3.9049    0.1971    0.5596 H   0  0  0  0  0  0  0  0  0  0  0  0
    3.9231   -1.8445   -0.6235 H   0  0  0  0  0  0  0  0  0  0  0  0
    1.9528   -2.6072    0.8500 H   0  0  0  0  0  0  0  0  0  0  0  0
    2.1919   -3.9145   -0.9197 H   0  0  0  0  0  0  0  0  0  0  0  0
    3.7795   -4.5381   -0.5239 H   0  0  0  0  0  0  0  0  0  0  0  0
    1.9231   -6.2248   -0.2577 H   0  0  0  0  0  0  0  0  0  0  0  0
    1.0504   -7.6198    1.4403 H   0  0  0  0  0  0  0  0  0  0  0  0
    2.1508   -7.6504    2.7868 H   0  0  0  0  0  0  0  0  0  0  0  0
   -0.3529   -5.4947    4.8749 H   0  0  0  0  0  0  0  0  0  0  0  0
    1.2226   -6.2317    5.0922 H   0  0  0  0  0  0  0  0  0  0  0  0
    0.4993   -3.8639    3.2806 H   0  0  0  0  0  0  0  0  0  0  0  0
    1.5491   -3.8360    4.6630 H   0  0  0  0  0  0  0  0  0  0  0  0
    3.1623   -5.2967    3.5131 H   0  0  0  0  0  0  0  0  0  0  0  0
    2.5798   -2.6486    2.9251 H   0  0  0  0  0  0  0  0  0  0  0  0
    4.6407   -3.3957    3.9617 H   0  0  0  0  0  0  0  0  0  0  0  0
    6.3436   -4.5372    2.8414 H   0  0  0  0  0  0  0  0  0  0  0  0
    4.9895   -5.2828    2.0043 H   0  0  0  0  0  0  0  0  0  0  0  0
    7.0656   -3.6488    0.9264 H   0  0  0  0  0  0  0  0  0  0  0  0
    5.7160   -4.2001    0.0015 H   0  0  0  0  0  0  0  0  0  0  0  0
    7.4252   -1.3618    0.7150 H   0  0  0  0  0  0  0  0  0  0  0  0
    6.1499   -0.2300    0.3184 H   0  0  0  0  0  0  0  0  0  0  0  0
    6.5271   -1.5435   -0.7917 H   0  0  0  0  0  0  0  0  0  0  0  0
    6.2120   -1.8050    2.9100 H   0  0  0  0  0  0  0  0  0  0  0  0
  1  2  1  0
  1 26  1  0
  1 27  1  0
  1 28  1  0
  2  3  1  0
  2 29  1  0
  2 30  1  0
  3  4  1  0
  4  5  2  0
  4  6  1  0
  6 25  1  0
  6  7  1  0
  6 31  1  6
  7  8  1  0
  7 32  1  0
  7 33  1  0
  8 23  1  0
  8  9  1  0
  8 34  1  6
  9 19  1  0
  9 10  1  0
  9 35  1  1
 10 11  1  0
 10 36  1  0
 10 37  1  0
 11 12  2  0
 11 38  1  0
 12 18  1  0
 12 13  1  0
 13 14  1  0
 13 39  1  0
 13 40  1  0
 14 15  2  0
 14 16  1  0
 16 17  1  0
 16 41  1  0
 16 42  1  0
 17 18  1  0
 17 43  1  0
 17 44  1  0
 18 19  1  0
 18 45  1  1
 19 20  1  0
 19 46  1  1
 20 25  1  0
 20 21  1  0
 20 47  1  1
 21 22  1  0
 21 48  1  0
 21 49  1  0
 22 23  1  0
 22 50  1  0
 22 51  1  0
 23 24  1  6
 23 25  1  0
 24 52  1  0
 24 53  1  0
 24 54  1  0
 25 55  1  1
M  END
>  <i_m_ct_stereo_status>  (288) 
1

>  <s_m_source_file>  (288) 
/var/tmp/pbs.5076255.sched01/tmpyc7t0a4i/88yk12rjyo.sdf

>  <i_m_source_file_index>  (288) 
35

>  <i_lp_mmshare_version>  (288) 
48012

>  <i_f3d_flags>  (288) 
0

>  <s_epik_input>  (288) 
W0NIM11bQ0gyXU9DKD1PKVtDQEhdKFtDSDJdMSlbQ0BIXTJbQ0BIXShbQ0gyXVtDSDJdMylbQ0BASF0oW0NASF00W0NAQEhdMVtDQEBdMjNbQ0gzXSlbQ0BASF01Qyg9W0NIXVtDSDJdNClbQ0gyXUMoPU8pW0NIMl1bQ0gyXTU=

>  <s_epik_cmdline>  (288) 
J2VwaWtfcHl0aG9uJywgJy1waHQnLCAnMi4wJywgJy1waCcsICc3LjAnLCAnLXRuJywgJzgnLCAnLW1hJywgJzIwMCcsICctaW1hZScsICc8aW5maWxlLm1hZT4nLCAnLW9tYWUnLCAnPG91dGZpbGUubWFlPic=

>  <r_lp_tautomer_probability>  (288) 
1

>  <r_epik_Ionization_Penalty>  (288) 
1.79314e-13

>  <r_epik_Ionization_Penalty_Charging>  (288) 
0

>  <r_epik_Ionization_Penalty_Neutral>  (288) 
1.79314e-13

>  <r_epik_State_Penalty>  (288) 
-0

>  <r_epik_Charging_Adjusted_Penalty>  (288) 
0

>  <i_epik_Tot_Q>  (288) 
0

>  <i_epik_Tot_abs_Q>  (288) 
0

>  <s_epik_Chemistry_Notes>  (288) 
This compound has an ester and may undergo hydrolysis at high or low pH.

>  <s_lp_Force_Field>  (288) 
OPLS3e

>  <r_lp_Energy>  (288) 
53.9451

>  <b_lp_Chiralities_Consistent>  (288) 
1

>  <s_lp_Variant>  (288) 
81:0-1

>  <s_i_glide_gridfile>  (288) 
pfpi4k_grid

>  <i_i_glide_lignum>  (288) 
35

>  <i_i_glide_rotatable_bonds>  (288) 
3

>  <r_i_docking_score>  (288) 
-2.6905

>  <r_i_glide_ligand_efficiency>  (288) 
-0.10762

>  <r_i_glide_ligand_efficiency_sa>  (288) 
-0.314683

>  <r_i_glide_ligand_efficiency_ln>  (288) 
-0.63773

>  <r_i_glide_gscore>  (288) 
-2.6905

>  <r_i_glide_lipo>  (288) 
-0.340413

>  <r_i_glide_hbond>  (288) 
-0.111357

>  <r_i_glide_metal>  (288) 
-0

>  <r_i_glide_rewards>  (288) 
-1.08646

>  <r_i_glide_evdw>  (288) 
-24.6319

>  <r_i_glide_ecoul>  (288) 
-1.24389

>  <r_i_glide_erotb>  (288) 
0.32336

>  <r_i_glide_esite>  (288) 
-0.0574585

>  <r_i_glide_emodel>  (288) 
-30.7202

>  <r_i_glide_energy>  (288) 
-25.8758

>  <r_i_glide_einternal>  (288) 
0.291005

>  <r_i_glide_intrahb_reward>  (288) 
-0

>  <i_i_glide_confnum>  (288) 
1

>  <i_i_glide_posenum>  (288) 
33

>  <r_i_glide_eff_state_penalty>  (288) 
0

>  <ligand_id>  (288) 
81

>  <original_smiles>  (288) 
CCOC(=O)C1CC2C3CC=C4CC(=O)CCC4C3C3CCC2(C)C13

>  <smiles>  (288) 
[H]C1=C2C([H])([H])C(=O)C([H])([H])C([H])([H])C2([H])C2([H])C([H])(C1([H])[H])C1([H])C([H])([H])C([H])(C(=O)OC([H])([H])C([H])([H])[H])C3([H])C2([H])C([H])([H])C([H])([H])C13C([H])([H])[H]

$$$$
82:0:0
     RDKit          3D

 47 53  0  0  1  0  0  0  0  0999 V2000
    1.9706   -8.2048    1.6500 C   0  0  0  0  0  0  0  0  0  0  0  0
    3.0088   -7.2444    1.2794 N   0  0  0  0  0  0  0  0  0  0  0  0
    2.3687   -5.9335    0.9916 C   0  0  0  0  0  0  0  0  0  0  0  0
    3.3123   -4.8312    0.5397 C   0  0  0  0  0  0  0  0  0  0  0  0
    4.4113   -4.5026    1.2218 C   0  0  0  0  0  0  0  0  0  0  0  0
    5.6664   -4.0376    0.6299 C   0  0  0  0  0  0  0  0  0  0  0  0
    5.9476   -3.0779   -0.3553 C   0  0  0  0  0  0  0  0  0  0  0  0
    7.2270   -2.7880   -0.7048 N   0  0  0  0  0  0  0  0  0  0  0  0
    8.2331   -3.4716   -0.0996 C   0  0  0  0  0  0  0  0  0  0  0  0
    8.0396   -4.4891    0.8665 C   0  0  0  0  0  0  0  0  0  0  0  0
    6.7059   -4.7789    1.2083 C   0  0  0  0  0  0  0  0  0  0  0  0
    6.1301   -5.8314    2.1558 C   0  0  1  0  0  0  0  0  0  0  0  0
    5.5530   -7.0962    1.4248 C   0  0  1  0  0  0  0  0  0  0  0  0
    6.5023   -8.3059    1.4827 C   0  0  0  0  0  0  0  0  0  0  0  0
    6.9243   -8.6431    2.9174 C   0  0  0  0  0  0  0  0  0  0  0  0
    7.5361   -7.4752    3.5869 N   0  0  1  0  0  0  0  0  0  0  0  0
    8.9428   -7.2662    3.1693 C   0  0  0  0  0  0  0  0  0  0  0  0
    6.7085   -6.2335    3.5346 C   0  0  2  0  0  0  0  0  0  0  0  0
    5.3345   -6.2897    4.3011 C   0  0  1  0  0  0  0  0  0  0  0  0
    5.1757   -4.9505    4.7735 O   0  0  0  0  0  0  0  0  0  0  0  0
    4.8890   -4.1565    3.7381 C   0  0  0  0  0  0  0  0  0  0  0  0
    4.6843   -2.9445    3.7205 O   0  0  0  0  0  0  0  0  0  0  0  0
    4.8236   -5.1107    2.5445 C   0  0  1  0  0  0  0  0  0  0  0  0
    4.1910   -6.2912    3.2178 C   0  0  1  0  0  0  0  0  0  0  0  0
    4.2031   -7.3600    2.1462 C   0  0  1  0  0  0  0  0  0  0  0  0
    1.1751   -8.2204    0.9050 H   0  0  0  0  0  0  0  0  0  0  0  0
    1.5259   -7.9633    2.6119 H   0  0  0  0  0  0  0  0  0  0  0  0
    2.3704   -9.2180    1.6960 H   0  0  0  0  0  0  0  0  0  0  0  0
    1.6558   -6.0816    0.1823 H   0  0  0  0  0  0  0  0  0  0  0  0
    1.7965   -5.5785    1.8409 H   0  0  0  0  0  0  0  0  0  0  0  0
    3.2073   -4.5102   -0.4889 H   0  0  0  0  0  0  0  0  0  0  0  0
    5.1603   -2.5295   -0.8518 H   0  0  0  0  0  0  0  0  0  0  0  0
    9.2331   -3.2060   -0.4090 H   0  0  0  0  0  0  0  0  0  0  0  0
    8.8741   -4.9982    1.3217 H   0  0  0  0  0  0  0  0  0  0  0  0
    5.3634   -6.8688    0.3740 H   0  0  0  0  0  0  0  0  0  0  0  0
    6.0304   -9.1753    1.0259 H   0  0  0  0  0  0  0  0  0  0  0  0
    7.3927   -8.1024    0.8844 H   0  0  0  0  0  0  0  0  0  0  0  0
    6.0736   -8.9911    3.5056 H   0  0  0  0  0  0  0  0  0  0  0  0
    7.6296   -9.4753    2.9104 H   0  0  0  0  0  0  0  0  0  0  0  0
    9.0008   -7.0422    2.1066 H   0  0  0  0  0  0  0  0  0  0  0  0
    9.5326   -8.1689    3.3397 H   0  0  0  0  0  0  0  0  0  0  0  0
    9.4253   -6.4564    3.7200 H   0  0  0  0  0  0  0  0  0  0  0  0
    7.3229   -5.4435    3.9624 H   0  0  0  0  0  0  0  0  0  0  0  0
    5.2567   -7.0328    5.0959 H   0  0  0  0  0  0  0  0  0  0  0  0
    3.2005   -6.1230    3.6495 H   0  0  0  0  0  0  0  0  0  0  0  0
    4.2000   -8.3491    2.5989 H   0  0  0  0  0  0  0  0  0  0  0  0
    7.6083   -7.7244    4.5627 H   0  0  0  0  0  0  0  0  0  0  0  0
  1  2  1  0
  1 26  1  0
  1 27  1  0
  1 28  1  0
  2 25  1  0
  2  3  1  0
  3  4  1  0
  3 29  1  0
  3 30  1  0
  4  5  2  0
  4 31  1  0
  5 23  1  0
  5  6  1  0
  6 11  2  0
  6  7  1  0
  7  8  2  0
  7 32  1  0
  8  9  1  0
  9 10  2  0
  9 33  1  0
 10 11  1  0
 10 34  1  0
 12 11  1  6
 12 18  1  0
 12 23  1  0
 12 13  1  0
 13 25  1  0
 13 14  1  0
 13 35  1  6
 14 15  1  0
 14 36  1  0
 14 37  1  0
 15 16  1  0
 15 38  1  0
 15 39  1  0
 16 17  1  0
 16 18  1  0
 16 47  1  1
 17 40  1  0
 17 41  1  0
 17 42  1  0
 18 19  1  0
 18 43  1  1
 19 24  1  0
 19 20  1  0
 19 44  1  1
 20 21  1  0
 21 22  2  0
 23 21  1  1
 23 24  1  0
 24 25  1  0
 24 45  1  1
 25 46  1  1
M  CHG  1  16   1
M  END
>  <i_m_ct_stereo_status>  (289) 
1

>  <s_m_source_file>  (289) 
/var/tmp/pbs.5076255.sched01/tmpyc7t0a4i/88yk12rjyo.sdf

>  <i_m_source_file_index>  (289) 
36

>  <i_lp_mmshare_version>  (289) 
48012

>  <i_f3d_flags>  (289) 
0

>  <s_epik_input>  (289) 
W2NIXTFuW2NIXVtjSF1jMmMxQyhbQ0BAXTM0W0NAXTI1Nik9W0NIXVtDSDJdTihbQ0gzXSlbQ0BIXTdbQ0BASF01W0NIMl1bQ0gyXU4oW0NIM10pW0NAQEhdNltDQEhdKFtDQEBIXTQ3KU9DMz1P

>  <s_epik_cmdline>  (289) 
J2VwaWtfcHl0aG9uJywgJy1waHQnLCAnMi4wJywgJy1waCcsICc3LjAnLCAnLXRuJywgJzgnLCAnLW1hJywgJzIwMCcsICctaW1hZScsICc8aW5maWxlLm1hZT4nLCAnLW9tYWUnLCAnPG91dGZpbGUubWFlPic=

>  <r_epik_Ionization_Penalty>  (289) 
0.209414

>  <r_epik_Ionization_Penalty_Charging>  (289) 
0.16739

>  <r_epik_Ionization_Penalty_Neutral>  (289) 
0.0420245

>  <r_epik_State_Penalty>  (289) 
0.317155

>  <r_epik_Charging_Adjusted_Penalty>  (289) 
0.484545

>  <i_epik_Tot_Q>  (289) 
1

>  <i_epik_Tot_abs_Q>  (289) 
1

>  <s_epik_Chemistry_Notes>  (289) 
This compound has an ester and may undergo hydrolysis at high or low pH.

>  <s_lp_Force_Field>  (289) 
OPLS3e

>  <r_lp_Energy>  (289) 
122.621

>  <b_lp_Chiralities_Consistent>  (289) 
1

>  <s_lp_Variant>  (289) 
82:0-1

>  <s_i_glide_gridfile>  (289) 
pfpi4k_grid

>  <i_i_glide_lignum>  (289) 
36

>  <i_i_glide_rotatable_bonds>  (289) 
0

>  <r_i_docking_score>  (289) 
-3.59144

>  <r_i_glide_ligand_efficiency>  (289) 
-0.143658

>  <r_i_glide_ligand_efficiency_sa>  (289) 
-0.420057

>  <r_i_glide_ligand_efficiency_ln>  (289) 
-0.851279

>  <r_i_glide_gscore>  (289) 
-3.59144

>  <r_i_glide_lipo>  (289) 
-0.94144

>  <r_i_glide_hbond>  (289) 
0

>  <r_i_glide_metal>  (289) 
-0

>  <r_i_glide_rewards>  (289) 
-1.13188

>  <r_i_glide_evdw>  (289) 
-20.6588

>  <r_i_glide_ecoul>  (289) 
-3.20853

>  <r_i_glide_erotb>  (289) 
0

>  <r_i_glide_esite>  (289) 
-0.00390703

>  <r_i_glide_emodel>  (289) 
-31.1266

>  <r_i_glide_energy>  (289) 
-23.8673

>  <r_i_glide_einternal>  (289) 
0

>  <r_i_glide_intrahb_reward>  (289) 
-0

>  <i_i_glide_confnum>  (289) 
2

>  <i_i_glide_posenum>  (289) 
7

>  <r_i_glide_eff_state_penalty>  (289) 
0

>  <ligand_id>  (289) 
82

>  <original_smiles>  (289) 
CN1CC=C2c3cnccc3C34C5CCN(C)C3C3OC(=O)C24C3C51

>  <smiles>  (289) 
[H]C1=C2c3c([H])nc([H])c([H])c3C34C25C(=O)OC2([H])C5([H])C([H])(N(C([H])([H])[H])C1([H])[H])C3([H])C([H])([H])C([H])([H])[N+]([H])(C([H])([H])[H])C24[H]

$$$$
82:0:1
     RDKit          3D

 47 53  0  0  1  0  0  0  0  0999 V2000
    4.9566    2.7095    5.8643 C   0  0  0  0  0  0  0  0  0  0  0  0
    3.5415    2.8024    6.2123 N   0  0  0  0  0  0  0  0  0  0  0  0
    3.3923    3.9119    7.1891 C   0  0  0  0  0  0  0  0  0  0  0  0
    1.9766    4.1497    7.6807 C   0  0  0  0  0  0  0  0  0  0  0  0
    0.9529    4.3395    6.8424 C   0  0  0  0  0  0  0  0  0  0  0  0
   -0.4207    3.8944    7.0775 C   0  0  0  0  0  0  0  0  0  0  0  0
   -1.2641    3.9693    8.1974 C   0  0  0  0  0  0  0  0  0  0  0  0
   -2.5326    3.4999    8.1426 N   0  0  0  0  0  0  0  0  0  0  0  0
   -2.9714    2.9349    6.9914 C   0  0  0  0  0  0  0  0  0  0  0  0
   -2.1788    2.7707    5.8323 C   0  0  0  0  0  0  0  0  0  0  0  0
   -0.8590    3.2504    5.9112 C   0  0  0  0  0  0  0  0  0  0  0  0
    0.2771    3.1819    4.8950 C   0  0  1  0  0  0  0  0  0  0  0  0
    1.3318    2.0564    5.1955 C   0  0  1  0  0  0  0  0  0  0  0  0
    1.1553    0.8125    4.3010 C   0  0  0  0  0  0  0  0  0  0  0  0
    1.1284    1.1654    2.8070 C   0  0  0  0  0  0  0  0  0  0  0  0
    0.0716    2.1560    2.5181 N   0  0  1  0  0  0  0  0  0  0  0  0
   -1.2796    1.5502    2.4401 C   0  0  0  0  0  0  0  0  0  0  0  0
    0.1375    3.3939    3.3722 C   0  0  2  0  0  0  0  0  0  0  0  0
    1.4242    4.2899    3.1988 C   0  0  1  0  0  0  0  0  0  0  0  0
    0.9318    5.6162    3.4206 O   0  0  0  0  0  0  0  0  0  0  0  0
    0.6487    5.7639    4.7129 C   0  0  0  0  0  0  0  0  0  0  0  0
    0.1796    6.7384    5.2980 O   0  0  0  0  0  0  0  0  0  0  0  0
    1.0622    4.4301    5.3371 C   0  0  1  0  0  0  0  0  0  0  0  0
    2.2819    4.1447    4.5185 C   0  0  1  0  0  0  0  0  0  0  0  0
    2.7009    2.7574    4.9859 C   0  0  1  0  0  0  0  0  0  0  0  0
    5.5783    2.6155    6.7557 H   0  0  0  0  0  0  0  0  0  0  0  0
    5.2863    3.5976    5.3233 H   0  0  0  0  0  0  0  0  0  0  0  0
    5.1527    1.8294    5.2499 H   0  0  0  0  0  0  0  0  0  0  0  0
    3.9891    3.6645    8.0654 H   0  0  0  0  0  0  0  0  0  0  0  0
    3.7963    4.8497    6.8089 H   0  0  0  0  0  0  0  0  0  0  0  0
    1.7817    3.8798    8.7072 H   0  0  0  0  0  0  0  0  0  0  0  0
   -0.9394    4.4157    9.1263 H   0  0  0  0  0  0  0  0  0  0  0  0
   -3.9895    2.5782    7.0086 H   0  0  0  0  0  0  0  0  0  0  0  0
   -2.5735    2.3044    4.9437 H   0  0  0  0  0  0  0  0  0  0  0  0
    1.2509    1.7332    6.2368 H   0  0  0  0  0  0  0  0  0  0  0  0
    1.9556    0.1005    4.4989 H   0  0  0  0  0  0  0  0  0  0  0  0
    0.2284    0.3052    4.5815 H   0  0  0  0  0  0  0  0  0  0  0  0
    2.0923    1.5549    2.4792 H   0  0  0  0  0  0  0  0  0  0  0  0
    0.9579    0.2653    2.2151 H   0  0  0  0  0  0  0  0  0  0  0  0
   -1.5733    1.1116    3.3909 H   0  0  0  0  0  0  0  0  0  0  0  0
   -1.2892    0.7574    1.6919 H   0  0  0  0  0  0  0  0  0  0  0  0
   -2.0304    2.2832    2.1462 H   0  0  0  0  0  0  0  0  0  0  0  0
   -0.7446    3.9903    3.1315 H   0  0  0  0  0  0  0  0  0  0  0  0
    1.9598    4.1900    2.2546 H   0  0  0  0  0  0  0  0  0  0  0  0
    3.0860    4.8836    4.5839 H   0  0  0  0  0  0  0  0  0  0  0  0
    3.2615    2.2650    4.1924 H   0  0  0  0  0  0  0  0  0  0  0  0
    0.2355    2.5060    1.5770 H   0  0  0  0  0  0  0  0  0  0  0  0
  1  2  1  0
  1 26  1  0
  1 27  1  0
  1 28  1  0
  2 25  1  0
  2  3  1  0
  3  4  1  0
  3 29  1  0
  3 30  1  0
  4  5  2  0
  4 31  1  0
  5 23  1  0
  5  6  1  0
  6 11  2  0
  6  7  1  0
  7  8  2  0
  7 32  1  0
  8  9  1  0
  9 10  2  0
  9 33  1  0
 10 11  1  0
 10 34  1  0
 12 11  1  1
 12 18  1  0
 12 23  1  0
 12 13  1  0
 13 25  1  0
 13 14  1  0
 13 35  1  1
 14 15  1  0
 14 36  1  0
 14 37  1  0
 15 16  1  0
 15 38  1  0
 15 39  1  0
 16 17  1  0
 16 18  1  0
 16 47  1  6
 17 40  1  0
 17 41  1  0
 17 42  1  0
 18 19  1  0
 18 43  1  1
 19 24  1  0
 19 20  1  0
 19 44  1  6
 20 21  1  0
 21 22  2  0
 23 21  1  6
 23 24  1  0
 24 25  1  0
 24 45  1  6
 25 46  1  6
M  CHG  1  16   1
M  END
>  <i_m_ct_stereo_status>  (290) 
1

>  <s_m_source_file>  (290) 
/var/tmp/pbs.5076255.sched01/tmpyc7t0a4i/88yk12rjyo.sdf

>  <i_m_source_file_index>  (290) 
36

>  <i_lp_mmshare_version>  (290) 
48012

>  <i_f3d_flags>  (290) 
0

>  <s_epik_input>  (290) 
W2NIXTFuW2NIXVtjSF1jMmMxQyhbQ0BAXTM0W0NAXTI1Nik9W0NIXVtDSDJdTihbQ0gzXSlbQ0BIXTdbQ0BASF01W0NIMl1bQ0gyXU4oW0NIM10pW0NAQEhdNltDQEhdKFtDQEBIXTQ3KU9DMz1P

>  <s_epik_cmdline>  (290) 
J2VwaWtfcHl0aG9uJywgJy1waHQnLCAnMi4wJywgJy1waCcsICc3LjAnLCAnLXRuJywgJzgnLCAnLW1hJywgJzIwMCcsICctaW1hZScsICc8aW5maWxlLm1hZT4nLCAnLW9tYWUnLCAnPG91dGZpbGUubWFlPic=

>  <r_epik_Ionization_Penalty>  (290) 
0.209414

>  <r_epik_Ionization_Penalty_Charging>  (290) 
0.16739

>  <r_epik_Ionization_Penalty_Neutral>  (290) 
0.0420245

>  <r_epik_State_Penalty>  (290) 
0.317155

>  <r_epik_Charging_Adjusted_Penalty>  (290) 
0.484545

>  <i_epik_Tot_Q>  (290) 
1

>  <i_epik_Tot_abs_Q>  (290) 
1

>  <s_epik_Chemistry_Notes>  (290) 
This compound has an ester and may undergo hydrolysis at high or low pH.

>  <s_lp_Force_Field>  (290) 
OPLS3e

>  <r_lp_Energy>  (290) 
122.621

>  <b_lp_Chiralities_Consistent>  (290) 
1

>  <s_lp_Variant>  (290) 
82:0-1

>  <s_i_glide_gridfile>  (290) 
pfpi4k_grid

>  <i_i_glide_lignum>  (290) 
36

>  <i_i_glide_rotatable_bonds>  (290) 
0

>  <r_i_docking_score>  (290) 
-3.49216

>  <r_i_glide_ligand_efficiency>  (290) 
-0.139686

>  <r_i_glide_ligand_efficiency_sa>  (290) 
-0.408445

>  <r_i_glide_ligand_efficiency_ln>  (290) 
-0.827745

>  <r_i_glide_gscore>  (290) 
-3.49216

>  <r_i_glide_lipo>  (290) 
-0.240711

>  <r_i_glide_hbond>  (290) 
-0.153486

>  <r_i_glide_metal>  (290) 
-0

>  <r_i_glide_rewards>  (290) 
-1.1154

>  <r_i_glide_evdw>  (290) 
-18.5281

>  <r_i_glide_ecoul>  (290) 
-6.09308

>  <r_i_glide_erotb>  (290) 
0

>  <r_i_glide_esite>  (290) 
-0.142187

>  <r_i_glide_emodel>  (290) 
-31.7008

>  <r_i_glide_energy>  (290) 
-24.6212

>  <r_i_glide_einternal>  (290) 
0

>  <r_i_glide_intrahb_reward>  (290) 
-0

>  <i_i_glide_confnum>  (290) 
1

>  <i_i_glide_posenum>  (290) 
9

>  <r_i_glide_eff_state_penalty>  (290) 
0

>  <ligand_id>  (290) 
82

>  <original_smiles>  (290) 
CN1CC=C2c3cnccc3C34C5CCN(C)C3C3OC(=O)C24C3C51

>  <smiles>  (290) 
[H]C1=C2c3c([H])nc([H])c([H])c3C34C25C(=O)OC2([H])C5([H])C([H])(N(C([H])([H])[H])C1([H])[H])C3([H])C([H])([H])C([H])([H])[N+]([H])(C([H])([H])[H])C24[H]

$$$$
82:0:2
     RDKit          3D

 47 53  0  0  1  0  0  0  0  0999 V2000
    5.2857    0.0517    4.2211 C   0  0  0  0  0  0  0  0  0  0  0  0
    4.0395    0.3690    4.9156 N   0  0  0  0  0  0  0  0  0  0  0  0
    4.3845    1.0412    6.1947 C   0  0  0  0  0  0  0  0  0  0  0  0
    3.1978    1.4251    7.0631 C   0  0  0  0  0  0  0  0  0  0  0  0
    2.1777    2.1571    6.5985 C   0  0  0  0  0  0  0  0  0  0  0  0
    0.7800    2.0098    7.0079 C   0  0  0  0  0  0  0  0  0  0  0  0
    0.1683    1.8742    8.2641 C   0  0  0  0  0  0  0  0  0  0  0  0
   -1.1792    1.7700    8.3724 N   0  0  0  0  0  0  0  0  0  0  0  0
   -1.9312    1.8152    7.2451 C   0  0  0  0  0  0  0  0  0  0  0  0
   -1.4004    1.8920    5.9381 C   0  0  0  0  0  0  0  0  0  0  0  0
    0.0033    1.9676    5.8421 C   0  0  0  0  0  0  0  0  0  0  0  0
    0.9049    1.9972    4.6131 C   0  0  1  0  0  0  0  0  0  0  0  0
    1.5828    0.6153    4.2915 C   0  0  1  0  0  0  0  0  0  0  0  0
    0.8989   -0.1260    3.1308 C   0  0  0  0  0  0  0  0  0  0  0  0
    0.7823    0.7520    1.8762 C   0  0  0  0  0  0  0  0  0  0  0  0
    0.0691    2.0144    2.1678 N   0  0  1  0  0  0  0  0  0  0  0  0
   -1.3983    1.8061    2.2389 C   0  0  0  0  0  0  0  0  0  0  0  0
    0.6309    2.7853    3.3136 C   0  0  2  0  0  0  0  0  0  0  0  0
    2.0957    3.3256    3.1146 C   0  0  1  0  0  0  0  0  0  0  0  0
    2.0859    4.5584    3.8412 O   0  0  0  0  0  0  0  0  0  0  0  0
    2.0479    4.2898    5.1465 C   0  0  0  0  0  0  0  0  0  0  0  0
    2.0122    5.0667    6.0978 O   0  0  0  0  0  0  0  0  0  0  0  0
    2.0994    2.7625    5.2145 C   0  0  1  0  0  0  0  0  0  0  0  0
    3.0384    2.5006    4.0784 C   0  0  1  0  0  0  0  0  0  0  0  0
    3.0596    0.9813    3.9806 C   0  0  1  0  0  0  0  0  0  0  0  0
    5.9599   -0.5081    4.8681 H   0  0  0  0  0  0  0  0  0  0  0  0
    5.8170    0.9451    3.9007 H   0  0  0  0  0  0  0  0  0  0  0  0
    5.1055   -0.5598    3.3376 H   0  0  0  0  0  0  0  0  0  0  0  0
    4.9882    0.3504    6.7823 H   0  0  0  0  0  0  0  0  0  0  0  0
    5.0060    1.9209    6.0384 H   0  0  0  0  0  0  0  0  0  0  0  0
    3.0758    0.8602    7.9734 H   0  0  0  0  0  0  0  0  0  0  0  0
    0.7447    1.8594    9.1769 H   0  0  0  0  0  0  0  0  0  0  0  0
   -2.9992    1.7508    7.3941 H   0  0  0  0  0  0  0  0  0  0  0  0
   -2.0448    1.9002    5.0749 H   0  0  0  0  0  0  0  0  0  0  0  0
    1.5507   -0.0376    5.1690 H   0  0  0  0  0  0  0  0  0  0  0  0
    1.4486   -1.0382    2.8944 H   0  0  0  0  0  0  0  0  0  0  0  0
   -0.0921   -0.4572    3.4516 H   0  0  0  0  0  0  0  0  0  0  0  0
    1.7612    0.9638    1.4458 H   0  0  0  0  0  0  0  0  0  0  0  0
    0.2365    0.1979    1.1194 H   0  0  0  0  0  0  0  0  0  0  0  0
   -1.6817    1.1436    3.0556 H   0  0  0  0  0  0  0  0  0  0  0  0
   -1.7657    1.3470    1.3180 H   0  0  0  0  0  0  0  0  0  0  0  0
   -1.9271    2.7538    2.3607 H   0  0  0  0  0  0  0  0  0  0  0  0
   -0.0426    3.6255    3.4891 H   0  0  0  0  0  0  0  0  0  0  0  0
    2.4305    3.4456    2.0820 H   0  0  0  0  0  0  0  0  0  0  0  0
    4.0341    2.9396    4.1739 H   0  0  0  0  0  0  0  0  0  0  0  0
    3.3166    0.6893    2.9633 H   0  0  0  0  0  0  0  0  0  0  0  0
    0.1944    2.6460    1.3765 H   0  0  0  0  0  0  0  0  0  0  0  0
  1  2  1  0
  1 26  1  0
  1 27  1  0
  1 28  1  0
  2 25  1  0
  2  3  1  0
  3  4  1  0
  3 29  1  0
  3 30  1  0
  4  5  2  0
  4 31  1  0
  5 23  1  0
  5  6  1  0
  6 11  2  0
  6  7  1  0
  7  8  2  0
  7 32  1  0
  8  9  1  0
  9 10  2  0
  9 33  1  0
 10 11  1  0
 10 34  1  0
 12 11  1  1
 12 18  1  0
 12 23  1  0
 12 13  1  0
 13 25  1  0
 13 14  1  0
 13 35  1  1
 14 15  1  0
 14 36  1  0
 14 37  1  0
 15 16  1  0
 15 38  1  0
 15 39  1  0
 16 17  1  0
 16 18  1  0
 16 47  1  6
 17 40  1  0
 17 41  1  0
 17 42  1  0
 18 19  1  0
 18 43  1  1
 19 24  1  0
 19 20  1  0
 19 44  1  6
 20 21  1  0
 21 22  2  0
 23 21  1  1
 23 24  1  0
 24 25  1  0
 24 45  1  1
 25 46  1  6
M  CHG  1  16   1
M  END
>  <i_m_ct_stereo_status>  (291) 
1

>  <s_m_source_file>  (291) 
/var/tmp/pbs.5076255.sched01/tmpyc7t0a4i/88yk12rjyo.sdf

>  <i_m_source_file_index>  (291) 
36

>  <i_lp_mmshare_version>  (291) 
48012

>  <i_f3d_flags>  (291) 
0

>  <s_epik_input>  (291) 
W2NIXTFuW2NIXVtjSF1jMmMxQyhbQ0BAXTM0W0NAXTI1Nik9W0NIXVtDSDJdTihbQ0gzXSlbQ0BIXTdbQ0BASF01W0NIMl1bQ0gyXU4oW0NIM10pW0NAQEhdNltDQEhdKFtDQEBIXTQ3KU9DMz1P

>  <s_epik_cmdline>  (291) 
J2VwaWtfcHl0aG9uJywgJy1waHQnLCAnMi4wJywgJy1waCcsICc3LjAnLCAnLXRuJywgJzgnLCAnLW1hJywgJzIwMCcsICctaW1hZScsICc8aW5maWxlLm1hZT4nLCAnLW9tYWUnLCAnPG91dGZpbGUubWFlPic=

>  <r_epik_Ionization_Penalty>  (291) 
0.209414

>  <r_epik_Ionization_Penalty_Charging>  (291) 
0.16739

>  <r_epik_Ionization_Penalty_Neutral>  (291) 
0.0420245

>  <r_epik_State_Penalty>  (291) 
0.317155

>  <r_epik_Charging_Adjusted_Penalty>  (291) 
0.484545

>  <i_epik_Tot_Q>  (291) 
1

>  <i_epik_Tot_abs_Q>  (291) 
1

>  <s_epik_Chemistry_Notes>  (291) 
This compound has an ester and may undergo hydrolysis at high or low pH.

>  <s_lp_Force_Field>  (291) 
OPLS3e

>  <r_lp_Energy>  (291) 
122.621

>  <b_lp_Chiralities_Consistent>  (291) 
1

>  <s_lp_Variant>  (291) 
82:0-1

>  <s_i_glide_gridfile>  (291) 
pfpi4k_grid

>  <i_i_glide_lignum>  (291) 
36

>  <i_i_glide_rotatable_bonds>  (291) 
0

>  <r_i_docking_score>  (291) 
-3.30216

>  <r_i_glide_ligand_efficiency>  (291) 
-0.132086

>  <r_i_glide_ligand_efficiency_sa>  (291) 
-0.386222

>  <r_i_glide_ligand_efficiency_ln>  (291) 
-0.78271

>  <r_i_glide_gscore>  (291) 
-3.30216

>  <r_i_glide_lipo>  (291) 
-0.0948177

>  <r_i_glide_hbond>  (291) 
-0.194069

>  <r_i_glide_metal>  (291) 
-0

>  <r_i_glide_rewards>  (291) 
-1.1154

>  <r_i_glide_evdw>  (291) 
-16.9497

>  <r_i_glide_ecoul>  (291) 
-6.36126

>  <r_i_glide_erotb>  (291) 
0

>  <r_i_glide_esite>  (291) 
-0.0961916

>  <r_i_glide_emodel>  (291) 
-29.969

>  <r_i_glide_energy>  (291) 
-23.311

>  <r_i_glide_einternal>  (291) 
0

>  <r_i_glide_intrahb_reward>  (291) 
-0

>  <i_i_glide_confnum>  (291) 
1

>  <i_i_glide_posenum>  (291) 
1

>  <r_i_glide_eff_state_penalty>  (291) 
0

>  <ligand_id>  (291) 
82

>  <original_smiles>  (291) 
CN1CC=C2c3cnccc3C34C5CCN(C)C3C3OC(=O)C24C3C51

>  <smiles>  (291) 
[H]C1=C2c3c([H])nc([H])c([H])c3C34C25C(=O)OC2([H])C5([H])C([H])(N(C([H])([H])[H])C1([H])[H])C3([H])C([H])([H])C([H])([H])[N+]([H])(C([H])([H])[H])C24[H]

$$$$
82:1:0
     RDKit          3D

 46 52  0  0  1  0  0  0  0  0999 V2000
    8.7682   -3.7076   -1.3020 C   0  0  0  0  0  0  0  0  0  0  0  0
    8.0600   -2.6153   -0.6711 N   0  0  0  0  0  0  0  0  0  0  0  0
    8.1188   -2.8427    0.7770 C   0  0  0  0  0  0  0  0  0  0  0  0
    7.0126   -3.7432    1.3082 C   0  0  0  0  0  0  0  0  0  0  0  0
    5.7322   -3.4105    1.2525 C   0  0  0  0  0  0  0  0  0  0  0  0
    4.6518   -4.3839    1.1822 C   0  0  0  0  0  0  0  0  0  0  0  0
    4.3142   -5.4871    1.9594 C   0  0  0  0  0  0  0  0  0  0  0  0
    3.1959   -6.2017    1.6752 N   0  0  0  0  0  0  0  0  0  0  0  0
    2.4191   -5.8169    0.6251 C   0  0  0  0  0  0  0  0  0  0  0  0
    2.6796   -4.7032   -0.2016 C   0  0  0  0  0  0  0  0  0  0  0  0
    3.8707   -4.0255    0.0804 C   0  0  0  0  0  0  0  0  0  0  0  0
    4.4932   -2.8741   -0.6606 C   0  0  1  0  0  0  0  0  0  0  0  0
    5.7027   -3.3229   -1.5701 C   0  0  1  0  0  0  0  0  0  0  0  0
    5.3159   -3.3961   -3.0541 C   0  0  0  0  0  0  0  0  0  0  0  0
    4.5949   -2.1353   -3.5435 C   0  0  0  0  0  0  0  0  0  0  0  0
    3.4315   -1.8725   -2.7352 N   0  0  0  0  0  0  0  0  0  0  0  0
    2.8384   -0.6367   -3.2351 C   0  0  0  0  0  0  0  0  0  0  0  0
    3.7147   -1.7269   -1.3058 C   0  0  2  0  0  0  0  0  0  0  0  0
    4.7172   -0.6052   -0.9026 C   0  0  1  0  0  0  0  0  0  0  0  0
    4.2070   -0.2219    0.3922 O   0  0  0  0  0  0  0  0  0  0  0  0
    4.4592   -1.1802    1.3066 C   0  0  0  0  0  0  0  0  0  0  0  0
    4.1929   -1.2310    2.5155 O   0  0  0  0  0  0  0  0  0  0  0  0
    5.2242   -2.2071    0.4939 C   0  0  1  0  0  0  0  0  0  0  0  0
    6.0315   -1.3015   -0.3994 C   0  0  1  0  0  0  0  0  0  0  0  0
    6.7718   -2.2546   -1.3203 C   0  0  1  0  0  0  0  0  0  0  0  0
    9.8021   -3.7226   -0.9877 H   0  0  0  0  0  0  0  0  0  0  0  0
    8.7906   -3.5755   -2.3523 H   0  0  0  0  0  0  0  0  0  0  0  0
    8.4402   -4.6615   -0.9599 H   0  0  0  0  0  0  0  0  0  0  0  0
    9.0803   -3.3070    1.0406 H   0  0  0  0  0  0  0  0  0  0  0  0
    8.0492   -1.8836    1.2860 H   0  0  0  0  0  0  0  0  0  0  0  0
    7.3100   -4.7603    1.6414 H   0  0  0  0  0  0  0  0  0  0  0  0
    4.9153   -5.7899    2.7965 H   0  0  0  0  0  0  0  0  0  0  0  0
    1.5533   -6.4338    0.4310 H   0  0  0  0  0  0  0  0  0  0  0  0
    2.0890   -4.4304   -1.0705 H   0  0  0  0  0  0  0  0  0  0  0  0
    6.0830   -4.2897   -1.2429 H   0  0  0  0  0  0  0  0  0  0  0  0
    6.2107   -3.5673   -3.6569 H   0  0  0  0  0  0  0  0  0  0  0  0
    4.6486   -4.2374   -3.2001 H   0  0  0  0  0  0  0  0  0  0  0  0
    5.2207   -1.2447   -3.4997 H   0  0  0  0  0  0  0  0  0  0  0  0
    4.2750   -2.2621   -4.5827 H   0  0  0  0  0  0  0  0  0  0  0  0
    2.0875   -0.3189   -2.5222 H   0  0  0  0  0  0  0  0  0  0  0  0
    2.4066   -0.8186   -4.2202 H   0  0  0  0  0  0  0  0  0  0  0  0
    3.5008    0.2239   -3.3124 H   0  0  0  0  0  0  0  0  0  0  0  0
    2.7624   -1.5624   -0.7809 H   0  0  0  0  0  0  0  0  0  0  0  0
    4.8113    0.1517   -1.6699 H   0  0  0  0  0  0  0  0  0  0  0  0
    6.6925   -0.6126    0.1464 H   0  0  0  0  0  0  0  0  0  0  0  0
    7.0052   -1.7999   -2.2618 H   0  0  0  0  0  0  0  0  0  0  0  0
  1  2  1  0
  1 26  1  0
  1 27  1  0
  1 28  1  0
  2 25  1  0
  2  3  1  0
  3  4  1  0
  3 29  1  0
  3 30  1  0
  4  5  2  0
  4 31  1  0
  5 23  1  0
  5  6  1  0
  6 11  2  0
  6  7  1  0
  7  8  2  0
  7 32  1  0
  8  9  1  0
  9 10  2  0
  9 33  1  0
 10 11  1  0
 10 34  1  0
 12 11  1  1
 12 18  1  0
 12 23  1  0
 12 13  1  0
 13 25  1  0
 13 14  1  0
 13 35  1  1
 14 15  1  0
 14 36  1  0
 14 37  1  0
 15 16  1  0
 15 38  1  0
 15 39  1  0
 16 17  1  0
 16 18  1  0
 17 40  1  0
 17 41  1  0
 17 42  1  0
 18 19  1  0
 18 43  1  1
 19 24  1  0
 19 20  1  0
 19 44  1  6
 20 21  1  0
 21 22  2  0
 23 21  1  1
 23 24  1  0
 24 25  1  0
 24 45  1  1
 25 46  1  6
M  END
>  <i_m_ct_stereo_status>  (292) 
1

>  <s_m_source_file>  (292) 
/var/tmp/pbs.5076255.sched01/tmpyc7t0a4i/88yk12rjyo.sdf

>  <i_m_source_file_index>  (292) 
37

>  <i_lp_mmshare_version>  (292) 
48012

>  <i_f3d_flags>  (292) 
0

>  <s_epik_input>  (292) 
W2NIXTFuW2NIXVtjSF1jMmMxQyhbQ0BAXTM0W0NAXTI1Nik9W0NIXVtDSDJdTihbQ0gzXSlbQ0BIXTdbQ0BASF01W0NIMl1bQ0gyXU4oW0NIM10pW0NAQEhdNltDQEhdKFtDQEBIXTQ3KU9DMz1P

>  <s_epik_cmdline>  (292) 
J2VwaWtfcHl0aG9uJywgJy1waHQnLCAnMi4wJywgJy1waCcsICc3LjAnLCAnLXRuJywgJzgnLCAnLW1hJywgJzIwMCcsICctaW1hZScsICc8aW5maWxlLm1hZT4nLCAnLW9tYWUnLCAnPG91dGZpbGUubWFlPic=

>  <r_epik_Ionization_Penalty>  (292) 
1.23318

>  <r_epik_Ionization_Penalty_Charging>  (292) 
0

>  <r_epik_Ionization_Penalty_Neutral>  (292) 
1.23318

>  <r_epik_State_Penalty>  (292) 
0.918848

>  <r_epik_Charging_Adjusted_Penalty>  (292) 
0.918848

>  <i_epik_Tot_Q>  (292) 
0

>  <i_epik_Tot_abs_Q>  (292) 
0

>  <s_epik_Chemistry_Notes>  (292) 
This compound has an ester and may undergo hydrolysis at high or low pH.

>  <s_lp_Force_Field>  (292) 
OPLS3e

>  <r_lp_Energy>  (292) 
106.996

>  <b_lp_Chiralities_Consistent>  (292) 
1

>  <s_lp_Variant>  (292) 
82:0-2

>  <s_i_glide_gridfile>  (292) 
pfpi4k_grid

>  <i_i_glide_lignum>  (292) 
37

>  <i_i_glide_rotatable_bonds>  (292) 
0

>  <r_i_docking_score>  (292) 
-2.79861

>  <r_i_glide_ligand_efficiency>  (292) 
-0.111944

>  <r_i_glide_ligand_efficiency_sa>  (292) 
-0.327327

>  <r_i_glide_ligand_efficiency_ln>  (292) 
-0.663353

>  <r_i_glide_gscore>  (292) 
-2.79861

>  <r_i_glide_lipo>  (292) 
-0.839575

>  <r_i_glide_hbond>  (292) 
-0.0726366

>  <r_i_glide_metal>  (292) 
-0

>  <r_i_glide_rewards>  (292) 
-1.16882

>  <r_i_glide_evdw>  (292) 
-17.0116

>  <r_i_glide_ecoul>  (292) 
0.886739

>  <r_i_glide_erotb>  (292) 
0

>  <r_i_glide_esite>  (292) 
0

>  <r_i_glide_emodel>  (292) 
-18.5245

>  <r_i_glide_energy>  (292) 
-16.1249

>  <r_i_glide_einternal>  (292) 
0

>  <r_i_glide_intrahb_reward>  (292) 
-0

>  <i_i_glide_confnum>  (292) 
1

>  <i_i_glide_posenum>  (292) 
7

>  <r_i_glide_eff_state_penalty>  (292) 
0

>  <ligand_id>  (292) 
82

>  <original_smiles>  (292) 
CN1CC=C2c3cnccc3C34C5CCN(C)C3C3OC(=O)C24C3C51

>  <smiles>  (292) 
[H]C1=C2c3c([H])nc([H])c([H])c3C34C25C(=O)OC2([H])C3([H])N(C([H])([H])[H])C([H])([H])C([H])([H])C4([H])C([H])(N(C([H])([H])[H])C1([H])[H])C25[H]

$$$$
82:1:1
     RDKit          3D

 46 52  0  0  1  0  0  0  0  0999 V2000
    0.7742   -1.7910    7.5260 C   0  0  0  0  0  0  0  0  0  0  0  0
    1.6032   -0.6118    7.3054 N   0  0  0  0  0  0  0  0  0  0  0  0
    1.1841    0.5692    8.1061 C   0  0  0  0  0  0  0  0  0  0  0  0
    0.1833    1.4909    7.4239 C   0  0  0  0  0  0  0  0  0  0  0  0
    0.4290    2.0122    6.2177 C   0  0  0  0  0  0  0  0  0  0  0  0
   -0.5883    2.3069    5.2045 C   0  0  0  0  0  0  0  0  0  0  0  0
   -1.8372    2.9461    5.2611 C   0  0  0  0  0  0  0  0  0  0  0  0
   -2.5849    3.1238    4.1439 N   0  0  0  0  0  0  0  0  0  0  0  0
   -2.1128    2.6425    2.9614 C   0  0  0  0  0  0  0  0  0  0  0  0
   -0.8918    1.9438    2.8209 C   0  0  0  0  0  0  0  0  0  0  0  0
   -0.1319    1.7840    3.9869 C   0  0  0  0  0  0  0  0  0  0  0  0
    1.1806    1.0480    4.1946 C   0  0  1  0  0  0  0  0  0  0  0  0
    0.9848   -0.3860    4.7977 C   0  0  1  0  0  0  0  0  0  0  0  0
    1.1065   -1.4870    3.7331 C   0  0  0  0  0  0  0  0  0  0  0  0
    2.3892   -1.3659    2.9015 C   0  0  0  0  0  0  0  0  0  0  0  0
    2.4634   -0.0425    2.2940 N   0  0  0  0  0  0  0  0  0  0  0  0
    3.6237    0.0429    1.4154 C   0  0  0  0  0  0  0  0  0  0  0  0
    2.3955    1.0785    3.2420 C   0  0  2  0  0  0  0  0  0  0  0  0
    3.4952    1.1867    4.3604 C   0  0  1  0  0  0  0  0  0  0  0  0
    3.6288    2.6002    4.5455 O   0  0  0  0  0  0  0  0  0  0  0  0
    2.5344    3.0679    5.1507 C   0  0  0  0  0  0  0  0  0  0  0  0
    2.2588    4.2231    5.4669 O   0  0  0  0  0  0  0  0  0  0  0  0
    1.7015    1.8139    5.4204 C   0  0  1  0  0  0  0  0  0  0  0  0
    2.8059    0.8474    5.7342 C   0  0  1  0  0  0  0  0  0  0  0  0
    2.0735   -0.4762    5.9011 C   0  0  1  0  0  0  0  0  0  0  0  0
    0.7114   -2.0159    8.5929 H   0  0  0  0  0  0  0  0  0  0  0  0
    1.2145   -2.6632    7.0412 H   0  0  0  0  0  0  0  0  0  0  0  0
   -0.2388   -1.6599    7.1444 H   0  0  0  0  0  0  0  0  0  0  0  0
    0.7628    0.2434    9.0574 H   0  0  0  0  0  0  0  0  0  0  0  0
    2.0628    1.1620    8.3657 H   0  0  0  0  0  0  0  0  0  0  0  0
   -0.8197    1.4977    7.8257 H   0  0  0  0  0  0  0  0  0  0  0  0
   -2.2353    3.3289    6.1869 H   0  0  0  0  0  0  0  0  0  0  0  0
   -2.7418    2.8104    2.0977 H   0  0  0  0  0  0  0  0  0  0  0  0
   -0.5515    1.5750    1.8636 H   0  0  0  0  0  0  0  0  0  0  0  0
   -0.0060   -0.4651    5.2473 H   0  0  0  0  0  0  0  0  0  0  0  0
    1.0675   -2.4702    4.2034 H   0  0  0  0  0  0  0  0  0  0  0  0
    0.2476   -1.4288    3.0653 H   0  0  0  0  0  0  0  0  0  0  0  0
    3.2776   -1.5739    3.4977 H   0  0  0  0  0  0  0  0  0  0  0  0
    2.3617   -2.1089    2.1029 H   0  0  0  0  0  0  0  0  0  0  0  0
    3.6570    1.0018    0.8997 H   0  0  0  0  0  0  0  0  0  0  0  0
    3.5683   -0.7300    0.6471 H   0  0  0  0  0  0  0  0  0  0  0  0
    4.5617   -0.0881    1.9573 H   0  0  0  0  0  0  0  0  0  0  0  0
    2.3843    1.9941    2.6447 H   0  0  0  0  0  0  0  0  0  0  0  0
    4.4411    0.6856    4.1559 H   0  0  0  0  0  0  0  0  0  0  0  0
    3.4353    1.1003    6.5911 H   0  0  0  0  0  0  0  0  0  0  0  0
    2.7568   -1.3013    5.7061 H   0  0  0  0  0  0  0  0  0  0  0  0
  1  2  1  0
  1 26  1  0
  1 27  1  0
  1 28  1  0
  2 25  1  0
  2  3  1  0
  3  4  1  0
  3 29  1  0
  3 30  1  0
  4  5  2  0
  4 31  1  0
  5 23  1  0
  5  6  1  0
  6 11  2  0
  6  7  1  0
  7  8  2  0
  7 32  1  0
  8  9  1  0
  9 10  2  0
  9 33  1  0
 10 11  1  0
 10 34  1  0
 12 11  1  6
 12 18  1  0
 12 23  1  0
 12 13  1  0
 13 25  1  0
 13 14  1  0
 13 35  1  1
 14 15  1  0
 14 36  1  0
 14 37  1  0
 15 16  1  0
 15 38  1  0
 15 39  1  0
 16 17  1  0
 16 18  1  0
 17 40  1  0
 17 41  1  0
 17 42  1  0
 18 19  1  0
 18 43  1  6
 19 24  1  0
 19 20  1  0
 19 44  1  6
 20 21  1  0
 21 22  2  0
 23 21  1  6
 23 24  1  0
 24 25  1  0
 24 45  1  1
 25 46  1  6
M  END
>  <i_m_ct_stereo_status>  (293) 
1

>  <s_m_source_file>  (293) 
/var/tmp/pbs.5076255.sched01/tmpyc7t0a4i/88yk12rjyo.sdf

>  <i_m_source_file_index>  (293) 
37

>  <i_lp_mmshare_version>  (293) 
48012

>  <i_f3d_flags>  (293) 
0

>  <s_epik_input>  (293) 
W2NIXTFuW2NIXVtjSF1jMmMxQyhbQ0BAXTM0W0NAXTI1Nik9W0NIXVtDSDJdTihbQ0gzXSlbQ0BIXTdbQ0BASF01W0NIMl1bQ0gyXU4oW0NIM10pW0NAQEhdNltDQEhdKFtDQEBIXTQ3KU9DMz1P

>  <s_epik_cmdline>  (293) 
J2VwaWtfcHl0aG9uJywgJy1waHQnLCAnMi4wJywgJy1waCcsICc3LjAnLCAnLXRuJywgJzgnLCAnLW1hJywgJzIwMCcsICctaW1hZScsICc8aW5maWxlLm1hZT4nLCAnLW9tYWUnLCAnPG91dGZpbGUubWFlPic=

>  <r_epik_Ionization_Penalty>  (293) 
1.23318

>  <r_epik_Ionization_Penalty_Charging>  (293) 
0

>  <r_epik_Ionization_Penalty_Neutral>  (293) 
1.23318

>  <r_epik_State_Penalty>  (293) 
0.918848

>  <r_epik_Charging_Adjusted_Penalty>  (293) 
0.918848

>  <i_epik_Tot_Q>  (293) 
0

>  <i_epik_Tot_abs_Q>  (293) 
0

>  <s_epik_Chemistry_Notes>  (293) 
This compound has an ester and may undergo hydrolysis at high or low pH.

>  <s_lp_Force_Field>  (293) 
OPLS3e

>  <r_lp_Energy>  (293) 
106.996

>  <b_lp_Chiralities_Consistent>  (293) 
1

>  <s_lp_Variant>  (293) 
82:0-2

>  <s_i_glide_gridfile>  (293) 
pfpi4k_grid

>  <i_i_glide_lignum>  (293) 
37

>  <i_i_glide_rotatable_bonds>  (293) 
0

>  <r_i_docking_score>  (293) 
-2.13065

>  <r_i_glide_ligand_efficiency>  (293) 
-0.085226

>  <r_i_glide_ligand_efficiency_sa>  (293) 
-0.249202

>  <r_i_glide_ligand_efficiency_ln>  (293) 
-0.505028

>  <r_i_glide_gscore>  (293) 
-2.13065

>  <r_i_glide_lipo>  (293) 
-0.0309894

>  <r_i_glide_hbond>  (293) 
0

>  <r_i_glide_metal>  (293) 
-0

>  <r_i_glide_rewards>  (293) 
-1.12228

>  <r_i_glide_evdw>  (293) 
-18.3695

>  <r_i_glide_ecoul>  (293) 
-0.377944

>  <r_i_glide_erotb>  (293) 
0

>  <r_i_glide_esite>  (293) 
-0.00221699

>  <r_i_glide_emodel>  (293) 
-21.0541

>  <r_i_glide_energy>  (293) 
-18.7475

>  <r_i_glide_einternal>  (293) 
0

>  <r_i_glide_intrahb_reward>  (293) 
-0

>  <i_i_glide_confnum>  (293) 
2

>  <i_i_glide_posenum>  (293) 
27

>  <r_i_glide_eff_state_penalty>  (293) 
0

>  <ligand_id>  (293) 
82

>  <original_smiles>  (293) 
CN1CC=C2c3cnccc3C34C5CCN(C)C3C3OC(=O)C24C3C51

>  <smiles>  (293) 
[H]C1=C2c3c([H])nc([H])c([H])c3C34C25C(=O)OC2([H])C3([H])N(C([H])([H])[H])C([H])([H])C([H])([H])C4([H])C([H])(N(C([H])([H])[H])C1([H])[H])C25[H]

$$$$
82:1:2
     RDKit          3D

 46 52  0  0  1  0  0  0  0  0999 V2000
    0.3743   -0.7985    8.5450 C   0  0  0  0  0  0  0  0  0  0  0  0
    1.4824   -0.1274    7.8808 N   0  0  0  0  0  0  0  0  0  0  0  0
    1.6839    1.2710    8.3447 C   0  0  0  0  0  0  0  0  0  0  0  0
    0.9287    2.3314    7.5558 C   0  0  0  0  0  0  0  0  0  0  0  0
    1.0556    2.4326    6.2290 C   0  0  0  0  0  0  0  0  0  0  0  0
   -0.0005    2.8675    5.3128 C   0  0  0  0  0  0  0  0  0  0  0  0
   -0.9059    3.9408    5.3374 C   0  0  0  0  0  0  0  0  0  0  0  0
   -1.7897    4.1391    4.3274 N   0  0  0  0  0  0  0  0  0  0  0  0
   -1.7900    3.2639    3.2822 C   0  0  0  0  0  0  0  0  0  0  0  0
   -0.9474    2.1305    3.1981 C   0  0  0  0  0  0  0  0  0  0  0  0
   -0.0442    1.9505    4.2542 C   0  0  0  0  0  0  0  0  0  0  0  0
    0.9457    0.8240    4.5010 C   0  0  1  0  0  0  0  0  0  0  0  0
    0.4136   -0.2427    5.5197 C   0  0  1  0  0  0  0  0  0  0  0  0
   -0.0952   -1.5120    4.8181 C   0  0  0  0  0  0  0  0  0  0  0  0
    0.9279   -2.0922    3.8331 C   0  0  0  0  0  0  0  0  0  0  0  0
    1.3050   -1.0757    2.8592 N   0  0  0  0  0  0  0  0  0  0  0  0
    2.1998   -1.6373    1.8536 C   0  0  0  0  0  0  0  0  0  0  0  0
    1.8473    0.1620    3.4389 C   0  0  2  0  0  0  0  0  0  0  0  0
    3.1407    0.0735    4.3296 C   0  0  1  0  0  0  0  0  0  0  0  0
    3.7965    1.3208    4.0829 O   0  0  0  0  0  0  0  0  0  0  0  0
    3.0945    2.3068    4.6483 C   0  0  0  0  0  0  0  0  0  0  0  0
    3.3140    3.5156    4.6447 O   0  0  0  0  0  0  0  0  0  0  0  0
    1.9625    1.5769    5.3714 C   0  0  1  0  0  0  0  0  0  0  0  0
    2.7087    0.3516    5.8143 C   0  0  1  0  0  0  0  0  0  0  0  0
    1.6281   -0.5048    6.4508 C   0  0  1  0  0  0  0  0  0  0  0  0
    0.4792   -0.7342    9.6303 H   0  0  0  0  0  0  0  0  0  0  0  0
    0.3553   -1.8575    8.2833 H   0  0  0  0  0  0  0  0  0  0  0  0
   -0.5820   -0.3502    8.2739 H   0  0  0  0  0  0  0  0  0  0  0  0
    1.3997    1.3574    9.3939 H   0  0  0  0  0  0  0  0  0  0  0  0
    2.7471    1.5151    8.3083 H   0  0  0  0  0  0  0  0  0  0  0  0
    0.1039    2.8111    8.0626 H   0  0  0  0  0  0  0  0  0  0  0  0
   -0.9205    4.6473    6.1531 H   0  0  0  0  0  0  0  0  0  0  0  0
   -2.4977    3.4702    2.4910 H   0  0  0  0  0  0  0  0  0  0  0  0
   -0.9799    1.4552    2.3566 H   0  0  0  0  0  0  0  0  0  0  0  0
   -0.4108    0.1812    6.0955 H   0  0  0  0  0  0  0  0  0  0  0  0
   -0.3615   -2.2678    5.5574 H   0  0  0  0  0  0  0  0  0  0  0  0
   -1.0082   -1.2710    4.2740 H   0  0  0  0  0  0  0  0  0  0  0  0
    1.8044   -2.4874    4.3462 H   0  0  0  0  0  0  0  0  0  0  0  0
    0.4692   -2.9265    3.3002 H   0  0  0  0  0  0  0  0  0  0  0  0
    2.4369   -0.9022    1.0809 H   0  0  0  0  0  0  0  0  0  0  0  0
    1.7252   -2.4827    1.3551 H   0  0  0  0  0  0  0  0  0  0  0  0
    3.1331   -1.9976    2.2899 H   0  0  0  0  0  0  0  0  0  0  0  0
    2.0177    0.8480    2.6055 H   0  0  0  0  0  0  0  0  0  0  0  0
    3.7813   -0.7915    4.1624 H   0  0  0  0  0  0  0  0  0  0  0  0
    3.5647    0.5223    6.4718 H   0  0  0  0  0  0  0  0  0  0  0  0
    1.9237   -1.5521    6.4194 H   0  0  0  0  0  0  0  0  0  0  0  0
  1  2  1  0
  1 26  1  0
  1 27  1  0
  1 28  1  0
  2 25  1  0
  2  3  1  0
  3  4  1  0
  3 29  1  0
  3 30  1  0
  4  5  2  0
  4 31  1  0
  5 23  1  0
  5  6  1  0
  6 11  2  0
  6  7  1  0
  7  8  2  0
  7 32  1  0
  8  9  1  0
  9 10  2  0
  9 33  1  0
 10 11  1  0
 10 34  1  0
 12 11  1  6
 12 18  1  0
 12 23  1  0
 12 13  1  0
 13 25  1  0
 13 14  1  0
 13 35  1  1
 14 15  1  0
 14 36  1  0
 14 37  1  0
 15 16  1  0
 15 38  1  0
 15 39  1  0
 16 17  1  0
 16 18  1  0
 17 40  1  0
 17 41  1  0
 17 42  1  0
 18 19  1  0
 18 43  1  6
 19 24  1  0
 19 20  1  0
 19 44  1  1
 20 21  1  0
 21 22  2  0
 23 21  1  6
 23 24  1  0
 24 25  1  0
 24 45  1  1
 25 46  1  1
M  END
>  <i_m_ct_stereo_status>  (294) 
1

>  <s_m_source_file>  (294) 
/var/tmp/pbs.5076255.sched01/tmpyc7t0a4i/88yk12rjyo.sdf

>  <i_m_source_file_index>  (294) 
37

>  <i_lp_mmshare_version>  (294) 
48012

>  <i_f3d_flags>  (294) 
0

>  <s_epik_input>  (294) 
W2NIXTFuW2NIXVtjSF1jMmMxQyhbQ0BAXTM0W0NAXTI1Nik9W0NIXVtDSDJdTihbQ0gzXSlbQ0BIXTdbQ0BASF01W0NIMl1bQ0gyXU4oW0NIM10pW0NAQEhdNltDQEhdKFtDQEBIXTQ3KU9DMz1P

>  <s_epik_cmdline>  (294) 
J2VwaWtfcHl0aG9uJywgJy1waHQnLCAnMi4wJywgJy1waCcsICc3LjAnLCAnLXRuJywgJzgnLCAnLW1hJywgJzIwMCcsICctaW1hZScsICc8aW5maWxlLm1hZT4nLCAnLW9tYWUnLCAnPG91dGZpbGUubWFlPic=

>  <r_epik_Ionization_Penalty>  (294) 
1.23318

>  <r_epik_Ionization_Penalty_Charging>  (294) 
0

>  <r_epik_Ionization_Penalty_Neutral>  (294) 
1.23318

>  <r_epik_State_Penalty>  (294) 
0.918848

>  <r_epik_Charging_Adjusted_Penalty>  (294) 
0.918848

>  <i_epik_Tot_Q>  (294) 
0

>  <i_epik_Tot_abs_Q>  (294) 
0

>  <s_epik_Chemistry_Notes>  (294) 
This compound has an ester and may undergo hydrolysis at high or low pH.

>  <s_lp_Force_Field>  (294) 
OPLS3e

>  <r_lp_Energy>  (294) 
106.996

>  <b_lp_Chiralities_Consistent>  (294) 
1

>  <s_lp_Variant>  (294) 
82:0-2

>  <s_i_glide_gridfile>  (294) 
pfpi4k_grid

>  <i_i_glide_lignum>  (294) 
37

>  <i_i_glide_rotatable_bonds>  (294) 
0

>  <r_i_docking_score>  (294) 
-2.11053

>  <r_i_glide_ligand_efficiency>  (294) 
-0.0844212

>  <r_i_glide_ligand_efficiency_sa>  (294) 
-0.246849

>  <r_i_glide_ligand_efficiency_ln>  (294) 
-0.500259

>  <r_i_glide_gscore>  (294) 
-2.11053

>  <r_i_glide_lipo>  (294) 
-0.0250736

>  <r_i_glide_hbond>  (294) 
-0.032893

>  <r_i_glide_metal>  (294) 
-0

>  <r_i_glide_rewards>  (294) 
-1.12228

>  <r_i_glide_evdw>  (294) 
-16.7963

>  <r_i_glide_ecoul>  (294) 
-0.566828

>  <r_i_glide_erotb>  (294) 
0

>  <r_i_glide_esite>  (294) 
-0.00544889

>  <r_i_glide_emodel>  (294) 
-19.646

>  <r_i_glide_energy>  (294) 
-17.3631

>  <r_i_glide_einternal>  (294) 
0

>  <r_i_glide_intrahb_reward>  (294) 
-0

>  <i_i_glide_confnum>  (294) 
2

>  <i_i_glide_posenum>  (294) 
18

>  <r_i_glide_eff_state_penalty>  (294) 
0

>  <ligand_id>  (294) 
82

>  <original_smiles>  (294) 
CN1CC=C2c3cnccc3C34C5CCN(C)C3C3OC(=O)C24C3C51

>  <smiles>  (294) 
[H]C1=C2c3c([H])nc([H])c([H])c3C34C25C(=O)OC2([H])C3([H])N(C([H])([H])[H])C([H])([H])C([H])([H])C4([H])C([H])(N(C([H])([H])[H])C1([H])[H])C25[H]

$$$$
82:2:0
     RDKit          3D

 47 53  0  0  1  0  0  0  0  0999 V2000
    3.6226   -1.0068    4.5507 C   0  0  0  0  0  0  0  0  0  0  0  0
    3.6445   -1.1429    3.0704 N   0  0  1  0  0  0  0  0  0  0  0  0
    4.3834    0.0372    2.4987 C   0  0  0  0  0  0  0  0  0  0  0  0
    4.4466    0.0623    0.9863 C   0  0  0  0  0  0  0  0  0  0  0  0
    4.9787   -0.9361    0.2699 C   0  0  0  0  0  0  0  0  0  0  0  0
    4.5426   -1.3351   -1.0698 C   0  0  0  0  0  0  0  0  0  0  0  0
    4.2494   -0.6421   -2.2585 C   0  0  0  0  0  0  0  0  0  0  0  0
    3.8857   -1.2816   -3.3953 N   0  0  0  0  0  0  0  0  0  0  0  0
    3.7821   -2.6313   -3.3560 C   0  0  0  0  0  0  0  0  0  0  0  0
    4.0430   -3.3958   -2.2024 C   0  0  0  0  0  0  0  0  0  0  0  0
    4.3803   -2.7185   -1.0319 C   0  0  0  0  0  0  0  0  0  0  0  0
    4.6171   -3.2672    0.3652 C   0  0  1  0  0  0  0  0  0  0  0  0
    3.4116   -3.0538    1.3458 C   0  0  1  0  0  0  0  0  0  0  0  0
    2.6167   -4.3539    1.5423 C   0  0  0  0  0  0  0  0  0  0  0  0
    3.5058   -5.5277    1.9903 C   0  0  0  0  0  0  0  0  0  0  0  0
    4.6137   -5.7585    1.0737 N   0  0  0  0  0  0  0  0  0  0  0  0
    4.1876   -6.5058   -0.0894 C   0  0  0  0  0  0  0  0  0  0  0  0
    5.3780   -4.5693    0.7091 C   0  0  2  0  0  0  0  0  0  0  0  0
    6.1982   -3.9889    1.9054 C   0  0  1  0  0  0  0  0  0  0  0  0
    7.3729   -3.5281    1.2477 O   0  0  0  0  0  0  0  0  0  0  0  0
    7.0739   -2.4420    0.5545 C   0  0  0  0  0  0  0  0  0  0  0  0
    7.8095   -1.7651   -0.1496 O   0  0  0  0  0  0  0  0  0  0  0  0
    5.5940   -2.1886    0.8583 C   0  0  1  0  0  0  0  0  0  0  0  0
    5.5563   -2.5990    2.2963 C   0  0  1  0  0  0  0  0  0  0  0  0
    4.0758   -2.5325    2.6530 C   0  0  1  0  0  0  0  0  0  0  0  0
    4.6280   -1.1065    4.9722 H   0  0  0  0  0  0  0  0  0  0  0  0
    2.9794   -1.7615    5.0106 H   0  0  0  0  0  0  0  0  0  0  0  0
    3.2406   -0.0241    4.8487 H   0  0  0  0  0  0  0  0  0  0  0  0
    3.8274    0.9365    2.7667 H   0  0  0  0  0  0  0  0  0  0  0  0
    5.3818    0.1656    2.9101 H   0  0  0  0  0  0  0  0  0  0  0  0
    3.8481    0.8228    0.5123 H   0  0  0  0  0  0  0  0  0  0  0  0
    4.3184    0.4312   -2.3303 H   0  0  0  0  0  0  0  0  0  0  0  0
    3.4901   -3.1044   -4.2813 H   0  0  0  0  0  0  0  0  0  0  0  0
    4.0240   -4.4588   -2.1772 H   0  0  0  0  0  0  0  0  0  0  0  0
    2.7328   -2.2961    0.9497 H   0  0  0  0  0  0  0  0  0  0  0  0
    1.8228   -4.1997    2.2731 H   0  0  0  0  0  0  0  0  0  0  0  0
    2.1224   -4.6084    0.6044 H   0  0  0  0  0  0  0  0  0  0  0  0
    3.9135   -5.3459    2.9832 H   0  0  0  0  0  0  0  0  0  0  0  0
    2.9103   -6.4378    2.0698 H   0  0  0  0  0  0  0  0  0  0  0  0
    5.0112   -6.7240   -0.7571 H   0  0  0  0  0  0  0  0  0  0  0  0
    3.4492   -5.9590   -0.6591 H   0  0  0  0  0  0  0  0  0  0  0  0
    3.7929   -7.4660    0.2208 H   0  0  0  0  0  0  0  0  0  0  0  0
    6.0681   -4.8529   -0.0884 H   0  0  0  0  0  0  0  0  0  0  0  0
    6.4112   -4.6763    2.7255 H   0  0  0  0  0  0  0  0  0  0  0  0
    6.1910   -2.0080    2.9629 H   0  0  0  0  0  0  0  0  0  0  0  0
    3.8784   -3.2200    3.4705 H   0  0  0  0  0  0  0  0  0  0  0  0
    2.6849   -1.0456    2.7688 H   0  0  0  0  0  0  0  0  0  0  0  0
  1  2  1  0
  1 26  1  0
  1 27  1  0
  1 28  1  0
  2 25  1  0
  2  3  1  0
  2 47  1  6
  3  4  1  0
  3 29  1  0
  3 30  1  0
  4  5  2  0
  4 31  1  0
  5 23  1  0
  5  6  1  0
  6 11  2  0
  6  7  1  0
  7  8  2  0
  7 32  1  0
  8  9  1  0
  9 10  2  0
  9 33  1  0
 10 11  1  0
 10 34  1  0
 12 11  1  6
 12 18  1  0
 12 23  1  0
 12 13  1  0
 13 25  1  0
 13 14  1  0
 13 35  1  6
 14 15  1  0
 14 36  1  0
 14 37  1  0
 15 16  1  0
 15 38  1  0
 15 39  1  0
 16 17  1  0
 16 18  1  0
 17 40  1  0
 17 41  1  0
 17 42  1  0
 18 19  1  0
 18 43  1  6
 19 24  1  0
 19 20  1  0
 19 44  1  1
 20 21  1  0
 21 22  2  0
 23 21  1  6
 23 24  1  0
 24 25  1  0
 24 45  1  1
 25 46  1  1
M  CHG  1   2   1
M  END
>  <i_m_ct_stereo_status>  (295) 
1

>  <s_m_source_file>  (295) 
/var/tmp/pbs.5076255.sched01/tmpyc7t0a4i/88yk12rjyo.sdf

>  <i_m_source_file_index>  (295) 
38

>  <i_lp_mmshare_version>  (295) 
48012

>  <i_f3d_flags>  (295) 
0

>  <s_epik_input>  (295) 
W2NIXTFuW2NIXVtjSF1jMmMxQyhbQ0BAXTM0W0NAXTI1Nik9W0NIXVtDSDJdTihbQ0gzXSlbQ0BIXTdbQ0BASF01W0NIMl1bQ0gyXU4oW0NIM10pW0NAQEhdNltDQEhdKFtDQEBIXTQ3KU9DMz1P

>  <s_epik_cmdline>  (295) 
J2VwaWtfcHl0aG9uJywgJy1waHQnLCAnMi4wJywgJy1waCcsICc3LjAnLCAnLXRuJywgJzgnLCAnLW1hJywgJzIwMCcsICctaW1hZScsICc8aW5maWxlLm1hZT4nLCAnLW9tYWUnLCAnPG91dGZpbGUubWFlPic=

>  <r_epik_Ionization_Penalty>  (295) 
0.6176

>  <r_epik_Ionization_Penalty_Charging>  (295) 
0.545016

>  <r_epik_Ionization_Penalty_Neutral>  (295) 
0.0725841

>  <r_epik_State_Penalty>  (295) 
1.22357

>  <r_epik_Charging_Adjusted_Penalty>  (295) 
1.76858

>  <i_epik_Tot_Q>  (295) 
1

>  <i_epik_Tot_abs_Q>  (295) 
1

>  <s_epik_Chemistry_Notes>  (295) 
This compound has an ester and may undergo hydrolysis at high or low pH.

>  <s_lp_Force_Field>  (295) 
OPLS3e

>  <r_lp_Energy>  (295) 
112.512

>  <b_lp_Chiralities_Consistent>  (295) 
1

>  <s_lp_Variant>  (295) 
82:0-3

>  <s_i_glide_gridfile>  (295) 
pfpi4k_grid

>  <i_i_glide_lignum>  (295) 
38

>  <i_i_glide_rotatable_bonds>  (295) 
0

>  <r_i_docking_score>  (295) 
-3.71313

>  <r_i_glide_ligand_efficiency>  (295) 
-0.148525

>  <r_i_glide_ligand_efficiency_sa>  (295) 
-0.434291

>  <r_i_glide_ligand_efficiency_ln>  (295) 
-0.880124

>  <r_i_glide_gscore>  (295) 
-3.71313

>  <r_i_glide_lipo>  (295) 
-0.629061

>  <r_i_glide_hbond>  (295) 
-0.121426

>  <r_i_glide_metal>  (295) 
-0

>  <r_i_glide_rewards>  (295) 
-1.26043

>  <r_i_glide_evdw>  (295) 
-17.6347

>  <r_i_glide_ecoul>  (295) 
-5.46986

>  <r_i_glide_erotb>  (295) 
0

>  <r_i_glide_esite>  (295) 
0

>  <r_i_glide_emodel>  (295) 
-29.847

>  <r_i_glide_energy>  (295) 
-23.1045

>  <r_i_glide_einternal>  (295) 
0

>  <r_i_glide_intrahb_reward>  (295) 
-0

>  <i_i_glide_confnum>  (295) 
1

>  <i_i_glide_posenum>  (295) 
4

>  <r_i_glide_eff_state_penalty>  (295) 
0

>  <ligand_id>  (295) 
82

>  <original_smiles>  (295) 
CN1CC=C2c3cnccc3C34C5CCN(C)C3C3OC(=O)C24C3C51

>  <smiles>  (295) 
[H]C1=C2c3c([H])nc([H])c([H])c3C34C25C(=O)OC2([H])C3([H])N(C([H])([H])[H])C([H])([H])C([H])([H])C4([H])C([H])(C25[H])[N+]([H])(C([H])([H])[H])C1([H])[H]

$$$$
82:2:1
     RDKit          3D

 47 53  0  0  1  0  0  0  0  0999 V2000
    3.4310   -1.5296   -2.3515 C   0  0  0  0  0  0  0  0  0  0  0  0
    3.0178   -2.2500   -1.1150 N   0  0  1  0  0  0  0  0  0  0  0  0
    2.8638   -3.7142   -1.4447 C   0  0  0  0  0  0  0  0  0  0  0  0
    2.4195   -4.5930   -0.2928 C   0  0  0  0  0  0  0  0  0  0  0  0
    3.0825   -4.6475    0.8695 C   0  0  0  0  0  0  0  0  0  0  0  0
    2.4733   -4.8708    2.1793 C   0  0  0  0  0  0  0  0  0  0  0  0
    1.5118   -5.7795    2.6414 C   0  0  0  0  0  0  0  0  0  0  0  0
    1.1088   -5.7654    3.9319 N   0  0  0  0  0  0  0  0  0  0  0  0
    1.6638   -4.8636    4.7833 C   0  0  0  0  0  0  0  0  0  0  0  0
    2.6032   -3.8843    4.3963 C   0  0  0  0  0  0  0  0  0  0  0  0
    2.9855   -3.8932    3.0451 C   0  0  0  0  0  0  0  0  0  0  0  0
    3.9050   -2.9530    2.2813 C   0  0  1  0  0  0  0  0  0  0  0  0
    3.1437   -1.8631    1.4452 C   0  0  1  0  0  0  0  0  0  0  0  0
    3.1531   -0.4989    2.1487 C   0  0  0  0  0  0  0  0  0  0  0  0
    4.5699   -0.0433    2.5202 C   0  0  0  0  0  0  0  0  0  0  0  0
    5.2707   -1.0282    3.3350 N   0  0  0  0  0  0  0  0  0  0  0  0
    4.8759   -0.9475    4.7382 C   0  0  0  0  0  0  0  0  0  0  0  0
    5.2473   -2.3989    2.8048 C   0  0  2  0  0  0  0  0  0  0  0  0
    6.0504   -2.5841    1.4662 C   0  0  1  0  0  0  0  0  0  0  0  0
    6.5802   -3.9080    1.5846 O   0  0  0  0  0  0  0  0  0  0  0  0
    5.5827   -4.7841    1.4591 C   0  0  0  0  0  0  0  0  0  0  0  0
    5.6179   -6.0106    1.5266 O   0  0  0  0  0  0  0  0  0  0  0  0
    4.3611   -3.9100    1.1663 C   0  0  1  0  0  0  0  0  0  0  0  0
    5.0083   -2.8593    0.3172 C   0  0  1  0  0  0  0  0  0  0  0  0
    3.8758   -1.8622    0.0723 C   0  0  1  0  0  0  0  0  0  0  0  0
    4.4446   -1.8171   -2.6554 H   0  0  0  0  0  0  0  0  0  0  0  0
    3.4156   -0.4483   -2.2102 H   0  0  0  0  0  0  0  0  0  0  0  0
    2.7589   -1.7524   -3.1851 H   0  0  0  0  0  0  0  0  0  0  0  0
    2.0979   -3.8148   -2.2121 H   0  0  0  0  0  0  0  0  0  0  0  0
    3.7700   -4.1318   -1.8834 H   0  0  0  0  0  0  0  0  0  0  0  0
    1.4304   -5.0047   -0.3753 H   0  0  0  0  0  0  0  0  0  0  0  0
    1.0577   -6.5055    1.9833 H   0  0  0  0  0  0  0  0  0  0  0  0
    1.3299   -4.9183    5.8109 H   0  0  0  0  0  0  0  0  0  0  0  0
    3.0113   -3.1838    5.1058 H   0  0  0  0  0  0  0  0  0  0  0  0
    2.1014   -2.1538    1.2932 H   0  0  0  0  0  0  0  0  0  0  0  0
    2.6832    0.2554    1.5164 H   0  0  0  0  0  0  0  0  0  0  0  0
    2.5402   -0.5534    3.0461 H   0  0  0  0  0  0  0  0  0  0  0  0
    5.1542    0.1447    1.6197 H   0  0  0  0  0  0  0  0  0  0  0  0
    4.5243    0.9006    3.0638 H   0  0  0  0  0  0  0  0  0  0  0  0
    5.4663   -1.6286    5.3538 H   0  0  0  0  0  0  0  0  0  0  0  0
    3.8214   -1.1737    4.8837 H   0  0  0  0  0  0  0  0  0  0  0  0
    5.0510    0.0589    5.1226 H   0  0  0  0  0  0  0  0  0  0  0  0
    5.6751   -3.0512    3.5701 H   0  0  0  0  0  0  0  0  0  0  0  0
    6.8203   -1.8387    1.2651 H   0  0  0  0  0  0  0  0  0  0  0  0
    5.4830   -3.2139   -0.6051 H   0  0  0  0  0  0  0  0  0  0  0  0
    4.3025   -0.8801   -0.1232 H   0  0  0  0  0  0  0  0  0  0  0  0
    2.0776   -1.8714   -0.9329 H   0  0  0  0  0  0  0  0  0  0  0  0
  1  2  1  0
  1 26  1  0
  1 27  1  0
  1 28  1  0
  2 25  1  0
  2  3  1  0
  2 47  1  1
  3  4  1  0
  3 29  1  0
  3 30  1  0
  4  5  2  0
  4 31  1  0
  5 23  1  0
  5  6  1  0
  6 11  2  0
  6  7  1  0
  7  8  2  0
  7 32  1  0
  8  9  1  0
  9 10  2  0
  9 33  1  0
 10 11  1  0
 10 34  1  0
 12 11  1  1
 12 18  1  0
 12 23  1  0
 12 13  1  0
 13 25  1  0
 13 14  1  0
 13 35  1  6
 14 15  1  0
 14 36  1  0
 14 37  1  0
 15 16  1  0
 15 38  1  0
 15 39  1  0
 16 17  1  0
 16 18  1  0
 17 40  1  0
 17 41  1  0
 17 42  1  0
 18 19  1  0
 18 43  1  1
 19 24  1  0
 19 20  1  0
 19 44  1  6
 20 21  1  0
 21 22  2  0
 23 21  1  1
 23 24  1  0
 24 25  1  0
 24 45  1  6
 25 46  1  6
M  CHG  1   2   1
M  END
>  <i_m_ct_stereo_status>  (296) 
1

>  <s_m_source_file>  (296) 
/var/tmp/pbs.5076255.sched01/tmpyc7t0a4i/88yk12rjyo.sdf

>  <i_m_source_file_index>  (296) 
38

>  <i_lp_mmshare_version>  (296) 
48012

>  <i_f3d_flags>  (296) 
0

>  <s_epik_input>  (296) 
W2NIXTFuW2NIXVtjSF1jMmMxQyhbQ0BAXTM0W0NAXTI1Nik9W0NIXVtDSDJdTihbQ0gzXSlbQ0BIXTdbQ0BASF01W0NIMl1bQ0gyXU4oW0NIM10pW0NAQEhdNltDQEhdKFtDQEBIXTQ3KU9DMz1P

>  <s_epik_cmdline>  (296) 
J2VwaWtfcHl0aG9uJywgJy1waHQnLCAnMi4wJywgJy1waCcsICc3LjAnLCAnLXRuJywgJzgnLCAnLW1hJywgJzIwMCcsICctaW1hZScsICc8aW5maWxlLm1hZT4nLCAnLW9tYWUnLCAnPG91dGZpbGUubWFlPic=

>  <r_epik_Ionization_Penalty>  (296) 
0.6176

>  <r_epik_Ionization_Penalty_Charging>  (296) 
0.545016

>  <r_epik_Ionization_Penalty_Neutral>  (296) 
0.0725841

>  <r_epik_State_Penalty>  (296) 
1.22357

>  <r_epik_Charging_Adjusted_Penalty>  (296) 
1.76858

>  <i_epik_Tot_Q>  (296) 
1

>  <i_epik_Tot_abs_Q>  (296) 
1

>  <s_epik_Chemistry_Notes>  (296) 
This compound has an ester and may undergo hydrolysis at high or low pH.

>  <s_lp_Force_Field>  (296) 
OPLS3e

>  <r_lp_Energy>  (296) 
112.512

>  <b_lp_Chiralities_Consistent>  (296) 
1

>  <s_lp_Variant>  (296) 
82:0-3

>  <s_i_glide_gridfile>  (296) 
pfpi4k_grid

>  <i_i_glide_lignum>  (296) 
38

>  <i_i_glide_rotatable_bonds>  (296) 
0

>  <r_i_docking_score>  (296) 
-3.54456

>  <r_i_glide_ligand_efficiency>  (296) 
-0.141783

>  <r_i_glide_ligand_efficiency_sa>  (296) 
-0.414575

>  <r_i_glide_ligand_efficiency_ln>  (296) 
-0.840168

>  <r_i_glide_gscore>  (296) 
-3.54456

>  <r_i_glide_lipo>  (296) 
-0.338333

>  <r_i_glide_hbond>  (296) 
-0.2

>  <r_i_glide_metal>  (296) 
-0

>  <r_i_glide_rewards>  (296) 
-1.19072

>  <r_i_glide_evdw>  (296) 
-16.4424

>  <r_i_glide_ecoul>  (296) 
-6.06718

>  <r_i_glide_erotb>  (296) 
0

>  <r_i_glide_esite>  (296) 
-0.0833103

>  <r_i_glide_emodel>  (296) 
-29.0236

>  <r_i_glide_energy>  (296) 
-22.5096

>  <r_i_glide_einternal>  (296) 
0

>  <r_i_glide_intrahb_reward>  (296) 
-0

>  <i_i_glide_confnum>  (296) 
2

>  <i_i_glide_posenum>  (296) 
13

>  <r_i_glide_eff_state_penalty>  (296) 
0

>  <ligand_id>  (296) 
82

>  <original_smiles>  (296) 
CN1CC=C2c3cnccc3C34C5CCN(C)C3C3OC(=O)C24C3C51

>  <smiles>  (296) 
[H]C1=C2c3c([H])nc([H])c([H])c3C34C25C(=O)OC2([H])C3([H])N(C([H])([H])[H])C([H])([H])C([H])([H])C4([H])C([H])(C25[H])[N+]([H])(C([H])([H])[H])C1([H])[H]

$$$$
82:2:2
     RDKit          3D

 47 53  0  0  1  0  0  0  0  0999 V2000
    2.2509    0.3820    1.4709 C   0  0  0  0  0  0  0  0  0  0  0  0
    1.4884    0.9786    2.5975 N   0  0  1  0  0  0  0  0  0  0  0  0
    0.0229    1.0076    2.2257 C   0  0  0  0  0  0  0  0  0  0  0  0
   -0.8908    1.5994    3.2838 C   0  0  0  0  0  0  0  0  0  0  0  0
   -0.9293    1.1319    4.5368 C   0  0  0  0  0  0  0  0  0  0  0  0
   -1.1895    1.9435    5.7281 C   0  0  0  0  0  0  0  0  0  0  0  0
   -2.1490    2.9281    6.0148 C   0  0  0  0  0  0  0  0  0  0  0  0
   -2.1890    3.5262    7.2319 N   0  0  0  0  0  0  0  0  0  0  0  0
   -1.2715    3.1698    8.1683 C   0  0  0  0  0  0  0  0  0  0  0  0
   -0.2444    2.2264    7.9508 C   0  0  0  0  0  0  0  0  0  0  0  0
   -0.2105    1.6253    6.6795 C   0  0  0  0  0  0  0  0  0  0  0  0
    0.7835    0.6371    6.0897 C   0  0  1  0  0  0  0  0  0  0  0  0
    1.8478    1.3010    5.1446 C   0  0  1  0  0  0  0  0  0  0  0  0
    3.2033    1.4716    5.8497 C   0  0  0  0  0  0  0  0  0  0  0  0
    3.7204    0.1552    6.4536 C   0  0  0  0  0  0  0  0  0  0  0  0
    2.7535   -0.4381    7.3727 N   0  0  0  0  0  0  0  0  0  0  0  0
    2.7957    0.1906    8.6897 C   0  0  0  0  0  0  0  0  0  0  0  0
    1.3936   -0.5709    6.8342 C   0  0  2  0  0  0  0  0  0  0  0  0
    1.2617   -1.5943    5.6485 C   0  0  1  0  0  0  0  0  0  0  0  0
   -0.0385   -2.1546    5.8526 O   0  0  0  0  0  0  0  0  0  0  0  0
   -0.9582   -1.2403    5.5539 C   0  0  0  0  0  0  0  0  0  0  0  0
   -2.1810   -1.3116    5.6511 O   0  0  0  0  0  0  0  0  0  0  0  0
   -0.1377   -0.0445    5.0581 C   0  0  1  0  0  0  0  0  0  0  0  0
    0.9552   -0.7673    4.3388 C   0  0  1  0  0  0  0  0  0  0  0  0
    1.9018    0.3483    3.9147 C   0  0  1  0  0  0  0  0  0  0  0  0
    2.0251   -0.6766    1.3421 H   0  0  0  0  0  0  0  0  0  0  0  0
    3.3275    0.4998    1.6074 H   0  0  0  0  0  0  0  0  0  0  0  0
    1.9707    0.8686    0.5430 H   0  0  0  0  0  0  0  0  0  0  0  0
   -0.0899    1.6401    1.3443 H   0  0  0  0  0  0  0  0  0  0  0  0
   -0.3418    0.0317    1.9255 H   0  0  0  0  0  0  0  0  0  0  0  0
   -1.3265    2.5577    3.0452 H   0  0  0  0  0  0  0  0  0  0  0  0
   -2.8890    3.2284    5.2885 H   0  0  0  0  0  0  0  0  0  0  0  0
   -1.3514    3.6694    9.1222 H   0  0  0  0  0  0  0  0  0  0  0  0
    0.4700    1.9840    8.7197 H   0  0  0  0  0  0  0  0  0  0  0  0
    1.5109    2.2861    4.8210 H   0  0  0  0  0  0  0  0  0  0  0  0
    3.9437    1.8683    5.1538 H   0  0  0  0  0  0  0  0  0  0  0  0
    3.1057    2.2216    6.6359 H   0  0  0  0  0  0  0  0  0  0  0  0
    3.9456   -0.5638    5.6668 H   0  0  0  0  0  0  0  0  0  0  0  0
    4.6605    0.3260    6.9790 H   0  0  0  0  0  0  0  0  0  0  0  0
    2.1355   -0.3224    9.3906 H   0  0  0  0  0  0  0  0  0  0  0  0
    2.5179    1.2417    8.6556 H   0  0  0  0  0  0  0  0  0  0  0  0
    3.8025    0.1274    9.1028 H   0  0  0  0  0  0  0  0  0  0  0  0
    0.7512   -0.8956    7.6566 H   0  0  0  0  0  0  0  0  0  0  0  0
    2.0503   -2.3474    5.5848 H   0  0  0  0  0  0  0  0  0  0  0  0
    0.6416   -1.4094    3.5055 H   0  0  0  0  0  0  0  0  0  0  0  0
    2.9040   -0.0577    3.8054 H   0  0  0  0  0  0  0  0  0  0  0  0
    1.7797    1.9480    2.6393 H   0  0  0  0  0  0  0  0  0  0  0  0
  1  2  1  0
  1 26  1  0
  1 27  1  0
  1 28  1  0
  2 25  1  0
  2  3  1  0
  2 47  1  1
  3  4  1  0
  3 29  1  0
  3 30  1  0
  4  5  2  0
  4 31  1  0
  5 23  1  0
  5  6  1  0
  6 11  2  0
  6  7  1  0
  7  8  2  0
  7 32  1  0
  8  9  1  0
  9 10  2  0
  9 33  1  0
 10 11  1  0
 10 34  1  0
 12 11  1  1
 12 18  1  0
 12 23  1  0
 12 13  1  0
 13 25  1  0
 13 14  1  0
 13 35  1  6
 14 15  1  0
 14 36  1  0
 14 37  1  0
 15 16  1  0
 15 38  1  0
 15 39  1  0
 16 17  1  0
 16 18  1  0
 17 40  1  0
 17 41  1  0
 17 42  1  0
 18 19  1  0
 18 43  1  1
 19 24  1  0
 19 20  1  0
 19 44  1  6
 20 21  1  0
 21 22  2  0
 23 21  1  1
 23 24  1  0
 24 25  1  0
 24 45  1  6
 25 46  1  6
M  CHG  1   2   1
M  END
>  <i_m_ct_stereo_status>  (297) 
1

>  <s_m_source_file>  (297) 
/var/tmp/pbs.5076255.sched01/tmpyc7t0a4i/88yk12rjyo.sdf

>  <i_m_source_file_index>  (297) 
38

>  <i_lp_mmshare_version>  (297) 
48012

>  <i_f3d_flags>  (297) 
0

>  <s_epik_input>  (297) 
W2NIXTFuW2NIXVtjSF1jMmMxQyhbQ0BAXTM0W0NAXTI1Nik9W0NIXVtDSDJdTihbQ0gzXSlbQ0BIXTdbQ0BASF01W0NIMl1bQ0gyXU4oW0NIM10pW0NAQEhdNltDQEhdKFtDQEBIXTQ3KU9DMz1P

>  <s_epik_cmdline>  (297) 
J2VwaWtfcHl0aG9uJywgJy1waHQnLCAnMi4wJywgJy1waCcsICc3LjAnLCAnLXRuJywgJzgnLCAnLW1hJywgJzIwMCcsICctaW1hZScsICc8aW5maWxlLm1hZT4nLCAnLW9tYWUnLCAnPG91dGZpbGUubWFlPic=

>  <r_epik_Ionization_Penalty>  (297) 
0.6176

>  <r_epik_Ionization_Penalty_Charging>  (297) 
0.545016

>  <r_epik_Ionization_Penalty_Neutral>  (297) 
0.0725841

>  <r_epik_State_Penalty>  (297) 
1.22357

>  <r_epik_Charging_Adjusted_Penalty>  (297) 
1.76858

>  <i_epik_Tot_Q>  (297) 
1

>  <i_epik_Tot_abs_Q>  (297) 
1

>  <s_epik_Chemistry_Notes>  (297) 
This compound has an ester and may undergo hydrolysis at high or low pH.

>  <s_lp_Force_Field>  (297) 
OPLS3e

>  <r_lp_Energy>  (297) 
112.512

>  <b_lp_Chiralities_Consistent>  (297) 
1

>  <s_lp_Variant>  (297) 
82:0-3

>  <s_i_glide_gridfile>  (297) 
pfpi4k_grid

>  <i_i_glide_lignum>  (297) 
38

>  <i_i_glide_rotatable_bonds>  (297) 
0

>  <r_i_docking_score>  (297) 
-3.05788

>  <r_i_glide_ligand_efficiency>  (297) 
-0.122315

>  <r_i_glide_ligand_efficiency_sa>  (297) 
-0.357652

>  <r_i_glide_ligand_efficiency_ln>  (297) 
-0.72481

>  <r_i_glide_gscore>  (297) 
-3.05788

>  <r_i_glide_lipo>  (297) 
-0.0667517

>  <r_i_glide_hbond>  (297) 
-0.021176

>  <r_i_glide_metal>  (297) 
-0

>  <r_i_glide_rewards>  (297) 
-1.1154

>  <r_i_glide_evdw>  (297) 
-17.7271

>  <r_i_glide_ecoul>  (297) 
-6.01954

>  <r_i_glide_erotb>  (297) 
0

>  <r_i_glide_esite>  (297) 
-0.065269

>  <r_i_glide_emodel>  (297) 
-29.3575

>  <r_i_glide_energy>  (297) 
-23.7466

>  <r_i_glide_einternal>  (297) 
0

>  <r_i_glide_intrahb_reward>  (297) 
-0

>  <i_i_glide_confnum>  (297) 
1

>  <i_i_glide_posenum>  (297) 
22

>  <r_i_glide_eff_state_penalty>  (297) 
0

>  <ligand_id>  (297) 
82

>  <original_smiles>  (297) 
CN1CC=C2c3cnccc3C34C5CCN(C)C3C3OC(=O)C24C3C51

>  <smiles>  (297) 
[H]C1=C2c3c([H])nc([H])c([H])c3C34C25C(=O)OC2([H])C3([H])N(C([H])([H])[H])C([H])([H])C([H])([H])C4([H])C([H])(C25[H])[N+]([H])(C([H])([H])[H])C1([H])[H]

$$$$
82:3:0
     RDKit          3D

 47 53  0  0  1  0  0  0  0  0999 V2000
    4.7417   -1.6215    4.3586 C   0  0  0  0  0  0  0  0  0  0  0  0
    4.4456   -1.5825    2.9256 N   0  0  0  0  0  0  0  0  0  0  0  0
    5.2848   -0.5115    2.3315 C   0  0  0  0  0  0  0  0  0  0  0  0
    5.1110   -0.3251    0.8377 C   0  0  0  0  0  0  0  0  0  0  0  0
    5.2611   -1.3064   -0.0435 C   0  0  0  0  0  0  0  0  0  0  0  0
    4.5245   -1.4681   -1.2973 C   0  0  0  0  0  0  0  0  0  0  0  0
    4.2072   -0.5873   -2.3410 C   0  0  0  0  0  0  0  0  0  0  0  0
    3.4602   -1.0477   -3.3781 N   0  0  0  0  0  0  0  0  0  0  0  0
    3.0094   -2.3213   -3.4555 C   0  0  0  0  0  0  0  0  0  0  0  0
    3.2654   -3.2384   -2.4063 C   0  0  0  0  0  0  0  0  0  0  0  0
    4.0265   -2.7886   -1.3220 C   0  0  0  0  0  0  0  0  0  0  0  0
    4.4192   -3.5086   -0.0432 C   0  0  1  0  0  0  0  0  0  0  0  0
    3.4995   -3.1663    1.1839 C   0  0  1  0  0  0  0  0  0  0  0  0
    2.4841   -4.2765    1.4523 C   0  0  0  0  0  0  0  0  0  0  0  0
    3.0983   -5.6686    1.5812 C   0  0  0  0  0  0  0  0  0  0  0  0
    3.8695   -5.9555    0.3851 N   0  0  0  0  0  0  0  0  0  0  0  0
    4.3899   -7.3194    0.4572 C   0  0  0  0  0  0  0  0  0  0  0  0
    4.9068   -4.9720    0.0477 C   0  0  2  0  0  0  0  0  0  0  0  0
    6.0530   -4.7172    1.1000 C   0  0  1  0  0  0  0  0  0  0  0  0
    7.1807   -4.3940    0.2724 O   0  0  0  0  0  0  0  0  0  0  0  0
    6.9939   -3.1886   -0.2838 C   0  0  0  0  0  0  0  0  0  0  0  0
    7.6928   -2.5627   -1.0809 O   0  0  0  0  0  0  0  0  0  0  0  0
    5.6762   -2.7134    0.3206 C   0  0  1  0  0  0  0  0  0  0  0  0
    5.7984   -3.2750    1.6961 C   0  0  1  0  0  0  0  0  0  0  0  0
    4.4755   -2.9553    2.3564 C   0  0  1  0  0  0  0  0  0  0  0  0
    4.6078   -0.6382    4.8064 H   0  0  0  0  0  0  0  0  0  0  0  0
    5.7632   -1.9388    4.5600 H   0  0  0  0  0  0  0  0  0  0  0  0
    4.0695   -2.3021    4.8779 H   0  0  0  0  0  0  0  0  0  0  0  0
    4.9983    0.4199    2.8038 H   0  0  0  0  0  0  0  0  0  0  0  0
    6.3461   -0.6321    2.5490 H   0  0  0  0  0  0  0  0  0  0  0  0
    4.5719    0.5690    0.5495 H   0  0  0  0  0  0  0  0  0  0  0  0
    4.4789    0.4568   -2.3583 H   0  0  0  0  0  0  0  0  0  0  0  0
    2.4078   -2.5765   -4.3190 H   0  0  0  0  0  0  0  0  0  0  0  0
    2.8862   -4.2508   -2.4295 H   0  0  0  0  0  0  0  0  0  0  0  0
    2.9540   -2.2441    0.9972 H   0  0  0  0  0  0  0  0  0  0  0  0
    1.8748   -4.0418    2.3290 H   0  0  0  0  0  0  0  0  0  0  0  0
    1.8418   -4.3071    0.5779 H   0  0  0  0  0  0  0  0  0  0  0  0
    3.6970   -5.7631    2.4849 H   0  0  0  0  0  0  0  0  0  0  0  0
    2.2903   -6.4018    1.6435 H   0  0  0  0  0  0  0  0  0  0  0  0
    4.8914   -7.5773   -0.4679 H   0  0  0  0  0  0  0  0  0  0  0  0
    3.5761   -8.0324    0.5716 H   0  0  0  0  0  0  0  0  0  0  0  0
    5.0802   -7.4661    1.2858 H   0  0  0  0  0  0  0  0  0  0  0  0
    5.3510   -5.2878   -0.9017 H   0  0  0  0  0  0  0  0  0  0  0  0
    6.2558   -5.5157    1.8120 H   0  0  0  0  0  0  0  0  0  0  0  0
    6.6252   -2.8854    2.2720 H   0  0  0  0  0  0  0  0  0  0  0  0
    4.2800   -3.6787    3.1449 H   0  0  0  0  0  0  0  0  0  0  0  0
    3.1839   -0.3849   -4.1074 H   0  0  0  0  0  0  0  0  0  0  0  0
  1  2  1  0
  1 26  1  0
  1 27  1  0
  1 28  1  0
  2 25  1  0
  2  3  1  0
  3  4  1  0
  3 29  1  0
  3 30  1  0
  4  5  2  0
  4 31  1  0
  5 23  1  0
  5  6  1  0
  6 11  2  0
  6  7  1  0
  7  8  2  0
  7 32  1  0
  8  9  1  0
  8 47  1  0
  9 10  2  0
  9 33  1  0
 10 11  1  0
 10 34  1  0
 12 11  1  6
 12 18  1  0
 12 23  1  0
 12 13  1  0
 13 25  1  0
 13 14  1  0
 13 35  1  6
 14 15  1  0
 14 36  1  0
 14 37  1  0
 15 16  1  0
 15 38  1  0
 15 39  1  0
 16 17  1  0
 16 18  1  0
 17 40  1  0
 17 41  1  0
 17 42  1  0
 18 19  1  0
 18 43  1  6
 19 24  1  0
 19 20  1  0
 19 44  1  1
 20 21  1  0
 21 22  2  0
 23 21  1  6
 23 24  1  0
 24 25  1  0
 24 45  1  1
 25 46  1  1
M  CHG  1   8   1
M  END
>  <i_m_ct_stereo_status>  (298) 
1

>  <s_m_source_file>  (298) 
/var/tmp/pbs.5076255.sched01/tmpyc7t0a4i/88yk12rjyo.sdf

>  <i_m_source_file_index>  (298) 
39

>  <i_lp_mmshare_version>  (298) 
48012

>  <i_f3d_flags>  (298) 
0

>  <s_epik_input>  (298) 
W2NIXTFuW2NIXVtjSF1jMmMxQyhbQ0BAXTM0W0NAXTI1Nik9W0NIXVtDSDJdTihbQ0gzXSlbQ0BIXTdbQ0BASF01W0NIMl1bQ0gyXU4oW0NIM10pW0NAQEhdNltDQEhdKFtDQEBIXTQ3KU9DMz1P

>  <s_epik_cmdline>  (298) 
J2VwaWtfcHl0aG9uJywgJy1waHQnLCAnMi4wJywgJy1waCcsICc3LjAnLCAnLXRuJywgJzgnLCAnLW1hJywgJzIwMCcsICctaW1hZScsICc8aW5maWxlLm1hZT4nLCAnLW9tYWUnLCAnPG91dGZpbGUubWFlPic=

>  <r_epik_Ionization_Penalty>  (298) 
1.27642

>  <r_epik_Ionization_Penalty_Charging>  (298) 
1.09633

>  <r_epik_Ionization_Penalty_Neutral>  (298) 
0.180083

>  <r_epik_State_Penalty>  (298) 
1.82998

>  <r_epik_Charging_Adjusted_Penalty>  (298) 
2.92631

>  <i_epik_Tot_Q>  (298) 
1

>  <i_epik_Tot_abs_Q>  (298) 
1

>  <s_epik_Chemistry_Notes>  (298) 
This compound has an ester and may undergo hydrolysis at high or low pH.

>  <s_lp_Force_Field>  (298) 
OPLS3e

>  <r_lp_Energy>  (298) 
113.372

>  <b_lp_Chiralities_Consistent>  (298) 
1

>  <s_lp_Variant>  (298) 
82:0-4

>  <s_i_glide_gridfile>  (298) 
pfpi4k_grid

>  <i_i_glide_lignum>  (298) 
39

>  <i_i_glide_rotatable_bonds>  (298) 
0

>  <r_i_docking_score>  (298) 
-4.3167

>  <r_i_glide_ligand_efficiency>  (298) 
-0.172668

>  <r_i_glide_ligand_efficiency_sa>  (298) 
-0.504884

>  <r_i_glide_ligand_efficiency_ln>  (298) 
-1.02319

>  <r_i_glide_gscore>  (298) 
-4.3167

>  <r_i_glide_lipo>  (298) 
-0.992894

>  <r_i_glide_hbond>  (298) 
-0.159221

>  <r_i_glide_metal>  (298) 
-0

>  <r_i_glide_rewards>  (298) 
-1.27356

>  <r_i_glide_evdw>  (298) 
-20.9996

>  <r_i_glide_ecoul>  (298) 
-5.60694

>  <r_i_glide_erotb>  (298) 
0

>  <r_i_glide_esite>  (298) 
0

>  <r_i_glide_emodel>  (298) 
-34.9726

>  <r_i_glide_energy>  (298) 
-26.6066

>  <r_i_glide_einternal>  (298) 
0

>  <r_i_glide_intrahb_reward>  (298) 
-0

>  <i_i_glide_confnum>  (298) 
1

>  <i_i_glide_posenum>  (298) 
10

>  <r_i_glide_eff_state_penalty>  (298) 
0

>  <ligand_id>  (298) 
82

>  <original_smiles>  (298) 
CN1CC=C2c3cnccc3C34C5CCN(C)C3C3OC(=O)C24C3C51

>  <smiles>  (298) 
[H]C1=C2c3c(c([H])c([H])[n+]([H])c3[H])C34C25C(=O)OC2([H])C3([H])N(C([H])([H])[H])C([H])([H])C([H])([H])C4([H])C([H])(N(C([H])([H])[H])C1([H])[H])C25[H]

$$$$
82:3:1
     RDKit          3D

 47 53  0  0  1  0  0  0  0  0999 V2000
    3.2607   -1.3617    4.3695 C   0  0  0  0  0  0  0  0  0  0  0  0
    3.3970   -1.4640    2.9168 N   0  0  0  0  0  0  0  0  0  0  0  0
    4.1197   -0.2462    2.4711 C   0  0  0  0  0  0  0  0  0  0  0  0
    4.3638   -0.1681    0.9831 C   0  0  0  0  0  0  0  0  0  0  0  0
    4.9929   -1.1159    0.2876 C   0  0  0  0  0  0  0  0  0  0  0  0
    4.6670   -1.4817   -1.0910 C   0  0  0  0  0  0  0  0  0  0  0  0
    4.4573   -0.7423   -2.2704 C   0  0  0  0  0  0  0  0  0  0  0  0
    4.1958   -1.4272   -3.4151 N   0  0  0  0  0  0  0  0  0  0  0  0
    4.1363   -2.7879   -3.4697 C   0  0  0  0  0  0  0  0  0  0  0  0
    4.3207   -3.5672   -2.3028 C   0  0  0  0  0  0  0  0  0  0  0  0
    4.5386   -2.8875   -1.1040 C   0  0  0  0  0  0  0  0  0  0  0  0
    4.6843   -3.4506    0.3021 C   0  0  1  0  0  0  0  0  0  0  0  0
    3.3909   -3.3025    1.1665 C   0  0  1  0  0  0  0  0  0  0  0  0
    2.6070   -4.6201    1.2576 C   0  0  0  0  0  0  0  0  0  0  0  0
    3.4632   -5.8068    1.7014 C   0  0  0  0  0  0  0  0  0  0  0  0
    4.5921   -5.9538    0.7980 N   0  0  0  0  0  0  0  0  0  0  0  0
    5.3859   -7.1151    1.1952 C   0  0  0  0  0  0  0  0  0  0  0  0
    5.4240   -4.7549    0.6722 C   0  0  2  0  0  0  0  0  0  0  0  0
    6.1293   -4.1825    1.9417 C   0  0  1  0  0  0  0  0  0  0  0  0
    7.3244   -3.7059    1.2929 O   0  0  0  0  0  0  0  0  0  0  0  0
    7.0535   -2.5601    0.6705 C   0  0  0  0  0  0  0  0  0  0  0  0
    7.8033   -1.7989    0.0632 O   0  0  0  0  0  0  0  0  0  0  0  0
    5.5690   -2.3617    0.8974 C   0  0  1  0  0  0  0  0  0  0  0  0
    5.4215   -2.8094    2.3154 C   0  0  1  0  0  0  0  0  0  0  0  0
    3.9141   -2.8065    2.5372 C   0  0  1  0  0  0  0  0  0  0  0  0
    2.7758   -0.4256    4.6496 H   0  0  0  0  0  0  0  0  0  0  0  0
    4.2245   -1.4003    4.8793 H   0  0  0  0  0  0  0  0  0  0  0  0
    2.6397   -2.1665    4.7603 H   0  0  0  0  0  0  0  0  0  0  0  0
    3.5040    0.6165    2.7204 H   0  0  0  0  0  0  0  0  0  0  0  0
    5.0632   -0.0806    2.9923 H   0  0  0  0  0  0  0  0  0  0  0  0
    3.7681    0.5745    0.4852 H   0  0  0  0  0  0  0  0  0  0  0  0
    4.4990    0.3289   -2.3287 H   0  0  0  0  0  0  0  0  0  0  0  0
    3.9180   -3.2397   -4.4287 H   0  0  0  0  0  0  0  0  0  0  0  0
    4.2732   -4.6492   -2.3056 H   0  0  0  0  0  0  0  0  0  0  0  0
    2.7362   -2.5393    0.7402 H   0  0  0  0  0  0  0  0  0  0  0  0
    1.7654   -4.5026    1.9412 H   0  0  0  0  0  0  0  0  0  0  0  0
    2.1975   -4.8380    0.2756 H   0  0  0  0  0  0  0  0  0  0  0  0
    3.7868   -5.7002    2.7360 H   0  0  0  0  0  0  0  0  0  0  0  0
    2.8682   -6.7187    1.6441 H   0  0  0  0  0  0  0  0  0  0  0  0
    6.2202   -7.2536    0.5085 H   0  0  0  0  0  0  0  0  0  0  0  0
    4.7671   -8.0144    1.1409 H   0  0  0  0  0  0  0  0  0  0  0  0
    5.7729   -7.0506    2.2188 H   0  0  0  0  0  0  0  0  0  0  0  0
    6.1922   -4.9973   -0.0675 H   0  0  0  0  0  0  0  0  0  0  0  0
    6.3153   -4.8624    2.7754 H   0  0  0  0  0  0  0  0  0  0  0  0
    5.9586   -2.2208    3.0624 H   0  0  0  0  0  0  0  0  0  0  0  0
    3.6593   -3.5184    3.3214 H   0  0  0  0  0  0  0  0  0  0  0  0
    4.0280   -0.8910   -4.2680 H   0  0  0  0  0  0  0  0  0  0  0  0
  1  2  1  0
  1 26  1  0
  1 27  1  0
  1 28  1  0
  2 25  1  0
  2  3  1  0
  3  4  1  0
  3 29  1  0
  3 30  1  0
  4  5  2  0
  4 31  1  0
  5 23  1  0
  5  6  1  0
  6 11  2  0
  6  7  1  0
  7  8  2  0
  7 32  1  0
  8  9  1  0
  8 47  1  0
  9 10  2  0
  9 33  1  0
 10 11  1  0
 10 34  1  0
 12 11  1  6
 12 18  1  0
 12 23  1  0
 12 13  1  0
 13 25  1  0
 13 14  1  0
 13 35  1  6
 14 15  1  0
 14 36  1  0
 14 37  1  0
 15 16  1  0
 15 38  1  0
 15 39  1  0
 16 17  1  0
 16 18  1  0
 17 40  1  0
 17 41  1  0
 17 42  1  0
 18 19  1  0
 18 43  1  6
 19 24  1  0
 19 20  1  0
 19 44  1  1
 20 21  1  0
 21 22  2  0
 23 21  1  6
 23 24  1  0
 24 25  1  0
 24 45  1  1
 25 46  1  1
M  CHG  1   8   1
M  END
>  <i_m_ct_stereo_status>  (299) 
1

>  <s_m_source_file>  (299) 
/var/tmp/pbs.5076255.sched01/tmpyc7t0a4i/88yk12rjyo.sdf

>  <i_m_source_file_index>  (299) 
39

>  <i_lp_mmshare_version>  (299) 
48012

>  <i_f3d_flags>  (299) 
0

>  <s_epik_input>  (299) 
W2NIXTFuW2NIXVtjSF1jMmMxQyhbQ0BAXTM0W0NAXTI1Nik9W0NIXVtDSDJdTihbQ0gzXSlbQ0BIXTdbQ0BASF01W0NIMl1bQ0gyXU4oW0NIM10pW0NAQEhdNltDQEhdKFtDQEBIXTQ3KU9DMz1P

>  <s_epik_cmdline>  (299) 
J2VwaWtfcHl0aG9uJywgJy1waHQnLCAnMi4wJywgJy1waCcsICc3LjAnLCAnLXRuJywgJzgnLCAnLW1hJywgJzIwMCcsICctaW1hZScsICc8aW5maWxlLm1hZT4nLCAnLW9tYWUnLCAnPG91dGZpbGUubWFlPic=

>  <r_epik_Ionization_Penalty>  (299) 
1.27642

>  <r_epik_Ionization_Penalty_Charging>  (299) 
1.09633

>  <r_epik_Ionization_Penalty_Neutral>  (299) 
0.180083

>  <r_epik_State_Penalty>  (299) 
1.82998

>  <r_epik_Charging_Adjusted_Penalty>  (299) 
2.92631

>  <i_epik_Tot_Q>  (299) 
1

>  <i_epik_Tot_abs_Q>  (299) 
1

>  <s_epik_Chemistry_Notes>  (299) 
This compound has an ester and may undergo hydrolysis at high or low pH.

>  <s_lp_Force_Field>  (299) 
OPLS3e

>  <r_lp_Energy>  (299) 
113.372

>  <b_lp_Chiralities_Consistent>  (299) 
1

>  <s_lp_Variant>  (299) 
82:0-4

>  <s_i_glide_gridfile>  (299) 
pfpi4k_grid

>  <i_i_glide_lignum>  (299) 
39

>  <i_i_glide_rotatable_bonds>  (299) 
0

>  <r_i_docking_score>  (299) 
-3.52718

>  <r_i_glide_ligand_efficiency>  (299) 
-0.141087

>  <r_i_glide_ligand_efficiency_sa>  (299) 
-0.412541

>  <r_i_glide_ligand_efficiency_ln>  (299) 
-0.836046

>  <r_i_glide_gscore>  (299) 
-3.52718

>  <r_i_glide_lipo>  (299) 
-0.756711

>  <r_i_glide_hbond>  (299) 
-0.0955512

>  <r_i_glide_metal>  (299) 
-0

>  <r_i_glide_rewards>  (299) 
-1.24288

>  <r_i_glide_evdw>  (299) 
-20.3924

>  <r_i_glide_ecoul>  (299) 
-2.7494

>  <r_i_glide_erotb>  (299) 
0

>  <r_i_glide_esite>  (299) 
0

>  <r_i_glide_emodel>  (299) 
-29.5581

>  <r_i_glide_energy>  (299) 
-23.1418

>  <r_i_glide_einternal>  (299) 
0

>  <r_i_glide_intrahb_reward>  (299) 
-0

>  <i_i_glide_confnum>  (299) 
2

>  <i_i_glide_posenum>  (299) 
29

>  <r_i_glide_eff_state_penalty>  (299) 
0

>  <ligand_id>  (299) 
82

>  <original_smiles>  (299) 
CN1CC=C2c3cnccc3C34C5CCN(C)C3C3OC(=O)C24C3C51

>  <smiles>  (299) 
[H]C1=C2c3c(c([H])c([H])[n+]([H])c3[H])C34C25C(=O)OC2([H])C3([H])N(C([H])([H])[H])C([H])([H])C([H])([H])C4([H])C([H])(N(C([H])([H])[H])C1([H])[H])C25[H]

$$$$
82:3:2
     RDKit          3D

 47 53  0  0  1  0  0  0  0  0999 V2000
   -2.4515    2.5286    9.0707 C   0  0  0  0  0  0  0  0  0  0  0  0
   -1.9909    2.1948    7.7184 N   0  0  0  0  0  0  0  0  0  0  0  0
   -2.6855    3.1136    6.7801 C   0  0  0  0  0  0  0  0  0  0  0  0
   -2.3191    2.9593    5.3166 C   0  0  0  0  0  0  0  0  0  0  0  0
   -1.0607    2.9922    4.8765 C   0  0  0  0  0  0  0  0  0  0  0  0
   -0.5289    2.1872    3.7724 C   0  0  0  0  0  0  0  0  0  0  0  0
   -1.0186    1.9068    2.4860 C   0  0  0  0  0  0  0  0  0  0  0  0
   -0.2529    1.1285    1.6791 N   0  0  0  0  0  0  0  0  0  0  0  0
    0.9294    0.5815    2.0626 C   0  0  0  0  0  0  0  0  0  0  0  0
    1.4343    0.7855    3.3707 C   0  0  0  0  0  0  0  0  0  0  0  0
    0.6645    1.5975    4.2222 C   0  0  0  0  0  0  0  0  0  0  0  0
    0.8956    1.9509    5.6822 C   0  0  1  0  0  0  0  0  0  0  0  0
    0.0406    1.0809    6.6725 C   0  0  1  0  0  0  0  0  0  0  0  0
    0.8680   -0.0497    7.3059 C   0  0  0  0  0  0  0  0  0  0  0  0
    2.1714    0.4510    7.9368 C   0  0  0  0  0  0  0  0  0  0  0  0
    2.9530    1.1788    6.9476 N   0  0  0  0  0  0  0  0  0  0  0  0
    4.2372    1.5809    7.5203 C   0  0  0  0  0  0  0  0  0  0  0  0
    2.2535    2.3037    6.3092 C   0  0  2  0  0  0  0  0  0  0  0  0
    1.7340    3.4856    7.2143 C   0  0  1  0  0  0  0  0  0  0  0  0
    1.8630    4.6177    6.3408 O   0  0  0  0  0  0  0  0  0  0  0  0
    0.9337    4.5424    5.3844 C   0  0  0  0  0  0  0  0  0  0  0  0
    0.7083    5.3051    4.4472 O   0  0  0  0  0  0  0  0  0  0  0  0
    0.1401    3.2874    5.7458 C   0  0  1  0  0  0  0  0  0  0  0  0
    0.1564    3.3982    7.2406 C   0  0  1  0  0  0  0  0  0  0  0  0
   -0.5035    2.1059    7.7016 C   0  0  1  0  0  0  0  0  0  0  0  0
   -3.5402    2.5105    9.1353 H   0  0  0  0  0  0  0  0  0  0  0  0
   -2.1317    3.5227    9.3842 H   0  0  0  0  0  0  0  0  0  0  0  0
   -2.0745    1.8153    9.8049 H   0  0  0  0  0  0  0  0  0  0  0  0
   -3.7548    2.9393    6.8643 H   0  0  0  0  0  0  0  0  0  0  0  0
   -2.5395    4.1509    7.0700 H   0  0  0  0  0  0  0  0  0  0  0  0
   -3.0781    2.5326    4.6834 H   0  0  0  0  0  0  0  0  0  0  0  0
   -1.9359    2.3058    2.0823 H   0  0  0  0  0  0  0  0  0  0  0  0
    1.4291   -0.0058    1.3030 H   0  0  0  0  0  0  0  0  0  0  0  0
    2.3709    0.3557    3.7004 H   0  0  0  0  0  0  0  0  0  0  0  0
   -0.7979    0.6274    6.1486 H   0  0  0  0  0  0  0  0  0  0  0  0
    0.2754   -0.5774    8.0534 H   0  0  0  0  0  0  0  0  0  0  0  0
    1.1110   -0.7826    6.5380 H   0  0  0  0  0  0  0  0  0  0  0  0
    1.9772    1.0612    8.8188 H   0  0  0  0  0  0  0  0  0  0  0  0
    2.7521   -0.4100    8.2738 H   0  0  0  0  0  0  0  0  0  0  0  0
    4.8690    2.0673    6.7758 H   0  0  0  0  0  0  0  0  0  0  0  0
    4.7784    0.7031    7.8763 H   0  0  0  0  0  0  0  0  0  0  0  0
    4.1209    2.2582    8.3673 H   0  0  0  0  0  0  0  0  0  0  0  0
    2.9332    2.6996    5.5492 H   0  0  0  0  0  0  0  0  0  0  0  0
    2.2334    3.6278    8.1710 H   0  0  0  0  0  0  0  0  0  0  0  0
   -0.3117    4.2960    7.6569 H   0  0  0  0  0  0  0  0  0  0  0  0
   -0.1459    1.8559    8.6981 H   0  0  0  0  0  0  0  0  0  0  0  0
   -0.5748    0.9449    0.7070 H   0  0  0  0  0  0  0  0  0  0  0  0
  1  2  1  0
  1 26  1  0
  1 27  1  0
  1 28  1  0
  2 25  1  0
  2  3  1  0
  3  4  1  0
  3 29  1  0
  3 30  1  0
  4  5  2  0
  4 31  1  0
  5 23  1  0
  5  6  1  0
  6 11  2  0
  6  7  1  0
  7  8  2  0
  7 32  1  0
  8  9  1  0
  8 47  1  0
  9 10  2  0
  9 33  1  0
 10 11  1  0
 10 34  1  0
 12 11  1  6
 12 18  1  0
 12 23  1  0
 12 13  1  0
 13 25  1  0
 13 14  1  0
 13 35  1  6
 14 15  1  0
 14 36  1  0
 14 37  1  0
 15 16  1  0
 15 38  1  0
 15 39  1  0
 16 17  1  0
 16 18  1  0
 17 40  1  0
 17 41  1  0
 17 42  1  0
 18 19  1  0
 18 43  1  6
 19 24  1  0
 19 20  1  0
 19 44  1  1
 20 21  1  0
 21 22  2  0
 23 21  1  6
 23 24  1  0
 24 25  1  0
 24 45  1  6
 25 46  1  1
M  CHG  1   8   1
M  END
>  <i_m_ct_stereo_status>  (300) 
1

>  <s_m_source_file>  (300) 
/var/tmp/pbs.5076255.sched01/tmpyc7t0a4i/88yk12rjyo.sdf

>  <i_m_source_file_index>  (300) 
39

>  <i_lp_mmshare_version>  (300) 
48012

>  <i_f3d_flags>  (300) 
0

>  <s_epik_input>  (300) 
W2NIXTFuW2NIXVtjSF1jMmMxQyhbQ0BAXTM0W0NAXTI1Nik9W0NIXVtDSDJdTihbQ0gzXSlbQ0BIXTdbQ0BASF01W0NIMl1bQ0gyXU4oW0NIM10pW0NAQEhdNltDQEhdKFtDQEBIXTQ3KU9DMz1P

>  <s_epik_cmdline>  (300) 
J2VwaWtfcHl0aG9uJywgJy1waHQnLCAnMi4wJywgJy1waCcsICc3LjAnLCAnLXRuJywgJzgnLCAnLW1hJywgJzIwMCcsICctaW1hZScsICc8aW5maWxlLm1hZT4nLCAnLW9tYWUnLCAnPG91dGZpbGUubWFlPic=

>  <r_epik_Ionization_Penalty>  (300) 
1.27642

>  <r_epik_Ionization_Penalty_Charging>  (300) 
1.09633

>  <r_epik_Ionization_Penalty_Neutral>  (300) 
0.180083

>  <r_epik_State_Penalty>  (300) 
1.82998

>  <r_epik_Charging_Adjusted_Penalty>  (300) 
2.92631

>  <i_epik_Tot_Q>  (300) 
1

>  <i_epik_Tot_abs_Q>  (300) 
1

>  <s_epik_Chemistry_Notes>  (300) 
This compound has an ester and may undergo hydrolysis at high or low pH.

>  <s_lp_Force_Field>  (300) 
OPLS3e

>  <r_lp_Energy>  (300) 
113.372

>  <b_lp_Chiralities_Consistent>  (300) 
1

>  <s_lp_Variant>  (300) 
82:0-4

>  <s_i_glide_gridfile>  (300) 
pfpi4k_grid

>  <i_i_glide_lignum>  (300) 
39

>  <i_i_glide_rotatable_bonds>  (300) 
0

>  <r_i_docking_score>  (300) 
-3.27429

>  <r_i_glide_ligand_efficiency>  (300) 
-0.130971

>  <r_i_glide_ligand_efficiency_sa>  (300) 
-0.382963

>  <r_i_glide_ligand_efficiency_ln>  (300) 
-0.776104

>  <r_i_glide_gscore>  (300) 
-3.27429

>  <r_i_glide_lipo>  (300) 
-0.147235

>  <r_i_glide_hbond>  (300) 
-0.2

>  <r_i_glide_metal>  (300) 
-0

>  <r_i_glide_rewards>  (300) 
-1.1154

>  <r_i_glide_evdw>  (300) 
-16.8876

>  <r_i_glide_ecoul>  (300) 
-5.76305

>  <r_i_glide_erotb>  (300) 
0

>  <r_i_glide_esite>  (300) 
-0.102809

>  <r_i_glide_emodel>  (300) 
-28.9746

>  <r_i_glide_energy>  (300) 
-22.6507

>  <r_i_glide_einternal>  (300) 
0

>  <r_i_glide_intrahb_reward>  (300) 
-0

>  <i_i_glide_confnum>  (300) 
1

>  <i_i_glide_posenum>  (300) 
1

>  <r_i_glide_eff_state_penalty>  (300) 
0

>  <ligand_id>  (300) 
82

>  <original_smiles>  (300) 
CN1CC=C2c3cnccc3C34C5CCN(C)C3C3OC(=O)C24C3C51

>  <smiles>  (300) 
[H]C1=C2c3c(c([H])c([H])[n+]([H])c3[H])C34C25C(=O)OC2([H])C3([H])N(C([H])([H])[H])C([H])([H])C([H])([H])C4([H])C([H])(N(C([H])([H])[H])C1([H])[H])C25[H]

$$$$
82:4:0
     RDKit          3D

 48 54  0  0  1  0  0  0  0  0999 V2000
   -1.8792    2.4101    9.2596 C   0  0  0  0  0  0  0  0  0  0  0  0
   -1.4910    2.1517    7.8700 N   0  0  0  0  0  0  0  0  0  0  0  0
   -2.4542    2.8670    6.9927 C   0  0  0  0  0  0  0  0  0  0  0  0
   -2.1982    2.7239    5.5017 C   0  0  0  0  0  0  0  0  0  0  0  0
   -1.0219    2.9941    4.9353 C   0  0  0  0  0  0  0  0  0  0  0  0
   -0.4562    2.2804    3.7872 C   0  0  0  0  0  0  0  0  0  0  0  0
   -1.0164    1.8681    2.5671 C   0  0  0  0  0  0  0  0  0  0  0  0
   -0.2012    1.2410    1.6819 N   0  0  0  0  0  0  0  0  0  0  0  0
    1.1086    0.9835    1.9248 C   0  0  0  0  0  0  0  0  0  0  0  0
    1.7035    1.3317    3.1586 C   0  0  0  0  0  0  0  0  0  0  0  0
    0.8780    1.9704    4.1093 C   0  0  0  0  0  0  0  0  0  0  0  0
    1.1834    2.4053    5.5418 C   0  0  1  0  0  0  0  0  0  0  0  0
    0.6209    1.4263    6.6384 C   0  0  1  0  0  0  0  0  0  0  0  0
    1.7062    0.5133    7.2346 C   0  0  0  0  0  0  0  0  0  0  0  0
    2.9098    1.3070    7.7631 C   0  0  0  0  0  0  0  0  0  0  0  0
    3.4833    2.1711    6.7104 N   0  0  1  0  0  0  0  0  0  0  0  0
    4.3485    1.4082    5.7774 C   0  0  0  0  0  0  0  0  0  0  0  0
    2.4946    3.0639    6.0299 C   0  0  2  0  0  0  0  0  0  0  0  0
    1.8167    4.1552    6.9418 C   0  0  1  0  0  0  0  0  0  0  0  0
    1.6225    5.2502    6.0373 O   0  0  0  0  0  0  0  0  0  0  0  0
    0.6348    4.9417    5.1944 C   0  0  0  0  0  0  0  0  0  0  0  0
    0.1398    5.6063    4.2880 O   0  0  0  0  0  0  0  0  0  0  0  0
    0.1713    3.5619    5.6605 C   0  0  1  0  0  0  0  0  0  0  0  0
    0.3039    3.7406    7.1402 C   0  0  1  0  0  0  0  0  0  0  0  0
   -0.0277    2.3620    7.6967 C   0  0  1  0  0  0  0  0  0  0  0  0
   -2.9244    2.1496    9.4329 H   0  0  0  0  0  0  0  0  0  0  0  0
   -1.7565    3.4578    9.5405 H   0  0  0  0  0  0  0  0  0  0  0  0
   -1.2902    1.8110    9.9550 H   0  0  0  0  0  0  0  0  0  0  0  0
   -3.4468    2.4626    7.1895 H   0  0  0  0  0  0  0  0  0  0  0  0
   -2.5230    3.9272    7.2323 H   0  0  0  0  0  0  0  0  0  0  0  0
   -2.9132    2.1394    4.9512 H   0  0  0  0  0  0  0  0  0  0  0  0
   -2.0381    2.0467    2.2598 H   0  0  0  0  0  0  0  0  0  0  0  0
    1.6374    0.4981    1.1124 H   0  0  0  0  0  0  0  0  0  0  0  0
    2.7471    1.1242    3.3497 H   0  0  0  0  0  0  0  0  0  0  0  0
   -0.1484    0.7820    6.2149 H   0  0  0  0  0  0  0  0  0  0  0  0
    1.2889   -0.0942    8.0400 H   0  0  0  0  0  0  0  0  0  0  0  0
    2.0377   -0.2002    6.4772 H   0  0  0  0  0  0  0  0  0  0  0  0
    2.6297    1.9138    8.6217 H   0  0  0  0  0  0  0  0  0  0  0  0
    3.6708    0.6187    8.1352 H   0  0  0  0  0  0  0  0  0  0  0  0
    3.7847    0.6442    5.2394 H   0  0  0  0  0  0  0  0  0  0  0  0
    5.1406    0.8892    6.3225 H   0  0  0  0  0  0  0  0  0  0  0  0
    4.8312    2.0581    5.0456 H   0  0  0  0  0  0  0  0  0  0  0  0
    3.0166    3.5553    5.2053 H   0  0  0  0  0  0  0  0  0  0  0  0
    2.3691    4.4440    7.8394 H   0  0  0  0  0  0  0  0  0  0  0  0
   -0.2945    4.5430    7.5808 H   0  0  0  0  0  0  0  0  0  0  0  0
    0.4603    2.2381    8.6623 H   0  0  0  0  0  0  0  0  0  0  0  0
    4.1319    2.7843    7.1884 H   0  0  0  0  0  0  0  0  0  0  0  0
   -0.5770    0.9738    0.7533 H   0  0  0  0  0  0  0  0  0  0  0  0
  1  2  1  0
  1 26  1  0
  1 27  1  0
  1 28  1  0
  2 25  1  0
  2  3  1  0
  3  4  1  0
  3 29  1  0
  3 30  1  0
  4  5  2  0
  4 31  1  0
  5 23  1  0
  5  6  1  0
  6 11  2  0
  6  7  1  0
  7  8  2  0
  7 32  1  0
  8  9  1  0
  8 48  1  0
  9 10  2  0
  9 33  1  0
 10 11  1  0
 10 34  1  0
 12 11  1  6
 12 18  1  0
 12 23  1  0
 12 13  1  0
 13 25  1  0
 13 14  1  0
 13 35  1  6
 14 15  1  0
 14 36  1  0
 14 37  1  0
 15 16  1  0
 15 38  1  0
 15 39  1  0
 16 17  1  0
 16 18  1  0
 16 47  1  1
 17 40  1  0
 17 41  1  0
 17 42  1  0
 18 19  1  0
 18 43  1  6
 19 24  1  0
 19 20  1  0
 19 44  1  1
 20 21  1  0
 21 22  2  0
 23 21  1  6
 23 24  1  0
 24 25  1  0
 24 45  1  1
 25 46  1  1
M  CHG  2   8   1  16   1
M  END
>  <i_m_ct_stereo_status>  (301) 
1

>  <s_m_source_file>  (301) 
/var/tmp/pbs.5076255.sched01/tmpyc7t0a4i/88yk12rjyo.sdf

>  <i_m_source_file_index>  (301) 
40

>  <i_lp_mmshare_version>  (301) 
48012

>  <i_f3d_flags>  (301) 
0

>  <s_epik_input>  (301) 
W2NIXTFuW2NIXVtjSF1jMmMxQyhbQ0BAXTM0W0NAXTI1Nik9W0NIXVtDSDJdTihbQ0gzXSlbQ0BIXTdbQ0BASF01W0NIMl1bQ0gyXU4oW0NIM10pW0NAQEhdNltDQEhdKFtDQEBIXTQ3KU9DMz1P

>  <s_epik_cmdline>  (301) 
J2VwaWtfcHl0aG9uJywgJy1waHQnLCAnMi4wJywgJy1waCcsICc3LjAnLCAnLXRuJywgJzgnLCAnLW1hJywgJzIwMCcsICctaW1hZScsICc8aW5maWxlLm1hZT4nLCAnLW9tYWUnLCAnPG91dGZpbGUubWFlPic=

>  <r_epik_Ionization_Penalty>  (301) 
2.71555

>  <r_epik_Ionization_Penalty_Charging>  (301) 
2.71469

>  <r_epik_Ionization_Penalty_Neutral>  (301) 
0.000858081

>  <r_epik_State_Penalty>  (301) 
2.42294

>  <r_epik_Charging_Adjusted_Penalty>  (301) 
5.13763

>  <i_epik_Tot_Q>  (301) 
2

>  <i_epik_Tot_abs_Q>  (301) 
2

>  <s_epik_Chemistry_Notes>  (301) 
This compound has an ester and may undergo hydrolysis at high or low pH.

>  <s_lp_Force_Field>  (301) 
OPLS3e

>  <r_lp_Energy>  (301) 
133.388

>  <b_lp_Chiralities_Consistent>  (301) 
1

>  <s_lp_Variant>  (301) 
82:0-5

>  <s_i_glide_gridfile>  (301) 
pfpi4k_grid

>  <i_i_glide_lignum>  (301) 
40

>  <i_i_glide_rotatable_bonds>  (301) 
0

>  <r_i_docking_score>  (301) 
-3.36551

>  <r_i_glide_ligand_efficiency>  (301) 
-0.13462

>  <r_i_glide_ligand_efficiency_sa>  (301) 
-0.393632

>  <r_i_glide_ligand_efficiency_ln>  (301) 
-0.797726

>  <r_i_glide_gscore>  (301) 
-3.36551

>  <r_i_glide_lipo>  (301) 
-0.169919

>  <r_i_glide_hbond>  (301) 
-0.2

>  <r_i_glide_metal>  (301) 
-0

>  <r_i_glide_rewards>  (301) 
-1.10853

>  <r_i_glide_evdw>  (301) 
-16.5798

>  <r_i_glide_ecoul>  (301) 
-6.31073

>  <r_i_glide_erotb>  (301) 
0

>  <r_i_glide_esite>  (301) 
-0.111458

>  <r_i_glide_emodel>  (301) 
-29.267

>  <r_i_glide_energy>  (301) 
-22.8905

>  <r_i_glide_einternal>  (301) 
0

>  <r_i_glide_intrahb_reward>  (301) 
-0

>  <i_i_glide_confnum>  (301) 
1

>  <i_i_glide_posenum>  (301) 
5

>  <r_i_glide_eff_state_penalty>  (301) 
0

>  <ligand_id>  (301) 
82

>  <original_smiles>  (301) 
CN1CC=C2c3cnccc3C34C5CCN(C)C3C3OC(=O)C24C3C51

>  <smiles>  (301) 
[H]C1=C2c3c(c([H])c([H])[n+]([H])c3[H])C34C25C(=O)OC2([H])C5([H])C([H])(N(C([H])([H])[H])C1([H])[H])C3([H])C([H])([H])C([H])([H])[N+]([H])(C([H])([H])[H])C24[H]

$$$$
82:4:1
     RDKit          3D

 48 54  0  0  1  0  0  0  0  0999 V2000
    2.6207    1.9862    9.1850 C   0  0  0  0  0  0  0  0  0  0  0  0
    1.5800    2.1139    8.1673 N   0  0  0  0  0  0  0  0  0  0  0  0
    0.5932    3.1088    8.6582 C   0  0  0  0  0  0  0  0  0  0  0  0
   -0.5752    3.3747    7.7290 C   0  0  0  0  0  0  0  0  0  0  0  0
   -0.4040    3.7180    6.4459 C   0  0  0  0  0  0  0  0  0  0  0  0
   -1.2772    3.3310    5.3405 C   0  0  0  0  0  0  0  0  0  0  0  0
   -2.6692    3.3273    5.2204 C   0  0  0  0  0  0  0  0  0  0  0  0
   -3.1911    2.9488    4.0269 N   0  0  0  0  0  0  0  0  0  0  0  0
   -2.4344    2.5543    2.9711 C   0  0  0  0  0  0  0  0  0  0  0  0
   -1.0314    2.4657    3.0680 C   0  0  0  0  0  0  0  0  0  0  0  0
   -0.4634    2.8542    4.3004 C   0  0  0  0  0  0  0  0  0  0  0  0
    0.9899    2.8436    4.7535 C   0  0  1  0  0  0  0  0  0  0  0  0
    1.3570    1.6323    5.6799 C   0  0  1  0  0  0  0  0  0  0  0  0
    2.1095    0.5214    4.9371 C   0  0  0  0  0  0  0  0  0  0  0  0
    3.3495    1.0490    4.2019 C   0  0  0  0  0  0  0  0  0  0  0  0
    2.9973    2.1430    3.2656 N   0  0  1  0  0  0  0  0  0  0  0  0
    2.3968    1.6152    2.0111 C   0  0  0  0  0  0  0  0  0  0  0  0
    2.2044    3.2545    3.8861 C   0  0  2  0  0  0  0  0  0  0  0  0
    2.9467    4.0797    4.9983 C   0  0  1  0  0  0  0  0  0  0  0  0
    2.4027    5.3959    4.8220 O   0  0  0  0  0  0  0  0  0  0  0  0
    1.1358    5.3973    5.2625 C   0  0  0  0  0  0  0  0  0  0  0  0
    0.3116    6.3083    5.2840 O   0  0  0  0  0  0  0  0  0  0  0  0
    0.9267    3.9799    5.7902 C   0  0  1  0  0  0  0  0  0  0  0  0
    2.2754    3.7233    6.3825 C   0  0  1  0  0  0  0  0  0  0  0  0
    2.1911    2.2663    6.8225 C   0  0  1  0  0  0  0  0  0  0  0  0
    2.1899    1.7556   10.1586 H   0  0  0  0  0  0  0  0  0  0  0  0
    3.2055    2.8998    9.2983 H   0  0  0  0  0  0  0  0  0  0  0  0
    3.3103    1.1767    8.9495 H   0  0  0  0  0  0  0  0  0  0  0  0
    0.1732    2.7277    9.5869 H   0  0  0  0  0  0  0  0  0  0  0  0
    1.0517    4.0593    8.9226 H   0  0  0  0  0  0  0  0  0  0  0  0
   -1.5244    2.9955    8.0582 H   0  0  0  0  0  0  0  0  0  0  0  0
   -3.3611    3.6338    5.9901 H   0  0  0  0  0  0  0  0  0  0  0  0
   -2.9850    2.2625    2.0796 H   0  0  0  0  0  0  0  0  0  0  0  0
   -0.4390    2.1543    2.2198 H   0  0  0  0  0  0  0  0  0  0  0  0
    0.4540    1.1920    6.1009 H   0  0  0  0  0  0  0  0  0  0  0  0
    2.4131   -0.2625    5.6313 H   0  0  0  0  0  0  0  0  0  0  0  0
    1.4407    0.0354    4.2288 H   0  0  0  0  0  0  0  0  0  0  0  0
    4.1047    1.4050    4.9002 H   0  0  0  0  0  0  0  0  0  0  0  0
    3.8249    0.2409    3.6470 H   0  0  0  0  0  0  0  0  0  0  0  0
    1.4715    1.0698    2.1865 H   0  0  0  0  0  0  0  0  0  0  0  0
    3.0877    0.9251    1.5235 H   0  0  0  0  0  0  0  0  0  0  0  0
    2.1786    2.4155    1.3034 H   0  0  0  0  0  0  0  0  0  0  0  0
    1.9014    3.9219    3.0757 H   0  0  0  0  0  0  0  0  0  0  0  0
    4.0400    4.0607    4.9609 H   0  0  0  0  0  0  0  0  0  0  0  0
    2.5780    4.3989    7.1822 H   0  0  0  0  0  0  0  0  0  0  0  0
    3.1929    1.8420    6.8409 H   0  0  0  0  0  0  0  0  0  0  0  0
    3.8793    2.5412    2.9490 H   0  0  0  0  0  0  0  0  0  0  0  0
   -4.2038    2.9336    3.9143 H   0  0  0  0  0  0  0  0  0  0  0  0
  1  2  1  0
  1 26  1  0
  1 27  1  0
  1 28  1  0
  2 25  1  0
  2  3  1  0
  3  4  1  0
  3 29  1  0
  3 30  1  0
  4  5  2  0
  4 31  1  0
  5 23  1  0
  5  6  1  0
  6 11  2  0
  6  7  1  0
  7  8  2  0
  7 32  1  0
  8  9  1  0
  8 48  1  0
  9 10  2  0
  9 33  1  0
 10 11  1  0
 10 34  1  0
 12 11  1  6
 12 18  1  0
 12 23  1  0
 12 13  1  0
 13 25  1  0
 13 14  1  0
 13 35  1  1
 14 15  1  0
 14 36  1  0
 14 37  1  0
 15 16  1  0
 15 38  1  0
 15 39  1  0
 16 17  1  0
 16 18  1  0
 16 47  1  6
 17 40  1  0
 17 41  1  0
 17 42  1  0
 18 19  1  0
 18 43  1  6
 19 24  1  0
 19 20  1  0
 19 44  1  1
 20 21  1  0
 21 22  2  0
 23 21  1  6
 23 24  1  0
 24 25  1  0
 24 45  1  1
 25 46  1  1
M  CHG  2   8   1  16   1
M  END
>  <i_m_ct_stereo_status>  (302) 
1

>  <s_m_source_file>  (302) 
/var/tmp/pbs.5076255.sched01/tmpyc7t0a4i/88yk12rjyo.sdf

>  <i_m_source_file_index>  (302) 
40

>  <i_lp_mmshare_version>  (302) 
48012

>  <i_f3d_flags>  (302) 
0

>  <s_epik_input>  (302) 
W2NIXTFuW2NIXVtjSF1jMmMxQyhbQ0BAXTM0W0NAXTI1Nik9W0NIXVtDSDJdTihbQ0gzXSlbQ0BIXTdbQ0BASF01W0NIMl1bQ0gyXU4oW0NIM10pW0NAQEhdNltDQEhdKFtDQEBIXTQ3KU9DMz1P

>  <s_epik_cmdline>  (302) 
J2VwaWtfcHl0aG9uJywgJy1waHQnLCAnMi4wJywgJy1waCcsICc3LjAnLCAnLXRuJywgJzgnLCAnLW1hJywgJzIwMCcsICctaW1hZScsICc8aW5maWxlLm1hZT4nLCAnLW9tYWUnLCAnPG91dGZpbGUubWFlPic=

>  <r_epik_Ionization_Penalty>  (302) 
2.71555

>  <r_epik_Ionization_Penalty_Charging>  (302) 
2.71469

>  <r_epik_Ionization_Penalty_Neutral>  (302) 
0.000858081

>  <r_epik_State_Penalty>  (302) 
2.42294

>  <r_epik_Charging_Adjusted_Penalty>  (302) 
5.13763

>  <i_epik_Tot_Q>  (302) 
2

>  <i_epik_Tot_abs_Q>  (302) 
2

>  <s_epik_Chemistry_Notes>  (302) 
This compound has an ester and may undergo hydrolysis at high or low pH.

>  <s_lp_Force_Field>  (302) 
OPLS3e

>  <r_lp_Energy>  (302) 
133.388

>  <b_lp_Chiralities_Consistent>  (302) 
1

>  <s_lp_Variant>  (302) 
82:0-5

>  <s_i_glide_gridfile>  (302) 
pfpi4k_grid

>  <i_i_glide_lignum>  (302) 
40

>  <i_i_glide_rotatable_bonds>  (302) 
0

>  <r_i_docking_score>  (302) 
-2.90212

>  <r_i_glide_ligand_efficiency>  (302) 
-0.116085

>  <r_i_glide_ligand_efficiency_sa>  (302) 
-0.339434

>  <r_i_glide_ligand_efficiency_ln>  (302) 
-0.687889

>  <r_i_glide_gscore>  (302) 
-2.90212

>  <r_i_glide_lipo>  (302) 
-0.0148467

>  <r_i_glide_hbond>  (302) 
0

>  <r_i_glide_metal>  (302) 
-0

>  <r_i_glide_rewards>  (302) 
-1.10853

>  <r_i_glide_evdw>  (302) 
-13.54

>  <r_i_glide_ecoul>  (302) 
-6.8909

>  <r_i_glide_erotb>  (302) 
0

>  <r_i_glide_esite>  (302) 
-0.0681042

>  <r_i_glide_emodel>  (302) 
-25.8797

>  <r_i_glide_energy>  (302) 
-20.4309

>  <r_i_glide_einternal>  (302) 
0

>  <r_i_glide_intrahb_reward>  (302) 
-0

>  <i_i_glide_confnum>  (302) 
1

>  <i_i_glide_posenum>  (302) 
28

>  <r_i_glide_eff_state_penalty>  (302) 
0

>  <ligand_id>  (302) 
82

>  <original_smiles>  (302) 
CN1CC=C2c3cnccc3C34C5CCN(C)C3C3OC(=O)C24C3C51

>  <smiles>  (302) 
[H]C1=C2c3c(c([H])c([H])[n+]([H])c3[H])C34C25C(=O)OC2([H])C5([H])C([H])(N(C([H])([H])[H])C1([H])[H])C3([H])C([H])([H])C([H])([H])[N+]([H])(C([H])([H])[H])C24[H]

$$$$
82:4:2
     RDKit          3D

 48 54  0  0  1  0  0  0  0  0999 V2000
    2.0874    0.5711    8.9849 C   0  0  0  0  0  0  0  0  0  0  0  0
    1.1222    0.9677    7.9591 N   0  0  0  0  0  0  0  0  0  0  0  0
    0.1858    1.9414    8.5777 C   0  0  0  0  0  0  0  0  0  0  0  0
   -0.8958    2.4673    7.6570 C   0  0  0  0  0  0  0  0  0  0  0  0
   -0.6183    3.0215    6.4707 C   0  0  0  0  0  0  0  0  0  0  0  0
   -1.4462    2.9166    5.2751 C   0  0  0  0  0  0  0  0  0  0  0  0
   -2.8287    3.0641    5.0829 C   0  0  0  0  0  0  0  0  0  0  0  0
   -3.3039    2.9440    3.8232 N   0  0  0  0  0  0  0  0  0  0  0  0
   -2.5210    2.6697    2.7501 C   0  0  0  0  0  0  0  0  0  0  0  0
   -1.1352    2.4607    2.8978 C   0  0  0  0  0  0  0  0  0  0  0  0
   -0.6095    2.5668    4.1995 C   0  0  0  0  0  0  0  0  0  0  0  0
    0.8095    2.3493    4.7103 C   0  0  1  0  0  0  0  0  0  0  0  0
    1.0215    0.9613    5.4178 C   0  0  1  0  0  0  0  0  0  0  0  0
    1.7387   -0.0604    4.5175 C   0  0  0  0  0  0  0  0  0  0  0  0
    3.0547    0.4876    3.9493 C   0  0  0  0  0  0  0  0  0  0  0  0
    2.8341    1.7521    3.2138 N   0  0  1  0  0  0  0  0  0  0  0  0
    2.2797    1.5132    1.8569 C   0  0  0  0  0  0  0  0  0  0  0  0
    2.0995    2.7978    3.9928 C   0  0  2  0  0  0  0  0  0  0  0  0
    2.8353    3.3436    5.2725 C   0  0  1  0  0  0  0  0  0  0  0  0
    2.4066    4.7098    5.3210 O   0  0  0  0  0  0  0  0  0  0  0  0
    1.1229    4.7469    5.6911 C   0  0  0  0  0  0  0  0  0  0  0  0
    0.3734    5.7112    5.8302 O   0  0  0  0  0  0  0  0  0  0  0  0
    0.7689    3.2796    5.9350 C   0  0  1  0  0  0  0  0  0  0  0  0
    2.0514    2.8047    6.5362 C   0  0  1  0  0  0  0  0  0  0  0  0
    1.8297    1.3075    6.6961 C   0  0  1  0  0  0  0  0  0  0  0  0
    1.5802    0.2109    9.8809 H   0  0  0  0  0  0  0  0  0  0  0  0
    2.7312    1.3982    9.2873 H   0  0  0  0  0  0  0  0  0  0  0  0
    2.7248   -0.2427    8.6378 H   0  0  0  0  0  0  0  0  0  0  0  0
   -0.3179    1.4386    9.4005 H   0  0  0  0  0  0  0  0  0  0  0  0
    0.7056    2.7861    9.0320 H   0  0  0  0  0  0  0  0  0  0  0  0
   -1.8958    2.1257    7.8662 H   0  0  0  0  0  0  0  0  0  0  0  0
   -3.5366    3.2919    5.8662 H   0  0  0  0  0  0  0  0  0  0  0  0
   -3.0447    2.5951    1.8058 H   0  0  0  0  0  0  0  0  0  0  0  0
   -0.5167    2.2498    2.0337 H   0  0  0  0  0  0  0  0  0  0  0  0
    0.0611    0.5315    5.7059 H   0  0  0  0  0  0  0  0  0  0  0  0
    1.9351   -0.9773    5.0745 H   0  0  0  0  0  0  0  0  0  0  0  0
    1.0729   -0.3505    3.7007 H   0  0  0  0  0  0  0  0  0  0  0  0
    3.7884    0.6456    4.7389 H   0  0  0  0  0  0  0  0  0  0  0  0
    3.4998   -0.2505    3.2820 H   0  0  0  0  0  0  0  0  0  0  0  0
    1.3062    1.0272    1.8874 H   0  0  0  0  0  0  0  0  0  0  0  0
    2.9469    0.8641    1.2860 H   0  0  0  0  0  0  0  0  0  0  0  0
    2.1741    2.4468    1.3052 H   0  0  0  0  0  0  0  0  0  0  0  0
    1.9030    3.6279    3.3095 H   0  0  0  0  0  0  0  0  0  0  0  0
    3.9219    3.2354    5.2865 H   0  0  0  0  0  0  0  0  0  0  0  0
    2.3571    3.2983    7.4634 H   0  0  0  0  0  0  0  0  0  0  0  0
    2.7923    0.7993    6.6843 H   0  0  0  0  0  0  0  0  0  0  0  0
    3.7537    2.1396    3.0217 H   0  0  0  0  0  0  0  0  0  0  0  0
   -4.3090    3.0359    3.6644 H   0  0  0  0  0  0  0  0  0  0  0  0
  1  2  1  0
  1 26  1  0
  1 27  1  0
  1 28  1  0
  2 25  1  0
  2  3  1  0
  3  4  1  0
  3 29  1  0
  3 30  1  0
  4  5  2  0
  4 31  1  0
  5 23  1  0
  5  6  1  0
  6 11  2  0
  6  7  1  0
  7  8  2  0
  7 32  1  0
  8  9  1  0
  8 48  1  0
  9 10  2  0
  9 33  1  0
 10 11  1  0
 10 34  1  0
 12 11  1  6
 12 18  1  0
 12 23  1  0
 12 13  1  0
 13 25  1  0
 13 14  1  0
 13 35  1  1
 14 15  1  0
 14 36  1  0
 14 37  1  0
 15 16  1  0
 15 38  1  0
 15 39  1  0
 16 17  1  0
 16 18  1  0
 16 47  1  6
 17 40  1  0
 17 41  1  0
 17 42  1  0
 18 19  1  0
 18 43  1  6
 19 24  1  0
 19 20  1  0
 19 44  1  1
 20 21  1  0
 21 22  2  0
 23 21  1  6
 23 24  1  0
 24 25  1  0
 24 45  1  1
 25 46  1  6
M  CHG  2   8   1  16   1
M  END
>  <i_m_ct_stereo_status>  (303) 
1

>  <s_m_source_file>  (303) 
/var/tmp/pbs.5076255.sched01/tmpyc7t0a4i/88yk12rjyo.sdf

>  <i_m_source_file_index>  (303) 
40

>  <i_lp_mmshare_version>  (303) 
48012

>  <i_f3d_flags>  (303) 
0

>  <s_epik_input>  (303) 
W2NIXTFuW2NIXVtjSF1jMmMxQyhbQ0BAXTM0W0NAXTI1Nik9W0NIXVtDSDJdTihbQ0gzXSlbQ0BIXTdbQ0BASF01W0NIMl1bQ0gyXU4oW0NIM10pW0NAQEhdNltDQEhdKFtDQEBIXTQ3KU9DMz1P

>  <s_epik_cmdline>  (303) 
J2VwaWtfcHl0aG9uJywgJy1waHQnLCAnMi4wJywgJy1waCcsICc3LjAnLCAnLXRuJywgJzgnLCAnLW1hJywgJzIwMCcsICctaW1hZScsICc8aW5maWxlLm1hZT4nLCAnLW9tYWUnLCAnPG91dGZpbGUubWFlPic=

>  <r_epik_Ionization_Penalty>  (303) 
2.71555

>  <r_epik_Ionization_Penalty_Charging>  (303) 
2.71469

>  <r_epik_Ionization_Penalty_Neutral>  (303) 
0.000858081

>  <r_epik_State_Penalty>  (303) 
2.42294

>  <r_epik_Charging_Adjusted_Penalty>  (303) 
5.13763

>  <i_epik_Tot_Q>  (303) 
2

>  <i_epik_Tot_abs_Q>  (303) 
2

>  <s_epik_Chemistry_Notes>  (303) 
This compound has an ester and may undergo hydrolysis at high or low pH.

>  <s_lp_Force_Field>  (303) 
OPLS3e

>  <r_lp_Energy>  (303) 
133.388

>  <b_lp_Chiralities_Consistent>  (303) 
1

>  <s_lp_Variant>  (303) 
82:0-5

>  <s_i_glide_gridfile>  (303) 
pfpi4k_grid

>  <i_i_glide_lignum>  (303) 
40

>  <i_i_glide_rotatable_bonds>  (303) 
0

>  <r_i_docking_score>  (303) 
-2.57928

>  <r_i_glide_ligand_efficiency>  (303) 
-0.103171

>  <r_i_glide_ligand_efficiency_sa>  (303) 
-0.301674

>  <r_i_glide_ligand_efficiency_ln>  (303) 
-0.611367

>  <r_i_glide_gscore>  (303) 
-2.57928

>  <r_i_glide_lipo>  (303) 
0

>  <r_i_glide_hbond>  (303) 
0

>  <r_i_glide_metal>  (303) 
-0

>  <r_i_glide_rewards>  (303) 
-1.10853

>  <r_i_glide_evdw>  (303) 
-12.3396

>  <r_i_glide_ecoul>  (303) 
-5.31851

>  <r_i_glide_erotb>  (303) 
0

>  <r_i_glide_esite>  (303) 
-0.0559918

>  <r_i_glide_emodel>  (303) 
-22.5165

>  <r_i_glide_energy>  (303) 
-17.6581

>  <r_i_glide_einternal>  (303) 
0

>  <r_i_glide_intrahb_reward>  (303) 
-0

>  <i_i_glide_confnum>  (303) 
2

>  <i_i_glide_posenum>  (303) 
16

>  <r_i_glide_eff_state_penalty>  (303) 
0

>  <ligand_id>  (303) 
82

>  <original_smiles>  (303) 
CN1CC=C2c3cnccc3C34C5CCN(C)C3C3OC(=O)C24C3C51

>  <smiles>  (303) 
[H]C1=C2c3c(c([H])c([H])[n+]([H])c3[H])C34C25C(=O)OC2([H])C5([H])C([H])(N(C([H])([H])[H])C1([H])[H])C3([H])C([H])([H])C([H])([H])[N+]([H])(C([H])([H])[H])C24[H]

$$$$
82:5:0
     RDKit          3D

 48 54  0  0  1  0  0  0  0  0999 V2000
    3.8192   -0.9567    4.4267 C   0  0  0  0  0  0  0  0  0  0  0  0
    3.8656   -1.1362    2.9584 N   0  0  1  0  0  0  0  0  0  0  0  0
    4.6225    0.0096    2.3687 C   0  0  0  0  0  0  0  0  0  0  0  0
    4.7043   -0.0215    0.8657 C   0  0  0  0  0  0  0  0  0  0  0  0
    5.2299   -1.0361    0.1682 C   0  0  0  0  0  0  0  0  0  0  0  0
    4.7862   -1.4471   -1.1587 C   0  0  0  0  0  0  0  0  0  0  0  0
    4.5256   -0.7482   -2.3514 C   0  0  0  0  0  0  0  0  0  0  0  0
    4.1765   -1.4055   -3.4807 N   0  0  0  0  0  0  0  0  0  0  0  0
    4.0671   -2.7552   -3.4386 C   0  0  0  0  0  0  0  0  0  0  0  0
    4.3084   -3.5247   -2.2803 C   0  0  0  0  0  0  0  0  0  0  0  0
    4.6063   -2.8305   -1.1064 C   0  0  0  0  0  0  0  0  0  0  0  0
    4.8148   -3.3568    0.3092 C   0  0  1  0  0  0  0  0  0  0  0  0
    3.6051   -3.0798    1.2799 C   0  0  1  0  0  0  0  0  0  0  0  0
    2.7616   -4.3429    1.5299 C   0  0  0  0  0  0  0  0  0  0  0  0
    3.6065   -5.5380    2.0003 C   0  0  0  0  0  0  0  0  0  0  0  0
    4.6952   -5.8295    1.0564 N   0  0  1  0  0  0  0  0  0  0  0  0
    4.2184   -6.5706   -0.1054 C   0  0  0  0  0  0  0  0  0  0  0  0
    5.5375   -4.6655    0.6993 C   0  0  2  0  0  0  0  0  0  0  0  0
    6.3654   -4.0646    1.8797 C   0  0  1  0  0  0  0  0  0  0  0  0
    7.5546   -3.6554    1.1970 O   0  0  0  0  0  0  0  0  0  0  0  0
    7.2885   -2.5612    0.4775 C   0  0  0  0  0  0  0  0  0  0  0  0
    8.0267   -1.8723   -0.2175 O   0  0  0  0  0  0  0  0  0  0  0  0
    5.8090   -2.2865    0.7783 C   0  0  1  0  0  0  0  0  0  0  0  0
    5.7441   -2.6492    2.2218 C   0  0  1  0  0  0  0  0  0  0  0  0
    4.2666   -2.5419    2.5757 C   0  0  1  0  0  0  0  0  0  0  0  0
    4.8139   -1.0578    4.8714 H   0  0  0  0  0  0  0  0  0  0  0  0
    3.1590   -1.6799    4.9025 H   0  0  0  0  0  0  0  0  0  0  0  0
    3.4535    0.0378    4.6967 H   0  0  0  0  0  0  0  0  0  0  0  0
    4.0717    0.9172    2.6108 H   0  0  0  0  0  0  0  0  0  0  0  0
    5.6211    0.1377    2.7878 H   0  0  0  0  0  0  0  0  0  0  0  0
    4.1481    0.7417    0.3537 H   0  0  0  0  0  0  0  0  0  0  0  0
    4.6223    0.3220   -2.4149 H   0  0  0  0  0  0  0  0  0  0  0  0
    3.7848   -3.2400   -4.3602 H   0  0  0  0  0  0  0  0  0  0  0  0
    4.2875   -4.5954   -2.2850 H   0  0  0  0  0  0  0  0  0  0  0  0
    2.9485   -2.3154    0.8517 H   0  0  0  0  0  0  0  0  0  0  0  0
    1.9786   -4.1350    2.2615 H   0  0  0  0  0  0  0  0  0  0  0  0
    2.2381   -4.6006    0.6036 H   0  0  0  0  0  0  0  0  0  0  0  0
    4.0224   -5.3614    2.9870 H   0  0  0  0  0  0  0  0  0  0  0  0
    2.9668   -6.4132    2.1077 H   0  0  0  0  0  0  0  0  0  0  0  0
    3.4995   -5.9813   -0.6619 H   0  0  0  0  0  0  0  0  0  0  0  0
    3.7822   -7.5043    0.2255 H   0  0  0  0  0  0  0  0  0  0  0  0
    5.0143   -6.8370   -0.7809 H   0  0  0  0  0  0  0  0  0  0  0  0
    6.2179   -4.9885   -0.0912 H   0  0  0  0  0  0  0  0  0  0  0  0
    6.5668   -4.7322    2.7223 H   0  0  0  0  0  0  0  0  0  0  0  0
    6.3630   -2.0219    2.8625 H   0  0  0  0  0  0  0  0  0  0  0  0
    4.0549   -3.1994    3.4154 H   0  0  0  0  0  0  0  0  0  0  0  0
    5.2995   -6.4997    1.5188 H   0  0  0  0  0  0  0  0  0  0  0  0
    2.9073   -1.0184    2.6412 H   0  0  0  0  0  0  0  0  0  0  0  0
  1  2  1  0
  1 26  1  0
  1 27  1  0
  1 28  1  0
  2 25  1  0
  2  3  1  0
  2 48  1  6
  3  4  1  0
  3 29  1  0
  3 30  1  0
  4  5  2  0
  4 31  1  0
  5 23  1  0
  5  6  1  0
  6 11  2  0
  6  7  1  0
  7  8  2  0
  7 32  1  0
  8  9  1  0
  9 10  2  0
  9 33  1  0
 10 11  1  0
 10 34  1  0
 12 11  1  6
 12 18  1  0
 12 23  1  0
 12 13  1  0
 13 25  1  0
 13 14  1  0
 13 35  1  6
 14 15  1  0
 14 36  1  0
 14 37  1  0
 15 16  1  0
 15 38  1  0
 15 39  1  0
 16 17  1  0
 16 18  1  0
 16 47  1  1
 17 40  1  0
 17 41  1  0
 17 42  1  0
 18 19  1  0
 18 43  1  6
 19 24  1  0
 19 20  1  0
 19 44  1  1
 20 21  1  0
 21 22  2  0
 23 21  1  6
 23 24  1  0
 24 25  1  0
 24 45  1  1
 25 46  1  1
M  CHG  2   2   1  16   1
M  END
>  <i_m_ct_stereo_status>  (304) 
1

>  <s_m_source_file>  (304) 
/var/tmp/pbs.5076255.sched01/tmpyc7t0a4i/88yk12rjyo.sdf

>  <i_m_source_file_index>  (304) 
41

>  <i_lp_mmshare_version>  (304) 
48012

>  <i_f3d_flags>  (304) 
0

>  <s_epik_input>  (304) 
W2NIXTFuW2NIXVtjSF1jMmMxQyhbQ0BAXTM0W0NAXTI1Nik9W0NIXVtDSDJdTihbQ0gzXSlbQ0BIXTdbQ0BASF01W0NIMl1bQ0gyXU4oW0NIM10pW0NAQEhdNltDQEhdKFtDQEBIXTQ3KU9DMz1P

>  <s_epik_cmdline>  (304) 
J2VwaWtfcHl0aG9uJywgJy1waHQnLCAnMi4wJywgJy1waCcsICc3LjAnLCAnLXRuJywgJzgnLCAnLW1hJywgJzIwMCcsICctaW1hZScsICc8aW5maWxlLm1hZT4nLCAnLW9tYWUnLCAnPG91dGZpbGUubWFlPic=

>  <r_epik_Ionization_Penalty>  (304) 
3.43972

>  <r_epik_Ionization_Penalty_Charging>  (304) 
3.43971

>  <r_epik_Ionization_Penalty_Neutral>  (304) 
1.40607e-05

>  <r_epik_State_Penalty>  (304) 
2.55859

>  <r_epik_Charging_Adjusted_Penalty>  (304) 
5.99829

>  <i_epik_Tot_Q>  (304) 
2

>  <i_epik_Tot_abs_Q>  (304) 
2

>  <s_epik_Chemistry_Notes>  (304) 
This compound has an ester and may undergo hydrolysis at high or low pH.

>  <s_lp_Force_Field>  (304) 
OPLS3e

>  <r_lp_Energy>  (304) 
129.046

>  <b_lp_Chiralities_Consistent>  (304) 
1

>  <s_lp_Variant>  (304) 
82:0-6

>  <s_i_glide_gridfile>  (304) 
pfpi4k_grid

>  <i_i_glide_lignum>  (304) 
41

>  <i_i_glide_rotatable_bonds>  (304) 
0

>  <r_i_docking_score>  (304) 
-3.94001

>  <r_i_glide_ligand_efficiency>  (304) 
-0.157601

>  <r_i_glide_ligand_efficiency_sa>  (304) 
-0.460827

>  <r_i_glide_ligand_efficiency_ln>  (304) 
-0.933901

>  <r_i_glide_gscore>  (304) 
-3.94001

>  <r_i_glide_lipo>  (304) 
-0.695599

>  <r_i_glide_hbond>  (304) 
-0.122347

>  <r_i_glide_metal>  (304) 
-0

>  <r_i_glide_rewards>  (304) 
-1.29572

>  <r_i_glide_evdw>  (304) 
-17.2189

>  <r_i_glide_ecoul>  (304) 
-6.436

>  <r_i_glide_erotb>  (304) 
0

>  <r_i_glide_esite>  (304) 
0

>  <r_i_glide_emodel>  (304) 
-30.0329

>  <r_i_glide_energy>  (304) 
-23.6549

>  <r_i_glide_einternal>  (304) 
0

>  <r_i_glide_intrahb_reward>  (304) 
-0

>  <i_i_glide_confnum>  (304) 
1

>  <i_i_glide_posenum>  (304) 
4

>  <r_i_glide_eff_state_penalty>  (304) 
0

>  <ligand_id>  (304) 
82

>  <original_smiles>  (304) 
CN1CC=C2c3cnccc3C34C5CCN(C)C3C3OC(=O)C24C3C51

>  <smiles>  (304) 
[H]C1=C2c3c([H])nc([H])c([H])c3C34C25C(=O)OC2([H])C5([H])C([H])(C3([H])C([H])([H])C([H])([H])[N+]([H])(C([H])([H])[H])C24[H])[N+]([H])(C([H])([H])[H])C1([H])[H]

$$$$
82:5:1
     RDKit          3D

 48 54  0  0  1  0  0  0  0  0999 V2000
    3.3475   -1.2803   -2.7027 C   0  0  0  0  0  0  0  0  0  0  0  0
    3.0187   -1.9848   -1.4374 N   0  0  1  0  0  0  0  0  0  0  0  0
    3.2757   -3.4578   -1.6278 C   0  0  0  0  0  0  0  0  0  0  0  0
    2.9329   -4.2900   -0.4216 C   0  0  0  0  0  0  0  0  0  0  0  0
    3.4814   -4.1263    0.7759 C   0  0  0  0  0  0  0  0  0  0  0  0
    2.7983   -4.4232    2.0331 C   0  0  0  0  0  0  0  0  0  0  0  0
    2.0729   -5.5313    2.4808 C   0  0  0  0  0  0  0  0  0  0  0  0
    1.5440   -5.5475    3.7226 N   0  0  0  0  0  0  0  0  0  0  0  0
    1.7577   -4.4799    4.5412 C   0  0  0  0  0  0  0  0  0  0  0  0
    2.4430   -3.3084    4.1571 C   0  0  0  0  0  0  0  0  0  0  0  0
    2.9433   -3.2846    2.8519 C   0  0  0  0  0  0  0  0  0  0  0  0
    3.6754   -2.1898    2.0770 C   0  0  1  0  0  0  0  0  0  0  0  0
    2.7573   -1.4106    1.0660 C   0  0  1  0  0  0  0  0  0  0  0  0
    2.3076   -0.0455    1.6088 C   0  0  0  0  0  0  0  0  0  0  0  0
    3.4803    0.8067    2.0694 C   0  0  0  0  0  0  0  0  0  0  0  0
    4.3006    0.1038    3.0788 N   0  0  1  0  0  0  0  0  0  0  0  0
    3.6978    0.1635    4.4335 C   0  0  0  0  0  0  0  0  0  0  0  0
    4.7560   -1.2585    2.6563 C   0  0  2  0  0  0  0  0  0  0  0  0
    5.7058   -1.3021    1.4051 C   0  0  1  0  0  0  0  0  0  0  0  0
    6.5569   -2.4257    1.6758 O   0  0  0  0  0  0  0  0  0  0  0  0
    5.8374   -3.5485    1.5640 C   0  0  0  0  0  0  0  0  0  0  0  0
    6.1818   -4.7126    1.7398 O   0  0  0  0  0  0  0  0  0  0  0  0
    4.4763   -3.0570    1.1076 C   0  0  1  0  0  0  0  0  0  0  0  0
    4.9107   -1.9449    0.2121 C   0  0  1  0  0  0  0  0  0  0  0  0
    3.6139   -1.3061   -0.2261 C   0  0  1  0  0  0  0  0  0  0  0  0
    4.4185   -1.2940   -2.8957 H   0  0  0  0  0  0  0  0  0  0  0  0
    3.0232   -0.2537   -2.6741 H   0  0  0  0  0  0  0  0  0  0  0  0
    2.8547   -1.7325   -3.5597 H   0  0  0  0  0  0  0  0  0  0  0  0
    2.6501   -3.8160   -2.4347 H   0  0  0  0  0  0  0  0  0  0  0  0
    4.2880   -3.6815   -1.9597 H   0  0  0  0  0  0  0  0  0  0  0  0
    2.1150   -4.9718   -0.5596 H   0  0  0  0  0  0  0  0  0  0  0  0
    1.9018   -6.3925    1.8479 H   0  0  0  0  0  0  0  0  0  0  0  0
    1.3439   -4.5693    5.5345 H   0  0  0  0  0  0  0  0  0  0  0  0
    2.5823   -2.4876    4.8486 H   0  0  0  0  0  0  0  0  0  0  0  0
    1.8528   -1.9914    0.8781 H   0  0  0  0  0  0  0  0  0  0  0  0
    1.7439    0.5141    0.8612 H   0  0  0  0  0  0  0  0  0  0  0  0
    1.6157   -0.1848    2.4361 H   0  0  0  0  0  0  0  0  0  0  0  0
    4.0960    1.0391    1.2160 H   0  0  0  0  0  0  0  0  0  0  0  0
    3.1335    1.7548    2.4693 H   0  0  0  0  0  0  0  0  0  0  0  0
    2.7333   -0.3335    4.4572 H   0  0  0  0  0  0  0  0  0  0  0  0
    3.5240    1.1964    4.7246 H   0  0  0  0  0  0  0  0  0  0  0  0
    4.3408   -0.2806    5.1892 H   0  0  0  0  0  0  0  0  0  0  0  0
    5.2543   -1.7100    3.5098 H   0  0  0  0  0  0  0  0  0  0  0  0
    6.2904   -0.4012    1.2008 H   0  0  0  0  0  0  0  0  0  0  0  0
    5.5667   -2.2239   -0.6259 H   0  0  0  0  0  0  0  0  0  0  0  0
    3.8304   -0.2733   -0.4754 H   0  0  0  0  0  0  0  0  0  0  0  0
    5.1338    0.6651    3.1987 H   0  0  0  0  0  0  0  0  0  0  0  0
    2.0059   -1.8401   -1.3176 H   0  0  0  0  0  0  0  0  0  0  0  0
  1  2  1  0
  1 26  1  0
  1 27  1  0
  1 28  1  0
  2 25  1  0
  2  3  1  0
  2 48  1  1
  3  4  1  0
  3 29  1  0
  3 30  1  0
  4  5  2  0
  4 31  1  0
  5 23  1  0
  5  6  1  0
  6 11  2  0
  6  7  1  0
  7  8  2  0
  7 32  1  0
  8  9  1  0
  9 10  2  0
  9 33  1  0
 10 11  1  0
 10 34  1  0
 12 11  1  1
 12 18  1  0
 12 23  1  0
 12 13  1  0
 13 25  1  0
 13 14  1  0
 13 35  1  6
 14 15  1  0
 14 36  1  0
 14 37  1  0
 15 16  1  0
 15 38  1  0
 15 39  1  0
 16 17  1  0
 16 18  1  0
 16 47  1  1
 17 40  1  0
 17 41  1  0
 17 42  1  0
 18 19  1  0
 18 43  1  1
 19 24  1  0
 19 20  1  0
 19 44  1  6
 20 21  1  0
 21 22  2  0
 23 21  1  1
 23 24  1  0
 24 25  1  0
 24 45  1  6
 25 46  1  6
M  CHG  2   2   1  16   1
M  END
>  <i_m_ct_stereo_status>  (305) 
1

>  <s_m_source_file>  (305) 
/var/tmp/pbs.5076255.sched01/tmpyc7t0a4i/88yk12rjyo.sdf

>  <i_m_source_file_index>  (305) 
41

>  <i_lp_mmshare_version>  (305) 
48012

>  <i_f3d_flags>  (305) 
0

>  <s_epik_input>  (305) 
W2NIXTFuW2NIXVtjSF1jMmMxQyhbQ0BAXTM0W0NAXTI1Nik9W0NIXVtDSDJdTihbQ0gzXSlbQ0BIXTdbQ0BASF01W0NIMl1bQ0gyXU4oW0NIM10pW0NAQEhdNltDQEhdKFtDQEBIXTQ3KU9DMz1P

>  <s_epik_cmdline>  (305) 
J2VwaWtfcHl0aG9uJywgJy1waHQnLCAnMi4wJywgJy1waCcsICc3LjAnLCAnLXRuJywgJzgnLCAnLW1hJywgJzIwMCcsICctaW1hZScsICc8aW5maWxlLm1hZT4nLCAnLW9tYWUnLCAnPG91dGZpbGUubWFlPic=

>  <r_epik_Ionization_Penalty>  (305) 
3.43972

>  <r_epik_Ionization_Penalty_Charging>  (305) 
3.43971

>  <r_epik_Ionization_Penalty_Neutral>  (305) 
1.40607e-05

>  <r_epik_State_Penalty>  (305) 
2.55859

>  <r_epik_Charging_Adjusted_Penalty>  (305) 
5.99829

>  <i_epik_Tot_Q>  (305) 
2

>  <i_epik_Tot_abs_Q>  (305) 
2

>  <s_epik_Chemistry_Notes>  (305) 
This compound has an ester and may undergo hydrolysis at high or low pH.

>  <s_lp_Force_Field>  (305) 
OPLS3e

>  <r_lp_Energy>  (305) 
129.046

>  <b_lp_Chiralities_Consistent>  (305) 
1

>  <s_lp_Variant>  (305) 
82:0-6

>  <s_i_glide_gridfile>  (305) 
pfpi4k_grid

>  <i_i_glide_lignum>  (305) 
41

>  <i_i_glide_rotatable_bonds>  (305) 
0

>  <r_i_docking_score>  (305) 
-3.88326

>  <r_i_glide_ligand_efficiency>  (305) 
-0.15533

>  <r_i_glide_ligand_efficiency_sa>  (305) 
-0.454189

>  <r_i_glide_ligand_efficiency_ln>  (305) 
-0.920449

>  <r_i_glide_gscore>  (305) 
-3.88326

>  <r_i_glide_lipo>  (305) 
-0.383792

>  <r_i_glide_hbond>  (305) 
-0.2

>  <r_i_glide_metal>  (305) 
-0

>  <r_i_glide_rewards>  (305) 
-1.1973

>  <r_i_glide_evdw>  (305) 
-15.6678

>  <r_i_glide_ecoul>  (305) 
-8.17584

>  <r_i_glide_erotb>  (305) 
0

>  <r_i_glide_esite>  (305) 
-0.0924011

>  <r_i_glide_emodel>  (305) 
-30.1552

>  <r_i_glide_energy>  (305) 
-23.8437

>  <r_i_glide_einternal>  (305) 
0

>  <r_i_glide_intrahb_reward>  (305) 
-0

>  <i_i_glide_confnum>  (305) 
1

>  <i_i_glide_posenum>  (305) 
8

>  <r_i_glide_eff_state_penalty>  (305) 
0

>  <ligand_id>  (305) 
82

>  <original_smiles>  (305) 
CN1CC=C2c3cnccc3C34C5CCN(C)C3C3OC(=O)C24C3C51

>  <smiles>  (305) 
[H]C1=C2c3c([H])nc([H])c([H])c3C34C25C(=O)OC2([H])C5([H])C([H])(C3([H])C([H])([H])C([H])([H])[N+]([H])(C([H])([H])[H])C24[H])[N+]([H])(C([H])([H])[H])C1([H])[H]

$$$$
82:5:2
     RDKit          3D

 48 54  0  0  1  0  0  0  0  0999 V2000
    3.0311   -1.4918   -2.7754 C   0  0  0  0  0  0  0  0  0  0  0  0
    3.4561   -2.4044   -1.6795 N   0  0  1  0  0  0  0  0  0  0  0  0
    4.4230   -3.4231   -2.2332 C   0  0  0  0  0  0  0  0  0  0  0  0
    4.9317   -4.4358   -1.2213 C   0  0  0  0  0  0  0  0  0  0  0  0
    5.5171   -4.0941   -0.0793 C   0  0  0  0  0  0  0  0  0  0  0  0
    5.4267   -4.8417    1.1731 C   0  0  0  0  0  0  0  0  0  0  0  0
    5.5291   -6.2094    1.4700 C   0  0  0  0  0  0  0  0  0  0  0  0
    5.4368   -6.6462    2.7473 N   0  0  0  0  0  0  0  0  0  0  0  0
    5.2280   -5.7422    3.7372 C   0  0  0  0  0  0  0  0  0  0  0  0
    5.0557   -4.3552    3.5229 C   0  0  0  0  0  0  0  0  0  0  0  0
    5.1370   -3.9213    2.1870 C   0  0  0  0  0  0  0  0  0  0  0  0
    4.9416   -2.5326    1.5890 C   0  0  1  0  0  0  0  0  0  0  0  0
    3.5349   -2.3221    0.9122 C   0  0  1  0  0  0  0  0  0  0  0  0
    2.5801   -1.5000    1.7983 C   0  0  0  0  0  0  0  0  0  0  0  0
    3.1911   -0.1677    2.2549 C   0  0  0  0  0  0  0  0  0  0  0  0
    4.4742   -0.3865    2.9602 N   0  0  1  0  0  0  0  0  0  0  0  0
    4.2790   -0.8307    4.3648 C   0  0  0  0  0  0  0  0  0  0  0  0
    5.4624   -1.2099    2.1913 C   0  0  2  0  0  0  0  0  0  0  0  0
    5.9759   -0.5906    0.8395 C   0  0  1  0  0  0  0  0  0  0  0  0
    7.3227   -1.0632    0.7345 O   0  0  0  0  0  0  0  0  0  0  0  0
    7.3095   -2.3646    0.4731 C   0  0  0  0  0  0  0  0  0  0  0  0
    8.2600   -3.1362    0.3382 O   0  0  0  0  0  0  0  0  0  0  0  0
    5.8242   -2.6886    0.3378 C   0  0  1  0  0  0  0  0  0  0  0  0
    5.3651   -1.4377   -0.3431 C   0  0  1  0  0  0  0  0  0  0  0  0
    3.8574   -1.6279   -0.4414 C   0  0  1  0  0  0  0  0  0  0  0  0
    3.8667   -0.8776   -3.1230 H   0  0  0  0  0  0  0  0  0  0  0  0
    2.2340   -0.8236   -2.4490 H   0  0  0  0  0  0  0  0  0  0  0  0
    2.6536   -2.0587   -3.6315 H   0  0  0  0  0  0  0  0  0  0  0  0
    3.8927   -3.9864   -2.9998 H   0  0  0  0  0  0  0  0  0  0  0  0
    5.2708   -2.9706   -2.7463 H   0  0  0  0  0  0  0  0  0  0  0  0
    4.6125   -5.4542   -1.3492 H   0  0  0  0  0  0  0  0  0  0  0  0
    5.6975   -6.9498    0.7016 H   0  0  0  0  0  0  0  0  0  0  0  0
    5.1803   -6.1440    4.7377 H   0  0  0  0  0  0  0  0  0  0  0  0
    4.8928   -3.6820    4.3454 H   0  0  0  0  0  0  0  0  0  0  0  0
    3.0599   -3.2870    0.7186 H   0  0  0  0  0  0  0  0  0  0  0  0
    1.6463   -1.3025    1.2784 H   0  0  0  0  0  0  0  0  0  0  0  0
    2.2999   -2.0946    2.6694 H   0  0  0  0  0  0  0  0  0  0  0  0
    3.3510    0.5055    1.4119 H   0  0  0  0  0  0  0  0  0  0  0  0
    2.4965    0.3536    2.9152 H   0  0  0  0  0  0  0  0  0  0  0  0
    3.7734   -1.7944    4.4126 H   0  0  0  0  0  0  0  0  0  0  0  0
    3.6566   -0.1134    4.9044 H   0  0  0  0  0  0  0  0  0  0  0  0
    5.2278   -0.9053    4.9021 H   0  0  0  0  0  0  0  0  0  0  0  0
    6.3091   -1.3845    2.8519 H   0  0  0  0  0  0  0  0  0  0  0  0
    5.8959    0.4939    0.7513 H   0  0  0  0  0  0  0  0  0  0  0  0
    5.8332   -1.2119   -1.3065 H   0  0  0  0  0  0  0  0  0  0  0  0
    3.3772   -0.6532   -0.4804 H   0  0  0  0  0  0  0  0  0  0  0  0
    4.8811    0.5323    3.0622 H   0  0  0  0  0  0  0  0  0  0  0  0
    2.6096   -2.8995   -1.4262 H   0  0  0  0  0  0  0  0  0  0  0  0
  1  2  1  0
  1 26  1  0
  1 27  1  0
  1 28  1  0
  2 25  1  0
  2  3  1  0
  2 48  1  1
  3  4  1  0
  3 29  1  0
  3 30  1  0
  4  5  2  0
  4 31  1  0
  5 23  1  0
  5  6  1  0
  6 11  2  0
  6  7  1  0
  7  8  2  0
  7 32  1  0
  8  9  1  0
  9 10  2  0
  9 33  1  0
 10 11  1  0
 10 34  1  0
 12 11  1  1
 12 18  1  0
 12 23  1  0
 12 13  1  0
 13 25  1  0
 13 14  1  0
 13 35  1  6
 14 15  1  0
 14 36  1  0
 14 37  1  0
 15 16  1  0
 15 38  1  0
 15 39  1  0
 16 17  1  0
 16 18  1  0
 16 47  1  1
 17 40  1  0
 17 41  1  0
 17 42  1  0
 18 19  1  0
 18 43  1  1
 19 24  1  0
 19 20  1  0
 19 44  1  6
 20 21  1  0
 21 22  2  0
 23 21  1  1
 23 24  1  0
 24 25  1  0
 24 45  1  6
 25 46  1  1
M  CHG  2   2   1  16   1
M  END
>  <i_m_ct_stereo_status>  (306) 
1

>  <s_m_source_file>  (306) 
/var/tmp/pbs.5076255.sched01/tmpyc7t0a4i/88yk12rjyo.sdf

>  <i_m_source_file_index>  (306) 
41

>  <i_lp_mmshare_version>  (306) 
48012

>  <i_f3d_flags>  (306) 
0

>  <s_epik_input>  (306) 
W2NIXTFuW2NIXVtjSF1jMmMxQyhbQ0BAXTM0W0NAXTI1Nik9W0NIXVtDSDJdTihbQ0gzXSlbQ0BIXTdbQ0BASF01W0NIMl1bQ0gyXU4oW0NIM10pW0NAQEhdNltDQEhdKFtDQEBIXTQ3KU9DMz1P

>  <s_epik_cmdline>  (306) 
J2VwaWtfcHl0aG9uJywgJy1waHQnLCAnMi4wJywgJy1waCcsICc3LjAnLCAnLXRuJywgJzgnLCAnLW1hJywgJzIwMCcsICctaW1hZScsICc8aW5maWxlLm1hZT4nLCAnLW9tYWUnLCAnPG91dGZpbGUubWFlPic=

>  <r_epik_Ionization_Penalty>  (306) 
3.43972

>  <r_epik_Ionization_Penalty_Charging>  (306) 
3.43971

>  <r_epik_Ionization_Penalty_Neutral>  (306) 
1.40607e-05

>  <r_epik_State_Penalty>  (306) 
2.55859

>  <r_epik_Charging_Adjusted_Penalty>  (306) 
5.99829

>  <i_epik_Tot_Q>  (306) 
2

>  <i_epik_Tot_abs_Q>  (306) 
2

>  <s_epik_Chemistry_Notes>  (306) 
This compound has an ester and may undergo hydrolysis at high or low pH.

>  <s_lp_Force_Field>  (306) 
OPLS3e

>  <r_lp_Energy>  (306) 
129.046

>  <b_lp_Chiralities_Consistent>  (306) 
1

>  <s_lp_Variant>  (306) 
82:0-6

>  <s_i_glide_gridfile>  (306) 
pfpi4k_grid

>  <i_i_glide_lignum>  (306) 
41

>  <i_i_glide_rotatable_bonds>  (306) 
0

>  <r_i_docking_score>  (306) 
-3.76831

>  <r_i_glide_ligand_efficiency>  (306) 
-0.150732

>  <r_i_glide_ligand_efficiency_sa>  (306) 
-0.440744

>  <r_i_glide_ligand_efficiency_ln>  (306) 
-0.893202

>  <r_i_glide_gscore>  (306) 
-3.76831

>  <r_i_glide_lipo>  (306) 
-0.554199

>  <r_i_glide_hbond>  (306) 
0

>  <r_i_glide_metal>  (306) 
-0

>  <r_i_glide_rewards>  (306) 
-1.29741

>  <r_i_glide_evdw>  (306) 
-19.2844

>  <r_i_glide_ecoul>  (306) 
-6.03424

>  <r_i_glide_erotb>  (306) 
0

>  <r_i_glide_esite>  (306) 
-0.0473417

>  <r_i_glide_emodel>  (306) 
-31.5523

>  <r_i_glide_energy>  (306) 
-25.3186

>  <r_i_glide_einternal>  (306) 
0

>  <r_i_glide_intrahb_reward>  (306) 
-0

>  <i_i_glide_confnum>  (306) 
1

>  <i_i_glide_posenum>  (306) 
1

>  <r_i_glide_eff_state_penalty>  (306) 
0

>  <ligand_id>  (306) 
82

>  <original_smiles>  (306) 
CN1CC=C2c3cnccc3C34C5CCN(C)C3C3OC(=O)C24C3C51

>  <smiles>  (306) 
[H]C1=C2c3c([H])nc([H])c([H])c3C34C25C(=O)OC2([H])C5([H])C([H])(C3([H])C([H])([H])C([H])([H])[N+]([H])(C([H])([H])[H])C24[H])[N+]([H])(C([H])([H])[H])C1([H])[H]

$$$$
85:0:0
     RDKit          3D

 43 46  0  0  1  0  0  0  0  0999 V2000
    2.6187   -5.8853    2.3592 C   0  0  0  0  0  0  0  0  0  0  0  0
    2.7821   -4.5502    1.6099 C   0  0  2  0  0  0  0  0  0  0  0  0
    2.9622   -4.8310    0.1137 C   0  0  0  0  0  0  0  0  0  0  0  0
    2.9736   -3.5324   -0.6892 C   0  0  0  0  0  0  0  0  0  0  0  0
    4.0428   -2.5561   -0.1880 C   0  0  2  0  0  0  0  0  0  0  0  0
    5.4991   -2.9664   -0.5236 C   0  0  1  0  0  0  0  0  0  0  0  0
    5.9047   -2.6301   -1.9715 C   0  0  0  0  0  0  0  0  0  0  0  0
    6.3482   -2.3066    0.5881 C   0  0  1  0  0  0  0  0  0  0  0  0
    7.3631   -1.4568    0.1007 O   0  0  0  0  0  0  0  0  0  0  0  0
    5.3393   -1.5018    1.4137 C   0  0  2  0  0  0  0  0  0  0  0  0
    5.7475   -1.2524    2.7287 O   0  0  0  0  0  0  0  0  0  0  0  0
    4.6479   -1.0325    3.5963 C   0  0  2  0  0  0  0  0  0  0  0  0
    5.0485    0.1116    4.5349 C   0  0  0  0  0  0  0  0  0  0  0  0
    4.4773   -2.3319    4.3880 C   0  0  0  0  0  0  0  0  0  0  0  0
    3.6554   -3.4039    3.6736 C   0  0  0  0  0  0  0  0  0  0  0  0
    3.9221   -3.6388    2.1662 C   0  0  2  0  0  0  0  0  0  0  0  0
    4.0338   -2.3064    1.3398 C   0  0  2  0  0  0  0  0  0  0  0  0
    2.9900   -1.4479    1.7694 O   0  0  0  0  0  0  0  0  0  0  0  0
    3.4517   -0.5576    2.9483 O   0  0  0  0  0  0  0  0  0  0  0  0
    3.5577   -6.4375    2.3958 H   0  0  0  0  0  0  0  0  0  0  0  0
    1.8814   -6.5225    1.8692 H   0  0  0  0  0  0  0  0  0  0  0  0
    2.2667   -5.7395    3.3802 H   0  0  0  0  0  0  0  0  0  0  0  0
    1.8413   -4.0101    1.7243 H   0  0  0  0  0  0  0  0  0  0  0  0
    3.8793   -5.3992   -0.0529 H   0  0  0  0  0  0  0  0  0  0  0  0
    2.1517   -5.4612   -0.2553 H   0  0  0  0  0  0  0  0  0  0  0  0
    3.1305   -3.7534   -1.7458 H   0  0  0  0  0  0  0  0  0  0  0  0
    1.9967   -3.0556   -0.6109 H   0  0  0  0  0  0  0  0  0  0  0  0
    3.8490   -1.5975   -0.6790 H   0  0  0  0  0  0  0  0  0  0  0  0
    5.6112   -4.0430   -0.4039 H   0  0  0  0  0  0  0  0  0  0  0  0
    5.8210   -1.5616   -2.1782 H   0  0  0  0  0  0  0  0  0  0  0  0
    5.2628   -3.1528   -2.6792 H   0  0  0  0  0  0  0  0  0  0  0  0
    6.9307   -2.9399   -2.1760 H   0  0  0  0  0  0  0  0  0  0  0  0
    6.8030   -3.0762    1.2153 H   0  0  0  0  0  0  0  0  0  0  0  0
    7.7364   -1.0111    0.8514 H   0  0  0  0  0  0  0  0  0  0  0  0
    5.1836   -0.5328    0.9329 H   0  0  0  0  0  0  0  0  0  0  0  0
    5.1824    1.0312    3.9649 H   0  0  0  0  0  0  0  0  0  0  0  0
    5.9780   -0.0952    5.0692 H   0  0  0  0  0  0  0  0  0  0  0  0
    4.2689    0.3046    5.2779 H   0  0  0  0  0  0  0  0  0  0  0  0
    5.4638   -2.7307    4.6325 H   0  0  0  0  0  0  0  0  0  0  0  0
    4.0037   -2.1304    5.3524 H   0  0  0  0  0  0  0  0  0  0  0  0
    3.8268   -4.3361    4.2116 H   0  0  0  0  0  0  0  0  0  0  0  0
    2.6032   -3.1578    3.8172 H   0  0  0  0  0  0  0  0  0  0  0  0
    4.8590   -4.1827    2.0691 H   0  0  0  0  0  0  0  0  0  0  0  0
  1  2  1  0
  1 20  1  0
  1 21  1  0
  1 22  1  0
  2 16  1  0
  2  3  1  0
  2 23  1  6
  3  4  1  0
  3 24  1  0
  3 25  1  0
  4  5  1  0
  4 26  1  0
  4 27  1  0
  5 17  1  0
  5  6  1  0
  5 28  1  6
  6  7  1  0
  6  8  1  0
  6 29  1  6
  7 30  1  0
  7 31  1  0
  7 32  1  0
  8  9  1  0
  8 10  1  0
  8 33  1  1
  9 34  1  0
 10 17  1  0
 10 11  1  0
 10 35  1  6
 11 12  1  0
 12 19  1  0
 12 13  1  1
 12 14  1  0
 13 36  1  0
 13 37  1  0
 13 38  1  0
 14 15  1  0
 14 39  1  0
 14 40  1  0
 15 16  1  0
 15 41  1  0
 15 42  1  0
 16 17  1  0
 16 43  1  1
 17 18  1  6
 18 19  1  0
M  END
>  <i_m_ct_stereo_status>  (307) 
1

>  <s_m_source_file>  (307) 
/var/tmp/pbs.5076255.sched01/tmpyc7t0a4i/88yk12rjyo.sdf

>  <i_m_source_file_index>  (307) 
44

>  <i_lp_mmshare_version>  (307) 
48012

>  <i_f3d_flags>  (307) 
0

>  <s_epik_input>  (307) 
W0NAQF0xMjNbQ0BASF00W0NIMl1bQ0gyXVtDQEBIXShbQ0gzXSlbQ0BASF0yW0NIMl1bQ0gyXVtDQF0oW0NIM10pKE9PMylPW0NASF0xW0NASF0oW09IXSlbQ0BASF00W0NIM10=

>  <s_epik_cmdline>  (307) 
J2VwaWtfcHl0aG9uJywgJy1waHQnLCAnMi4wJywgJy1waCcsICc3LjAnLCAnLXRuJywgJzgnLCAnLW1hJywgJzIwMCcsICctaW1hZScsICc8aW5maWxlLm1hZT4nLCAnLW9tYWUnLCAnPG91dGZpbGUubWFlPic=

>  <r_lp_tautomer_probability>  (307) 
1

>  <r_epik_Ionization_Penalty>  (307) 
4.86243e-08

>  <r_epik_Ionization_Penalty_Charging>  (307) 
0

>  <r_epik_Ionization_Penalty_Neutral>  (307) 
4.86243e-08

>  <r_epik_State_Penalty>  (307) 
-0

>  <r_epik_Charging_Adjusted_Penalty>  (307) 
0

>  <i_epik_Tot_Q>  (307) 
0

>  <i_epik_Tot_abs_Q>  (307) 
0

>  <s_lp_Force_Field>  (307) 
OPLS3e

>  <r_lp_Energy>  (307) 
40.8722

>  <b_lp_Chiralities_Consistent>  (307) 
1

>  <s_lp_Variant>  (307) 
85:0-1

>  <s_i_glide_gridfile>  (307) 
pfpi4k_grid

>  <i_i_glide_lignum>  (307) 
44

>  <i_i_glide_rotatable_bonds>  (307) 
1

>  <r_i_docking_score>  (307) 
-3.3138

>  <r_i_glide_ligand_efficiency>  (307) 
-0.174411

>  <r_i_glide_ligand_efficiency_sa>  (307) 
-0.465397

>  <r_i_glide_ligand_efficiency_ln>  (307) 
-0.840119

>  <r_i_glide_gscore>  (307) 
-3.3138

>  <r_i_glide_lipo>  (307) 
-0.318076

>  <r_i_glide_hbond>  (307) 
0

>  <r_i_glide_metal>  (307) 
-0

>  <r_i_glide_rewards>  (307) 
-1.65812

>  <r_i_glide_evdw>  (307) 
-19.3392

>  <r_i_glide_ecoul>  (307) 
-2.47097

>  <r_i_glide_erotb>  (307) 
0

>  <r_i_glide_esite>  (307) 
0

>  <r_i_glide_emodel>  (307) 
-26.2834

>  <r_i_glide_energy>  (307) 
-21.8102

>  <r_i_glide_einternal>  (307) 
0.397903

>  <r_i_glide_intrahb_reward>  (307) 
-0

>  <i_i_glide_confnum>  (307) 
1

>  <i_i_glide_posenum>  (307) 
14

>  <r_i_glide_eff_state_penalty>  (307) 
0

>  <ligand_id>  (307) 
85

>  <original_smiles>  (307) 
CC1CCC2C(C)C(O)C3OC4(C)CCC1C23OO4

>  <smiles>  (307) 
[H]OC1([H])C2([H])OC3(C([H])([H])[H])OOC24C([H])(C([H])([H])C3([H])[H])C([H])(C([H])([H])[H])C([H])([H])C([H])([H])C4([H])C1([H])C([H])([H])[H]

$$$$
85:0:1
     RDKit          3D

 43 46  0  0  1  0  0  0  0  0999 V2000
    5.3186   -4.9925    3.7414 C   0  0  0  0  0  0  0  0  0  0  0  0
    4.4556   -4.5599    2.5433 C   0  0  2  0  0  0  0  0  0  0  0  0
    4.8522   -5.3935    1.3180 C   0  0  0  0  0  0  0  0  0  0  0  0
    3.9155   -5.1145    0.1487 C   0  0  0  0  0  0  0  0  0  0  0  0
    3.8500   -3.6220   -0.2041 C   0  0  2  0  0  0  0  0  0  0  0  0
    5.1173   -3.0582   -0.9033 C   0  0  1  0  0  0  0  0  0  0  0  0
    5.1797   -3.3928   -2.4062 C   0  0  0  0  0  0  0  0  0  0  0  0
    5.1267   -1.5533   -0.5361 C   0  0  1  0  0  0  0  0  0  0  0  0
    5.1575   -0.6754   -1.6490 O   0  0  0  0  0  0  0  0  0  0  0  0
    3.8335   -1.3518    0.2565 C   0  0  2  0  0  0  0  0  0  0  0  0
    3.8797   -0.2585    1.1315 O   0  0  0  0  0  0  0  0  0  0  0  0
    2.9499   -0.3860    2.1950 C   0  0  2  0  0  0  0  0  0  0  0  0
    2.3038    0.9919    2.3914 C   0  0  0  0  0  0  0  0  0  0  0  0
    3.7920   -0.7685    3.4146 C   0  0  0  0  0  0  0  0  0  0  0  0
    4.0898   -2.2652    3.5241 C   0  0  0  0  0  0  0  0  0  0  0  0
    4.4990   -3.0274    2.2377 C   0  0  2  0  0  0  0  0  0  0  0  0
    3.6002   -2.6751    0.9984 C   0  0  2  0  0  0  0  0  0  0  0  0
    2.2563   -2.6731    1.4470 O   0  0  0  0  0  0  0  0  0  0  0  0
    1.8393   -1.2717    1.9533 O   0  0  0  0  0  0  0  0  0  0  0  0
    6.3465   -4.6754    3.6073 H   0  0  0  0  0  0  0  0  0  0  0  0
    5.3231   -6.0754    3.8524 H   0  0  0  0  0  0  0  0  0  0  0  0
    4.9476   -4.5864    4.6830 H   0  0  0  0  0  0  0  0  0  0  0  0
    3.4256   -4.8279    2.7918 H   0  0  0  0  0  0  0  0  0  0  0  0
    5.8886   -5.1874    1.0433 H   0  0  0  0  0  0  0  0  0  0  0  0
    4.8077   -6.4595    1.5559 H   0  0  0  0  0  0  0  0  0  0  0  0
    4.2300   -5.6948   -0.7198 H   0  0  0  0  0  0  0  0  0  0  0  0
    2.9158   -5.4636    0.4083 H   0  0  0  0  0  0  0  0  0  0  0  0
    3.0169   -3.4991   -0.9018 H   0  0  0  0  0  0  0  0  0  0  0  0
    5.9966   -3.5089   -0.4417 H   0  0  0  0  0  0  0  0  0  0  0  0
    4.3368   -2.9721   -2.9562 H   0  0  0  0  0  0  0  0  0  0  0  0
    5.1661   -4.4734   -2.5627 H   0  0  0  0  0  0  0  0  0  0  0  0
    6.0996   -3.0134   -2.8525 H   0  0  0  0  0  0  0  0  0  0  0  0
    5.9818   -1.3458    0.1062 H   0  0  0  0  0  0  0  0  0  0  0  0
    5.0140    0.2147   -1.3354 H   0  0  0  0  0  0  0  0  0  0  0  0
    3.0168   -1.1876   -0.4433 H   0  0  0  0  0  0  0  0  0  0  0  0
    1.7209    1.2701    1.5121 H   0  0  0  0  0  0  0  0  0  0  0  0
    3.0433    1.7770    2.5622 H   0  0  0  0  0  0  0  0  0  0  0  0
    1.6179    0.9912    3.2421 H   0  0  0  0  0  0  0  0  0  0  0  0
    4.7299   -0.2081    3.3897 H   0  0  0  0  0  0  0  0  0  0  0  0
    3.2919   -0.4542    4.3337 H   0  0  0  0  0  0  0  0  0  0  0  0
    4.8843   -2.3692    4.2599 H   0  0  0  0  0  0  0  0  0  0  0  0
    3.2101   -2.7428    3.9548 H   0  0  0  0  0  0  0  0  0  0  0  0
    5.5288   -2.7643    1.9985 H   0  0  0  0  0  0  0  0  0  0  0  0
  1  2  1  0
  1 20  1  0
  1 21  1  0
  1 22  1  0
  2 16  1  0
  2  3  1  0
  2 23  1  1
  3  4  1  0
  3 24  1  0
  3 25  1  0
  4  5  1  0
  4 26  1  0
  4 27  1  0
  5 17  1  0
  5  6  1  0
  5 28  1  6
  6  7  1  0
  6  8  1  0
  6 29  1  1
  7 30  1  0
  7 31  1  0
  7 32  1  0
  8  9  1  0
  8 10  1  0
  8 33  1  1
  9 34  1  0
 10 17  1  0
 10 11  1  0
 10 35  1  6
 11 12  1  0
 12 19  1  0
 12 13  1  1
 12 14  1  0
 13 36  1  0
 13 37  1  0
 13 38  1  0
 14 15  1  0
 14 39  1  0
 14 40  1  0
 15 16  1  0
 15 41  1  0
 15 42  1  0
 16 17  1  0
 16 43  1  6
 17 18  1  1
 18 19  1  0
M  END
>  <i_m_ct_stereo_status>  (308) 
1

>  <s_m_source_file>  (308) 
/var/tmp/pbs.5076255.sched01/tmpyc7t0a4i/88yk12rjyo.sdf

>  <i_m_source_file_index>  (308) 
44

>  <i_lp_mmshare_version>  (308) 
48012

>  <i_f3d_flags>  (308) 
0

>  <s_epik_input>  (308) 
W0NAQF0xMjNbQ0BASF00W0NIMl1bQ0gyXVtDQEBIXShbQ0gzXSlbQ0BASF0yW0NIMl1bQ0gyXVtDQF0oW0NIM10pKE9PMylPW0NASF0xW0NASF0oW09IXSlbQ0BASF00W0NIM10=

>  <s_epik_cmdline>  (308) 
J2VwaWtfcHl0aG9uJywgJy1waHQnLCAnMi4wJywgJy1waCcsICc3LjAnLCAnLXRuJywgJzgnLCAnLW1hJywgJzIwMCcsICctaW1hZScsICc8aW5maWxlLm1hZT4nLCAnLW9tYWUnLCAnPG91dGZpbGUubWFlPic=

>  <r_lp_tautomer_probability>  (308) 
1

>  <r_epik_Ionization_Penalty>  (308) 
4.86243e-08

>  <r_epik_Ionization_Penalty_Charging>  (308) 
0

>  <r_epik_Ionization_Penalty_Neutral>  (308) 
4.86243e-08

>  <r_epik_State_Penalty>  (308) 
-0

>  <r_epik_Charging_Adjusted_Penalty>  (308) 
0

>  <i_epik_Tot_Q>  (308) 
0

>  <i_epik_Tot_abs_Q>  (308) 
0

>  <s_lp_Force_Field>  (308) 
OPLS3e

>  <r_lp_Energy>  (308) 
40.8722

>  <b_lp_Chiralities_Consistent>  (308) 
1

>  <s_lp_Variant>  (308) 
85:0-1

>  <s_i_glide_gridfile>  (308) 
pfpi4k_grid

>  <i_i_glide_lignum>  (308) 
44

>  <i_i_glide_rotatable_bonds>  (308) 
1

>  <r_i_docking_score>  (308) 
-3.2871

>  <r_i_glide_ligand_efficiency>  (308) 
-0.173006

>  <r_i_glide_ligand_efficiency_sa>  (308) 
-0.461648

>  <r_i_glide_ligand_efficiency_ln>  (308) 
-0.833352

>  <r_i_glide_gscore>  (308) 
-3.2871

>  <r_i_glide_lipo>  (308) 
-0.315572

>  <r_i_glide_hbond>  (308) 
0

>  <r_i_glide_metal>  (308) 
-0

>  <r_i_glide_rewards>  (308) 
-1.57944

>  <r_i_glide_evdw>  (308) 
-20.2805

>  <r_i_glide_ecoul>  (308) 
-2.40832

>  <r_i_glide_erotb>  (308) 
0

>  <r_i_glide_esite>  (308) 
-0.0168204

>  <r_i_glide_emodel>  (308) 
-27.0416

>  <r_i_glide_energy>  (308) 
-22.6888

>  <r_i_glide_einternal>  (308) 
0.45431

>  <r_i_glide_intrahb_reward>  (308) 
-0

>  <i_i_glide_confnum>  (308) 
2

>  <i_i_glide_posenum>  (308) 
1

>  <r_i_glide_eff_state_penalty>  (308) 
0

>  <ligand_id>  (308) 
85

>  <original_smiles>  (308) 
CC1CCC2C(C)C(O)C3OC4(C)CCC1C23OO4

>  <smiles>  (308) 
[H]OC1([H])C2([H])OC3(C([H])([H])[H])OOC24C([H])(C([H])([H])C3([H])[H])C([H])(C([H])([H])[H])C([H])([H])C([H])([H])C4([H])C1([H])C([H])([H])[H]

$$$$
85:0:2
     RDKit          3D

 43 46  0  0  1  0  0  0  0  0999 V2000
    5.4042   -4.9736    3.6559 C   0  0  0  0  0  0  0  0  0  0  0  0
    4.4928   -4.5879    2.4786 C   0  0  2  0  0  0  0  0  0  0  0  0
    4.8322   -5.4771    1.2761 C   0  0  0  0  0  0  0  0  0  0  0  0
    3.8490   -5.2416    0.1366 C   0  0  0  0  0  0  0  0  0  0  0  0
    3.7779   -3.7666   -0.2801 C   0  0  2  0  0  0  0  0  0  0  0  0
    5.0218   -3.2574   -1.0518 C   0  0  1  0  0  0  0  0  0  0  0  0
    5.0178   -3.6457   -2.5460 C   0  0  0  0  0  0  0  0  0  0  0  0
    5.0806   -1.7434   -0.7515 C   0  0  1  0  0  0  0  0  0  0  0  0
    5.0893   -0.9549   -1.9229 O   0  0  0  0  0  0  0  0  0  0  0  0
    3.8262   -1.4751    0.0832 C   0  0  2  0  0  0  0  0  0  0  0  0
    3.8978   -0.3427    0.9045 O   0  0  0  0  0  0  0  0  0  0  0  0
    3.0105   -0.4165    2.0080 C   0  0  2  0  0  0  0  0  0  0  0  0
    2.3808    0.9714    2.1702 C   0  0  0  0  0  0  0  0  0  0  0  0
    3.8967   -0.7560    3.2077 C   0  0  0  0  0  0  0  0  0  0  0  0
    4.1881   -2.2492    3.3721 C   0  0  0  0  0  0  0  0  0  0  0  0
    4.5356   -3.0697    2.1046 C   0  0  2  0  0  0  0  0  0  0  0  0
    3.5899   -2.7649    0.8869 C   0  0  2  0  0  0  0  0  0  0  0  0
    2.2650   -2.7242    1.3887 O   0  0  0  0  0  0  0  0  0  0  0  0
    1.8833   -1.3009    1.8426 O   0  0  0  0  0  0  0  0  0  0  0  0
    6.4284   -4.6701    3.4601 H   0  0  0  0  0  0  0  0  0  0  0  0
    5.4045   -6.0517    3.8126 H   0  0  0  0  0  0  0  0  0  0  0  0
    5.0779   -4.5249    4.5919 H   0  0  0  0  0  0  0  0  0  0  0  0
    3.4727   -4.8330    2.7803 H   0  0  0  0  0  0  0  0  0  0  0  0
    5.8584   -5.2948    0.9507 H   0  0  0  0  0  0  0  0  0  0  0  0
    4.7887   -6.5293    1.5620 H   0  0  0  0  0  0  0  0  0  0  0  0
    4.1378   -5.8601   -0.7137 H   0  0  0  0  0  0  0  0  0  0  0  0
    2.8578   -5.5699    0.4516 H   0  0  0  0  0  0  0  0  0  0  0  0
    2.9173   -3.6653   -0.9474 H   0  0  0  0  0  0  0  0  0  0  0  0
    5.9178   -3.6909   -0.6126 H   0  0  0  0  0  0  0  0  0  0  0  0
    4.1511   -3.2498   -3.0803 H   0  0  0  0  0  0  0  0  0  0  0  0
    5.0128   -4.7299   -2.6556 H   0  0  0  0  0  0  0  0  0  0  0  0
    5.9193   -3.2825   -3.0434 H   0  0  0  0  0  0  0  0  0  0  0  0
    5.9651   -1.5163   -0.1594 H   0  0  0  0  0  0  0  0  0  0  0  0
    4.2071   -0.9288   -2.2635 H   0  0  0  0  0  0  0  0  0  0  0  0
    2.9998   -1.3242   -0.6076 H   0  0  0  0  0  0  0  0  0  0  0  0
    1.7658    1.2148    1.3025 H   0  0  0  0  0  0  0  0  0  0  0  0
    3.1331    1.7538    2.2788 H   0  0  0  0  0  0  0  0  0  0  0  0
    1.7300    1.0127    3.0478 H   0  0  0  0  0  0  0  0  0  0  0  0
    4.8383   -0.2080    3.1205 H   0  0  0  0  0  0  0  0  0  0  0  0
    3.4393   -0.3963    4.1336 H   0  0  0  0  0  0  0  0  0  0  0  0
    5.0115   -2.3305    4.0800 H   0  0  0  0  0  0  0  0  0  0  0  0
    3.3207   -2.6987    3.8562 H   0  0  0  0  0  0  0  0  0  0  0  0
    5.5554   -2.8274    1.8109 H   0  0  0  0  0  0  0  0  0  0  0  0
  1  2  1  0
  1 20  1  0
  1 21  1  0
  1 22  1  0
  2 16  1  0
  2  3  1  0
  2 23  1  1
  3  4  1  0
  3 24  1  0
  3 25  1  0
  4  5  1  0
  4 26  1  0
  4 27  1  0
  5 17  1  0
  5  6  1  0
  5 28  1  6
  6  7  1  0
  6  8  1  0
  6 29  1  1
  7 30  1  0
  7 31  1  0
  7 32  1  0
  8  9  1  0
  8 10  1  0
  8 33  1  1
  9 34  1  0
 10 17  1  0
 10 11  1  0
 10 35  1  6
 11 12  1  0
 12 19  1  0
 12 13  1  1
 12 14  1  0
 13 36  1  0
 13 37  1  0
 13 38  1  0
 14 15  1  0
 14 39  1  0
 14 40  1  0
 15 16  1  0
 15 41  1  0
 15 42  1  0
 16 17  1  0
 16 43  1  6
 17 18  1  1
 18 19  1  0
M  END
>  <i_m_ct_stereo_status>  (309) 
1

>  <s_m_source_file>  (309) 
/var/tmp/pbs.5076255.sched01/tmpyc7t0a4i/88yk12rjyo.sdf

>  <i_m_source_file_index>  (309) 
44

>  <i_lp_mmshare_version>  (309) 
48012

>  <i_f3d_flags>  (309) 
0

>  <s_epik_input>  (309) 
W0NAQF0xMjNbQ0BASF00W0NIMl1bQ0gyXVtDQEBIXShbQ0gzXSlbQ0BASF0yW0NIMl1bQ0gyXVtDQF0oW0NIM10pKE9PMylPW0NASF0xW0NASF0oW09IXSlbQ0BASF00W0NIM10=

>  <s_epik_cmdline>  (309) 
J2VwaWtfcHl0aG9uJywgJy1waHQnLCAnMi4wJywgJy1waCcsICc3LjAnLCAnLXRuJywgJzgnLCAnLW1hJywgJzIwMCcsICctaW1hZScsICc8aW5maWxlLm1hZT4nLCAnLW9tYWUnLCAnPG91dGZpbGUubWFlPic=

>  <r_lp_tautomer_probability>  (309) 
1

>  <r_epik_Ionization_Penalty>  (309) 
4.86243e-08

>  <r_epik_Ionization_Penalty_Charging>  (309) 
0

>  <r_epik_Ionization_Penalty_Neutral>  (309) 
4.86243e-08

>  <r_epik_State_Penalty>  (309) 
-0

>  <r_epik_Charging_Adjusted_Penalty>  (309) 
0

>  <i_epik_Tot_Q>  (309) 
0

>  <i_epik_Tot_abs_Q>  (309) 
0

>  <s_lp_Force_Field>  (309) 
OPLS3e

>  <r_lp_Energy>  (309) 
40.8722

>  <b_lp_Chiralities_Consistent>  (309) 
1

>  <s_lp_Variant>  (309) 
85:0-1

>  <s_i_glide_gridfile>  (309) 
pfpi4k_grid

>  <i_i_glide_lignum>  (309) 
44

>  <i_i_glide_rotatable_bonds>  (309) 
1

>  <r_i_docking_score>  (309) 
-2.90257

>  <r_i_glide_ligand_efficiency>  (309) 
-0.152767

>  <r_i_glide_ligand_efficiency_sa>  (309) 
-0.407643

>  <r_i_glide_ligand_efficiency_ln>  (309) 
-0.735863

>  <r_i_glide_gscore>  (309) 
-2.90257

>  <r_i_glide_lipo>  (309) 
-0.227241

>  <r_i_glide_hbond>  (309) 
0

>  <r_i_glide_metal>  (309) 
-0

>  <r_i_glide_rewards>  (309) 
-1.57944

>  <r_i_glide_evdw>  (309) 
-20.9791

>  <r_i_glide_ecoul>  (309) 
-0.167043

>  <r_i_glide_erotb>  (309) 
0

>  <r_i_glide_esite>  (309) 
-0.0218726

>  <r_i_glide_emodel>  (309) 
-24.919

>  <r_i_glide_energy>  (309) 
-21.1461

>  <r_i_glide_einternal>  (309) 
0.173412

>  <r_i_glide_intrahb_reward>  (309) 
-0

>  <i_i_glide_confnum>  (309) 
2

>  <i_i_glide_posenum>  (309) 
20

>  <r_i_glide_eff_state_penalty>  (309) 
0

>  <ligand_id>  (309) 
85

>  <original_smiles>  (309) 
CC1CCC2C(C)C(O)C3OC4(C)CCC1C23OO4

>  <smiles>  (309) 
[H]OC1([H])C2([H])OC3(C([H])([H])[H])OOC24C([H])(C([H])([H])C3([H])[H])C([H])(C([H])([H])[H])C([H])([H])C([H])([H])C4([H])C1([H])C([H])([H])[H]

$$$$
86:0:0
     RDKit          3D

 31 33  0  0  1  0  0  0  0  0999 V2000
    6.3185   -2.8439   -0.4037 C   0  0  0  0  0  0  0  0  0  0  0  0
    4.9052   -3.1260    0.1029 C   0  0  0  0  0  0  0  0  0  0  0  0
    3.9175   -1.9906   -0.2580 C   0  0  1  0  0  0  0  0  0  0  0  0
    2.6169   -2.2953    0.2255 O   0  0  0  0  0  0  0  0  0  0  0  0
    4.3146   -0.6258    0.3974 C   0  0  0  0  0  0  0  0  0  0  0  0
    4.3008   -0.6253    1.8504 N   0  0  0  0  0  0  0  0  0  0  0  0
    3.3442   -0.2525    2.7068 C   0  0  0  0  0  0  0  0  0  0  0  0
    3.7437   -0.3827    3.9620 N   0  0  0  0  0  0  0  0  0  0  0  0
    5.0284   -0.8686    3.8352 N   0  0  0  0  0  0  0  0  0  0  0  0
    5.3753   -0.9968    2.5880 N   0  0  0  0  0  0  0  0  0  0  0  0
    3.7542   -1.8915   -1.7687 C   0  0  0  0  0  0  0  0  0  0  0  0
    3.0894   -2.8792   -2.5724 C   0  0  0  0  0  0  0  0  0  0  0  0
    3.0478   -2.5690   -3.9029 C   0  0  0  0  0  0  0  0  0  0  0  0
    3.8152   -1.0444   -4.2287 S   0  0  0  0  0  0  0  0  0  0  0  0
    4.1940   -0.8374   -2.5402 C   0  0  0  0  0  0  0  0  0  0  0  0
    4.4445   -4.5745    0.0909 C   0  0  0  0  0  0  0  0  0  0  0  0
    4.7628   -3.8934    1.4052 C   0  0  0  0  0  0  0  0  0  0  0  0
    6.3339   -2.7327   -1.4873 H   0  0  0  0  0  0  0  0  0  0  0  0
    6.9777   -3.6700   -0.1450 H   0  0  0  0  0  0  0  0  0  0  0  0
    6.7425   -1.9527    0.0553 H   0  0  0  0  0  0  0  0  0  0  0  0
    1.9776   -1.6957   -0.1916 H   0  0  0  0  0  0  0  0  0  0  0  0
    5.2972   -0.2755    0.0636 H   0  0  0  0  0  0  0  0  0  0  0  0
    3.6145    0.1414    0.0824 H   0  0  0  0  0  0  0  0  0  0  0  0
    2.3740    0.1385    2.4182 H   0  0  0  0  0  0  0  0  0  0  0  0
    2.6511   -3.7743   -2.1464 H   0  0  0  0  0  0  0  0  0  0  0  0
    2.5926   -3.1363   -4.7037 H   0  0  0  0  0  0  0  0  0  0  0  0
    4.6959    0.0642   -2.2146 H   0  0  0  0  0  0  0  0  0  0  0  0
    3.3998   -4.7854   -0.1333 H   0  0  0  0  0  0  0  0  0  0  0  0
    5.1419   -5.3302   -0.2694 H   0  0  0  0  0  0  0  0  0  0  0  0
    5.6767   -4.1816    1.9232 H   0  0  0  0  0  0  0  0  0  0  0  0
    3.9373   -3.6318    2.0666 H   0  0  0  0  0  0  0  0  0  0  0  0
  1  2  1  0
  1 18  1  0
  1 19  1  0
  1 20  1  0
  2 17  1  0
  2  3  1  0
  2 16  1  0
  3  4  1  1
  3  5  1  0
  3 11  1  0
  4 21  1  0
  5  6  1  0
  5 22  1  0
  5 23  1  0
  6 10  1  0
  6  7  1  0
  7  8  2  0
  7 24  1  0
  8  9  1  0
  9 10  2  0
 11 15  2  0
 11 12  1  0
 12 13  2  0
 12 25  1  0
 13 14  1  0
 13 26  1  0
 14 15  1  0
 15 27  1  0
 16 17  1  0
 16 28  1  0
 16 29  1  0
 17 30  1  0
 17 31  1  0
M  END
>  <i_m_ct_stereo_status>  (310) 
1

>  <s_m_source_file>  (310) 
/var/tmp/pbs.5076255.sched01/tmp7b2cfgi2/13234zcpj2x.sdf

>  <i_m_source_file_index>  (310) 
1

>  <i_lp_mmshare_version>  (310) 
48012

>  <i_f3d_flags>  (310) 
0

>  <s_epik_input>  (310) 
W2NIXTFzW2NIXVtjSF1jMVtDQEBdKFtPSF0pKEMyKFtDSDNdKVtDSDJdW0NIMl0yKVtDSDJdbjNbY0hdbm5uMw==

>  <s_epik_cmdline>  (310) 
J2VwaWtfcHl0aG9uJywgJy1waHQnLCAnMi4wJywgJy1waCcsICc3LjAnLCAnLXRuJywgJzgnLCAnLW1hJywgJzIwMCcsICctaW1hZScsICc8aW5maWxlLm1hZT4nLCAnLW9tYWUnLCAnPG91dGZpbGUubWFlPic=

>  <r_lp_tautomer_probability>  (310) 
1

>  <r_epik_Ionization_Penalty>  (310) 
2.1153e-07

>  <r_epik_Ionization_Penalty_Charging>  (310) 
0

>  <r_epik_Ionization_Penalty_Neutral>  (310) 
2.1153e-07

>  <r_epik_State_Penalty>  (310) 
-0

>  <r_epik_Charging_Adjusted_Penalty>  (310) 
0

>  <i_epik_Tot_Q>  (310) 
0

>  <i_epik_Tot_abs_Q>  (310) 
0

>  <s_lp_Force_Field>  (310) 
OPLS3e

>  <r_lp_Energy>  (310) 
4.87104

>  <b_lp_Chiralities_Consistent>  (310) 
1

>  <s_lp_Variant>  (310) 
86:0-1

>  <s_i_glide_gridfile>  (310) 
pfpi4k_grid

>  <i_i_glide_lignum>  (310) 
1

>  <i_i_glide_rotatable_bonds>  (310) 
5

>  <r_i_docking_score>  (310) 
-3.40617

>  <r_i_glide_ligand_efficiency>  (310) 
-0.200363

>  <r_i_glide_ligand_efficiency_sa>  (310) 
-0.51519

>  <r_i_glide_ligand_efficiency_ln>  (310) 
-0.888594

>  <r_i_glide_gscore>  (310) 
-3.40617

>  <r_i_glide_lipo>  (310) 
-0.372461

>  <r_i_glide_hbond>  (310) 
-0.16

>  <r_i_glide_metal>  (310) 
-0

>  <r_i_glide_rewards>  (310) 
-1.81169

>  <r_i_glide_evdw>  (310) 
-22.0157

>  <r_i_glide_ecoul>  (310) 
-7.19182

>  <r_i_glide_erotb>  (310) 
1.11754

>  <r_i_glide_esite>  (310) 
0

>  <r_i_glide_emodel>  (310) 
-35.3147

>  <r_i_glide_energy>  (310) 
-29.2075

>  <r_i_glide_einternal>  (310) 
1.14237

>  <r_i_glide_intrahb_reward>  (310) 
-0

>  <i_i_glide_confnum>  (310) 
3

>  <i_i_glide_posenum>  (310) 
37

>  <r_i_glide_eff_state_penalty>  (310) 
0

>  <ligand_id>  (310) 
86

>  <original_smiles>  (310) 
CC1(C(O)(Cn2cnnn2)c2ccsc2)CC1

>  <smiles>  (310) 
[H]OC(c1c([H])sc([H])c1[H])(C([H])([H])n1nnnc1[H])C1(C([H])([H])[H])C([H])([H])C1([H])[H]

$$$$
86:0:1
     RDKit          3D

 31 33  0  0  1  0  0  0  0  0999 V2000
    4.8025   -4.0620    0.8526 C   0  0  0  0  0  0  0  0  0  0  0  0
    5.0680   -2.7550    0.1181 C   0  0  0  0  0  0  0  0  0  0  0  0
    3.7975   -1.9256   -0.1950 C   0  0  1  0  0  0  0  0  0  0  0  0
    2.6254   -2.5837    0.2377 O   0  0  0  0  0  0  0  0  0  0  0  0
    3.7783   -0.5319    0.5344 C   0  0  0  0  0  0  0  0  0  0  0  0
    4.1076   -0.5219    1.9561 N   0  0  0  0  0  0  0  0  0  0  0  0
    3.2947   -0.4475    3.0221 C   0  0  0  0  0  0  0  0  0  0  0  0
    3.9927   -0.4944    4.1542 N   0  0  0  0  0  0  0  0  0  0  0  0
    5.3065   -0.5423    3.7259 N   0  0  0  0  0  0  0  0  0  0  0  0
    5.3742   -0.5302    2.4398 N   0  0  0  0  0  0  0  0  0  0  0  0
    3.6452   -1.8041   -1.7197 C   0  0  0  0  0  0  0  0  0  0  0  0
    3.0262   -2.7924   -2.5511 C   0  0  0  0  0  0  0  0  0  0  0  0
    3.0284   -2.4854   -3.8936 C   0  0  0  0  0  0  0  0  0  0  0  0
    3.8001   -0.9642   -4.2044 S   0  0  0  0  0  0  0  0  0  0  0  0
    4.0956   -0.7502   -2.4965 C   0  0  0  0  0  0  0  0  0  0  0  0
    6.3597   -2.0196    0.4225 C   0  0  0  0  0  0  0  0  0  0  0  0
    6.2391   -2.7526   -0.8728 C   0  0  0  0  0  0  0  0  0  0  0  0
    4.2825   -3.8972    1.7887 H   0  0  0  0  0  0  0  0  0  0  0  0
    5.7308   -4.5784    1.0807 H   0  0  0  0  0  0  0  0  0  0  0  0
    4.2068   -4.7261    0.2376 H   0  0  0  0  0  0  0  0  0  0  0  0
    1.8719   -2.0424   -0.0646 H   0  0  0  0  0  0  0  0  0  0  0  0
    4.4716    0.1570    0.0404 H   0  0  0  0  0  0  0  0  0  0  0  0
    2.7946   -0.0877    0.4302 H   0  0  0  0  0  0  0  0  0  0  0  0
    2.2239   -0.3434    2.9622 H   0  0  0  0  0  0  0  0  0  0  0  0
    2.6068   -3.7118   -2.1703 H   0  0  0  0  0  0  0  0  0  0  0  0
    2.6210   -3.0656   -4.7057 H   0  0  0  0  0  0  0  0  0  0  0  0
    4.6155    0.1351   -2.1756 H   0  0  0  0  0  0  0  0  0  0  0  0
    6.4185   -0.9243    0.3369 H   0  0  0  0  0  0  0  0  0  0  0  0
    6.9760   -2.4374    1.2226 H   0  0  0  0  0  0  0  0  0  0  0  0
    6.8629   -3.6484   -0.9943 H   0  0  0  0  0  0  0  0  0  0  0  0
    6.2079   -2.1076   -1.7541 H   0  0  0  0  0  0  0  0  0  0  0  0
  1  2  1  0
  1 18  1  0
  1 19  1  0
  1 20  1  0
  2 17  1  0
  2  3  1  0
  2 16  1  0
  3  4  1  1
  3  5  1  0
  3 11  1  0
  4 21  1  0
  5  6  1  0
  5 22  1  0
  5 23  1  0
  6 10  1  0
  6  7  1  0
  7  8  2  0
  7 24  1  0
  8  9  1  0
  9 10  2  0
 11 15  2  0
 11 12  1  0
 12 13  2  0
 12 25  1  0
 13 14  1  0
 13 26  1  0
 14 15  1  0
 15 27  1  0
 16 17  1  0
 16 28  1  0
 16 29  1  0
 17 30  1  0
 17 31  1  0
M  END
>  <i_m_ct_stereo_status>  (311) 
1

>  <s_m_source_file>  (311) 
/var/tmp/pbs.5076255.sched01/tmp7b2cfgi2/13234zcpj2x.sdf

>  <i_m_source_file_index>  (311) 
1

>  <i_lp_mmshare_version>  (311) 
48012

>  <i_f3d_flags>  (311) 
0

>  <s_epik_input>  (311) 
W2NIXTFzW2NIXVtjSF1jMVtDQEBdKFtPSF0pKEMyKFtDSDNdKVtDSDJdW0NIMl0yKVtDSDJdbjNbY0hdbm5uMw==

>  <s_epik_cmdline>  (311) 
J2VwaWtfcHl0aG9uJywgJy1waHQnLCAnMi4wJywgJy1waCcsICc3LjAnLCAnLXRuJywgJzgnLCAnLW1hJywgJzIwMCcsICctaW1hZScsICc8aW5maWxlLm1hZT4nLCAnLW9tYWUnLCAnPG91dGZpbGUubWFlPic=

>  <r_lp_tautomer_probability>  (311) 
1

>  <r_epik_Ionization_Penalty>  (311) 
2.1153e-07

>  <r_epik_Ionization_Penalty_Charging>  (311) 
0

>  <r_epik_Ionization_Penalty_Neutral>  (311) 
2.1153e-07

>  <r_epik_State_Penalty>  (311) 
-0

>  <r_epik_Charging_Adjusted_Penalty>  (311) 
0

>  <i_epik_Tot_Q>  (311) 
0

>  <i_epik_Tot_abs_Q>  (311) 
0

>  <s_lp_Force_Field>  (311) 
OPLS3e

>  <r_lp_Energy>  (311) 
4.87104

>  <b_lp_Chiralities_Consistent>  (311) 
1

>  <s_lp_Variant>  (311) 
86:0-1

>  <s_i_glide_gridfile>  (311) 
pfpi4k_grid

>  <i_i_glide_lignum>  (311) 
1

>  <i_i_glide_rotatable_bonds>  (311) 
5

>  <r_i_docking_score>  (311) 
-3.31018

>  <r_i_glide_ligand_efficiency>  (311) 
-0.194717

>  <r_i_glide_ligand_efficiency_sa>  (311) 
-0.500671

>  <r_i_glide_ligand_efficiency_ln>  (311) 
-0.863553

>  <r_i_glide_gscore>  (311) 
-3.31018

>  <r_i_glide_lipo>  (311) 
-0.389176

>  <r_i_glide_hbond>  (311) 
-0.16

>  <r_i_glide_metal>  (311) 
-0

>  <r_i_glide_rewards>  (311) 
-1.7912

>  <r_i_glide_evdw>  (311) 
-24.1069

>  <r_i_glide_ecoul>  (311) 
-5.88003

>  <r_i_glide_erotb>  (311) 
1.11754

>  <r_i_glide_esite>  (311) 
0

>  <r_i_glide_emodel>  (311) 
-32.488

>  <r_i_glide_energy>  (311) 
-29.9869

>  <r_i_glide_einternal>  (311) 
3.94281

>  <r_i_glide_intrahb_reward>  (311) 
-0

>  <i_i_glide_confnum>  (311) 
3

>  <i_i_glide_posenum>  (311) 
22

>  <r_i_glide_eff_state_penalty>  (311) 
0

>  <ligand_id>  (311) 
86

>  <original_smiles>  (311) 
CC1(C(O)(Cn2cnnn2)c2ccsc2)CC1

>  <smiles>  (311) 
[H]OC(c1c([H])sc([H])c1[H])(C([H])([H])n1nnnc1[H])C1(C([H])([H])[H])C([H])([H])C1([H])[H]

$$$$
86:0:2
     RDKit          3D

 31 33  0  0  1  0  0  0  0  0999 V2000
    5.6932   -3.7780    0.6785 C   0  0  0  0  0  0  0  0  0  0  0  0
    5.6096   -2.4859   -0.1278 C   0  0  0  0  0  0  0  0  0  0  0  0
    4.1359   -1.9691   -0.3049 C   0  0  1  0  0  0  0  0  0  0  0  0
    3.1840   -2.8941    0.2102 O   0  0  0  0  0  0  0  0  0  0  0  0
    3.8230   -0.6475    0.4767 C   0  0  0  0  0  0  0  0  0  0  0  0
    4.0793   -0.6894    1.9202 N   0  0  0  0  0  0  0  0  0  0  0  0
    3.2478   -0.7839    2.9470 C   0  0  0  0  0  0  0  0  0  0  0  0
    3.8738   -0.7895    4.1167 N   0  0  0  0  0  0  0  0  0  0  0  0
    5.2143   -0.6622    3.7464 N   0  0  0  0  0  0  0  0  0  0  0  0
    5.3364   -0.5920    2.4455 N   0  0  0  0  0  0  0  0  0  0  0  0
    3.7869   -1.8501   -1.7810 C   0  0  0  0  0  0  0  0  0  0  0  0
    3.1721   -2.8881   -2.5805 C   0  0  0  0  0  0  0  0  0  0  0  0
    3.0268   -2.5558   -3.8833 C   0  0  0  0  0  0  0  0  0  0  0  0
    3.6375   -0.9670   -4.2283 S   0  0  0  0  0  0  0  0  0  0  0  0
    4.0619   -0.7543   -2.5565 C   0  0  0  0  0  0  0  0  0  0  0  0
    6.7675   -1.5026    0.0330 C   0  0  0  0  0  0  0  0  0  0  0  0
    6.6729   -2.3160   -1.2243 C   0  0  0  0  0  0  0  0  0  0  0  0
    5.2722   -3.6720    1.6810 H   0  0  0  0  0  0  0  0  0  0  0  0
    6.7348   -4.0776    0.8021 H   0  0  0  0  0  0  0  0  0  0  0  0
    5.1875   -4.5977    0.1646 H   0  0  0  0  0  0  0  0  0  0  0  0
    3.3568   -3.0326    1.1248 H   0  0  0  0  0  0  0  0  0  0  0  0
    4.3770    0.1897    0.0592 H   0  0  0  0  0  0  0  0  0  0  0  0
    2.7702   -0.3854    0.3418 H   0  0  0  0  0  0  0  0  0  0  0  0
    2.1695   -0.8349    2.8481 H   0  0  0  0  0  0  0  0  0  0  0  0
    2.8892   -3.8501   -2.1662 H   0  0  0  0  0  0  0  0  0  0  0  0
    2.6063   -3.1568   -4.6938 H   0  0  0  0  0  0  0  0  0  0  0  0
    4.5398    0.1681   -2.2488 H   0  0  0  0  0  0  0  0  0  0  0  0
    6.5831   -0.4343   -0.0547 H   0  0  0  0  0  0  0  0  0  0  0  0
    7.5348   -1.7623    0.7631 H   0  0  0  0  0  0  0  0  0  0  0  0
    7.4219   -3.1038   -1.3600 H   0  0  0  0  0  0  0  0  0  0  0  0
    6.4613   -1.7544   -2.1333 H   0  0  0  0  0  0  0  0  0  0  0  0
  1  2  1  0
  1 18  1  0
  1 19  1  0
  1 20  1  0
  2 17  1  0
  2  3  1  0
  2 16  1  0
  3  4  1  1
  3  5  1  0
  3 11  1  0
  4 21  1  0
  5  6  1  0
  5 22  1  0
  5 23  1  0
  6 10  1  0
  6  7  1  0
  7  8  2  0
  7 24  1  0
  8  9  1  0
  9 10  2  0
 11 15  2  0
 11 12  1  0
 12 13  2  0
 12 25  1  0
 13 14  1  0
 13 26  1  0
 14 15  1  0
 15 27  1  0
 16 17  1  0
 16 28  1  0
 16 29  1  0
 17 30  1  0
 17 31  1  0
M  END
>  <i_m_ct_stereo_status>  (312) 
1

>  <s_m_source_file>  (312) 
/var/tmp/pbs.5076255.sched01/tmp7b2cfgi2/13234zcpj2x.sdf

>  <i_m_source_file_index>  (312) 
1

>  <i_lp_mmshare_version>  (312) 
48012

>  <i_f3d_flags>  (312) 
0

>  <s_epik_input>  (312) 
W2NIXTFzW2NIXVtjSF1jMVtDQEBdKFtPSF0pKEMyKFtDSDNdKVtDSDJdW0NIMl0yKVtDSDJdbjNbY0hdbm5uMw==

>  <s_epik_cmdline>  (312) 
J2VwaWtfcHl0aG9uJywgJy1waHQnLCAnMi4wJywgJy1waCcsICc3LjAnLCAnLXRuJywgJzgnLCAnLW1hJywgJzIwMCcsICctaW1hZScsICc8aW5maWxlLm1hZT4nLCAnLW9tYWUnLCAnPG91dGZpbGUubWFlPic=

>  <r_lp_tautomer_probability>  (312) 
1

>  <r_epik_Ionization_Penalty>  (312) 
2.1153e-07

>  <r_epik_Ionization_Penalty_Charging>  (312) 
0

>  <r_epik_Ionization_Penalty_Neutral>  (312) 
2.1153e-07

>  <r_epik_State_Penalty>  (312) 
-0

>  <r_epik_Charging_Adjusted_Penalty>  (312) 
0

>  <i_epik_Tot_Q>  (312) 
0

>  <i_epik_Tot_abs_Q>  (312) 
0

>  <s_lp_Force_Field>  (312) 
OPLS3e

>  <r_lp_Energy>  (312) 
4.87104

>  <b_lp_Chiralities_Consistent>  (312) 
1

>  <s_lp_Variant>  (312) 
86:0-1

>  <s_i_glide_gridfile>  (312) 
pfpi4k_grid

>  <i_i_glide_lignum>  (312) 
1

>  <i_i_glide_rotatable_bonds>  (312) 
5

>  <r_i_docking_score>  (312) 
-2.63134

>  <r_i_glide_ligand_efficiency>  (312) 
-0.154785

>  <r_i_glide_ligand_efficiency_sa>  (312) 
-0.397996

>  <r_i_glide_ligand_efficiency_ln>  (312) 
-0.686459

>  <r_i_glide_gscore>  (312) 
-2.63134

>  <r_i_glide_lipo>  (312) 
-0.341267

>  <r_i_glide_hbond>  (312) 
0

>  <r_i_glide_metal>  (312) 
-0

>  <r_i_glide_rewards>  (312) 
-1.76725

>  <r_i_glide_evdw>  (312) 
-25.9456

>  <r_i_glide_ecoul>  (312) 
-2.28027

>  <r_i_glide_erotb>  (312) 
1.11754

>  <r_i_glide_esite>  (312) 
-0.00104525

>  <r_i_glide_emodel>  (312) 
-31.4389

>  <r_i_glide_energy>  (312) 
-28.2259

>  <r_i_glide_einternal>  (312) 
3.05223

>  <r_i_glide_intrahb_reward>  (312) 
-0

>  <i_i_glide_confnum>  (312) 
4

>  <i_i_glide_posenum>  (312) 
7

>  <r_i_glide_eff_state_penalty>  (312) 
0

>  <ligand_id>  (312) 
86

>  <original_smiles>  (312) 
CC1(C(O)(Cn2cnnn2)c2ccsc2)CC1

>  <smiles>  (312) 
[H]OC(c1c([H])sc([H])c1[H])(C([H])([H])n1nnnc1[H])C1(C([H])([H])[H])C([H])([H])C1([H])[H]

$$$$
87:0:0
     RDKit          3D

 64 68  0  0  1  0  0  0  0  0999 V2000
    4.0889   -8.0085    6.3062 C   0  0  0  0  0  0  0  0  0  0  0  0
    4.0239   -8.1484    4.7678 C   0  0  2  0  0  0  0  0  0  0  0  0
    4.3281   -6.8474    4.0408 C   0  0  0  0  0  0  0  0  0  0  0  0
    5.4313   -6.7332    3.2875 C   0  0  0  0  0  0  0  0  0  0  0  0
    5.7750   -5.5420    2.4123 C   0  0  0  0  0  0  0  0  0  0  0  0
    4.7547   -4.3637    2.4776 C   0  0  2  0  0  0  0  0  0  0  0  0
    3.3151   -4.9209    2.7246 C   0  0  1  0  0  0  0  0  0  0  0  0
    2.8685   -5.6659    1.4237 C   0  0  1  0  0  0  0  0  0  0  0  0
    1.4744   -5.8891    1.3604 O   0  0  0  0  0  0  0  0  0  0  0  0
    3.2077   -4.8946    0.1634 C   0  0  0  0  0  0  0  0  0  0  0  0
    4.0427   -3.8471    0.0593 C   0  0  0  0  0  0  0  0  0  0  0  0
    4.0771   -2.9856   -1.2321 C   0  0  0  0  0  0  0  0  0  0  0  0
    5.1452   -3.5408   -2.1978 C   0  0  0  0  0  0  0  0  0  0  0  0
    2.7168   -2.9503   -1.9627 C   0  0  0  0  0  0  0  0  0  0  0  0
    4.3947   -1.5175   -0.8832 C   0  0  0  0  0  0  0  0  0  0  0  0
    4.9836   -0.7816   -1.6799 O   0  0  0  0  0  0  0  0  0  0  0  0
    3.9731   -0.9935    0.4909 C   0  0  0  0  0  0  0  0  0  0  0  0
    4.2686   -1.9662    1.6665 C   0  0  0  0  0  0  0  0  0  0  0  0
    4.8546   -3.3546    1.2702 C   0  0  1  0  0  0  0  0  0  0  0  0
    6.3639   -3.1645    0.9280 C   0  0  0  0  0  0  0  0  0  0  0  0
    3.2658   -5.7417    4.0832 C   0  0  2  0  0  0  0  0  0  0  0  0
    3.6545   -4.7785    5.2464 C   0  0  0  0  0  0  0  0  0  0  0  0
    1.8574   -6.3190    4.4841 C   0  0  1  0  0  0  0  0  0  0  0  0
    0.8148   -5.4326    4.1279 O   0  0  0  0  0  0  0  0  0  0  0  0
    1.5387   -7.7668    4.0582 C   0  0  2  0  0  0  0  0  0  0  0  0
    0.5791   -8.2912    4.9658 O   0  0  0  0  0  0  0  0  0  0  0  0
    0.8611   -9.6380    5.1123 C   0  0  1  0  0  0  0  0  0  0  0  0
    0.2214  -10.4253    4.1248 O   0  0  0  0  0  0  0  0  0  0  0  0
    2.2332   -9.7767    5.0747 O   0  0  0  0  0  0  0  0  0  0  0  0
    2.7103   -8.7504    4.2258 C   0  0  2  0  0  0  0  0  0  0  0  0
    5.0354   -7.5464    6.6020 H   0  0  0  0  0  0  0  0  0  0  0  0
    4.0398   -8.9884    6.7902 H   0  0  0  0  0  0  0  0  0  0  0  0
    3.2813   -7.4091    6.7279 H   0  0  0  0  0  0  0  0  0  0  0  0
    4.8161   -8.8554    4.5179 H   0  0  0  0  0  0  0  0  0  0  0  0
    6.1453   -7.5424    3.2414 H   0  0  0  0  0  0  0  0  0  0  0  0
    6.7705   -5.2001    2.7026 H   0  0  0  0  0  0  0  0  0  0  0  0
    5.8517   -5.9306    1.3950 H   0  0  0  0  0  0  0  0  0  0  0  0
    5.0487   -3.7654    3.3364 H   0  0  0  0  0  0  0  0  0  0  0  0
    2.6440   -4.0713    2.8398 H   0  0  0  0  0  0  0  0  0  0  0  0
    3.3649   -6.6343    1.3376 H   0  0  0  0  0  0  0  0  0  0  0  0
    1.3081   -6.7428    1.7248 H   0  0  0  0  0  0  0  0  0  0  0  0
    2.6340   -5.2020   -0.6982 H   0  0  0  0  0  0  0  0  0  0  0  0
    6.1516   -3.4424   -1.7886 H   0  0  0  0  0  0  0  0  0  0  0  0
    5.1368   -3.0230   -3.1595 H   0  0  0  0  0  0  0  0  0  0  0  0
    4.9805   -4.6030   -2.3911 H   0  0  0  0  0  0  0  0  0  0  0  0
    1.9315   -2.7020   -1.2545 H   0  0  0  0  0  0  0  0  0  0  0  0
    2.4392   -3.8823   -2.4402 H   0  0  0  0  0  0  0  0  0  0  0  0
    2.6978   -2.1883   -2.7436 H   0  0  0  0  0  0  0  0  0  0  0  0
    4.4646   -0.0357    0.6686 H   0  0  0  0  0  0  0  0  0  0  0  0
    2.9051   -0.7772    0.4461 H   0  0  0  0  0  0  0  0  0  0  0  0
    4.9242   -1.4747    2.3895 H   0  0  0  0  0  0  0  0  0  0  0  0
    3.3193   -2.1025    2.1860 H   0  0  0  0  0  0  0  0  0  0  0  0
    6.9466   -2.9837    1.8296 H   0  0  0  0  0  0  0  0  0  0  0  0
    6.5714   -2.3124    0.2831 H   0  0  0  0  0  0  0  0  0  0  0  0
    6.7817   -4.0396    0.4280 H   0  0  0  0  0  0  0  0  0  0  0  0
    3.1177   -3.8288    5.1859 H   0  0  0  0  0  0  0  0  0  0  0  0
    4.7227   -4.5555    5.2614 H   0  0  0  0  0  0  0  0  0  0  0  0
    3.4558   -5.1944    6.2351 H   0  0  0  0  0  0  0  0  0  0  0  0
    1.8014   -6.3647    5.5697 H   0  0  0  0  0  0  0  0  0  0  0  0
    0.9841   -4.6028    4.5425 H   0  0  0  0  0  0  0  0  0  0  0  0
    1.1636   -7.8365    3.0402 H   0  0  0  0  0  0  0  0  0  0  0  0
    0.5138   -9.9869    6.0876 H   0  0  0  0  0  0  0  0  0  0  0  0
   -0.6493  -10.6494    4.4661 H   0  0  0  0  0  0  0  0  0  0  0  0
    2.9085   -9.1883    3.2478 H   0  0  0  0  0  0  0  0  0  0  0  0
  1  2  1  0
  1 31  1  0
  1 32  1  0
  1 33  1  0
  2 30  1  0
  2  3  1  0
  2 34  1  6
  3 21  1  0
  3  4  2  0
  4  5  1  0
  4 35  1  0
  5  6  1  0
  5 36  1  0
  5 37  1  0
  6 19  1  0
  6  7  1  0
  6 38  1  1
  7  8  1  0
  7 21  1  0
  7 39  1  1
  8  9  1  0
  8 10  1  0
  8 40  1  6
  9 41  1  0
 10 11  2  0
 10 42  1  0
 11 19  1  0
 11 12  1  0
 12 13  1  0
 12 14  1  0
 12 15  1  0
 13 43  1  0
 13 44  1  0
 13 45  1  0
 14 46  1  0
 14 47  1  0
 14 48  1  0
 15 16  2  0
 15 17  1  0
 17 18  1  0
 17 49  1  0
 17 50  1  0
 18 19  1  0
 18 51  1  0
 18 52  1  0
 19 20  1  6
 20 53  1  0
 20 54  1  0
 20 55  1  0
 21 22  1  1
 21 23  1  0
 22 56  1  0
 22 57  1  0
 22 58  1  0
 23 24  1  0
 23 25  1  0
 23 59  1  1
 24 60  1  0
 25 30  1  0
 25 26  1  0
 25 61  1  6
 26 27  1  0
 27 28  1  0
 27 29  1  0
 27 62  1  1
 28 63  1  0
 29 30  1  0
 30 64  1  6
M  END
>  <i_m_ct_stereo_status>  (313) 
1

>  <s_m_source_file>  (313) 
/var/tmp/pbs.5076255.sched01/tmp7b2cfgi2/13234zcpj2x.sdf

>  <i_m_source_file_index>  (313) 
2

>  <i_lp_mmshare_version>  (313) 
48012

>  <i_f3d_flags>  (313) 
0

>  <s_epik_input>  (313) 
W09IXVtDQEBIXShPMSlPW0NAQEhdKFtDQEBIXTJbT0hdKVtDQEhdMVtDQEhdKFtDSDNdKUMoPVtDSF1bQ0gyXTMpW0NAQF0yKFtDSDNdKVtDQEBIXShbQ0BASF0zW0NAQF00NVtDSDNdKVtDQEBIXShbT0hdKVtDSF09QzRDKFtDSDNdKShbQ0gzXSlDKD1PKVtDSDJdW0NIMl01

>  <s_epik_cmdline>  (313) 
J2VwaWtfcHl0aG9uJywgJy1waHQnLCAnMi4wJywgJy1waCcsICc3LjAnLCAnLXRuJywgJzgnLCAnLW1hJywgJzIwMCcsICctaW1hZScsICc8aW5maWxlLm1hZT4nLCAnLW9tYWUnLCAnPG91dGZpbGUubWFlPic=

>  <r_lp_tautomer_probability>  (313) 
1

>  <r_epik_Ionization_Penalty>  (313) 
4.0756e-05

>  <r_epik_Ionization_Penalty_Charging>  (313) 
0

>  <r_epik_Ionization_Penalty_Neutral>  (313) 
4.0756e-05

>  <r_epik_State_Penalty>  (313) 
-0

>  <r_epik_Charging_Adjusted_Penalty>  (313) 
0

>  <i_epik_Tot_Q>  (313) 
0

>  <i_epik_Tot_abs_Q>  (313) 
0

>  <s_epik_Chemistry_Notes>  (313) 
This compound contains an acetal/aminal-like group ( X-CH(R)-Y where X, Y are N, S, or O) that may be acid/base labile, releasing an aldehyde.

>  <s_lp_Force_Field>  (313) 
OPLS3e

>  <r_lp_Energy>  (313) 
32.8377

>  <b_lp_Chiralities_Consistent>  (313) 
1

>  <s_lp_Variant>  (313) 
87:0-1

>  <s_i_glide_gridfile>  (313) 
pfpi4k_grid

>  <i_i_glide_lignum>  (313) 
2

>  <i_i_glide_rotatable_bonds>  (313) 
3

>  <r_i_docking_score>  (313) 
-3.29751

>  <r_i_glide_ligand_efficiency>  (313) 
-0.109917

>  <r_i_glide_ligand_efficiency_sa>  (313) 
-0.341538

>  <r_i_glide_ligand_efficiency_ln>  (313) 
-0.749231

>  <r_i_glide_gscore>  (313) 
-3.29751

>  <r_i_glide_lipo>  (313) 
-0.265462

>  <r_i_glide_hbond>  (313) 
0

>  <r_i_glide_metal>  (313) 
-0

>  <r_i_glide_rewards>  (313) 
-0.555524

>  <r_i_glide_evdw>  (313) 
-26.143

>  <r_i_glide_ecoul>  (313) 
-7.19396

>  <r_i_glide_erotb>  (313) 
0

>  <r_i_glide_esite>  (313) 
-0.0902819

>  <r_i_glide_emodel>  (313) 
-39.9416

>  <r_i_glide_energy>  (313) 
-33.337

>  <r_i_glide_einternal>  (313) 
2.96158

>  <r_i_glide_intrahb_reward>  (313) 
-0

>  <i_i_glide_confnum>  (313) 
1

>  <i_i_glide_posenum>  (313) 
20

>  <r_i_glide_eff_state_penalty>  (313) 
0

>  <ligand_id>  (313) 
87

>  <original_smiles>  (313) 
CC1C2=CCC3C(C(O)C=C4C(C)(C)C(=O)CCC43C)C2(C)C(O)C2OC(O)OC12

>  <smiles>  (313) 
[H]OC1([H])OC2([H])C([H])(O1)C([H])(C([H])([H])[H])C1=C([H])C([H])([H])C3([H])C([H])(C([H])(O[H])C([H])=C4C(C([H])([H])[H])(C([H])([H])[H])C(=O)C([H])([H])C([H])([H])C43C([H])([H])[H])C1(C([H])([H])[H])C2([H])O[H]

$$$$
87:0:1
     RDKit          3D

 64 68  0  0  1  0  0  0  0  0999 V2000
    5.5071   -8.2614    5.8599 C   0  0  0  0  0  0  0  0  0  0  0  0
    5.1655   -8.3554    4.3561 C   0  0  2  0  0  0  0  0  0  0  0  0
    5.3467   -7.0337    3.6238 C   0  0  0  0  0  0  0  0  0  0  0  0
    6.3046   -6.8996    2.6842 C   0  0  0  0  0  0  0  0  0  0  0  0
    6.4973   -5.6843    1.8013 C   0  0  0  0  0  0  0  0  0  0  0  0
    5.5171   -4.5046    2.0855 C   0  0  2  0  0  0  0  0  0  0  0  0
    4.1380   -5.0602    2.5699 C   0  0  1  0  0  0  0  0  0  0  0  0
    3.4591   -5.7642    1.3500 C   0  0  1  0  0  0  0  0  0  0  0  0
    2.0759   -5.9704    1.5439 O   0  0  0  0  0  0  0  0  0  0  0  0
    3.5764   -4.9575    0.0822 C   0  0  0  0  0  0  0  0  0  0  0  0
    4.3947   -3.9074   -0.1512 C   0  0  0  0  0  0  0  0  0  0  0  0
    4.2071   -3.0079   -1.3987 C   0  0  0  0  0  0  0  0  0  0  0  0
    5.0768   -3.5347   -2.5588 C   0  0  0  0  0  0  0  0  0  0  0  0
    2.7378   -2.9495   -1.8681 C   0  0  0  0  0  0  0  0  0  0  0  0
    4.5893   -1.5471   -1.0696 C   0  0  0  0  0  0  0  0  0  0  0  0
    5.0232   -0.7847   -1.9310 O   0  0  0  0  0  0  0  0  0  0  0  0
    4.4226   -1.0692    0.3749 C   0  0  0  0  0  0  0  0  0  0  0  0
    4.9182   -2.0767    1.4475 C   0  0  0  0  0  0  0  0  0  0  0  0
    5.4140   -3.4561    0.9138 C   0  0  1  0  0  0  0  0  0  0  0  0
    6.8429   -3.2613    0.3168 C   0  0  0  0  0  0  0  0  0  0  0  0
    4.3231   -5.9195    3.8918 C   0  0  2  0  0  0  0  0  0  0  0  0
    4.9263   -4.9960    4.9930 C   0  0  0  0  0  0  0  0  0  0  0  0
    3.0014   -6.5046    4.5192 C   0  0  1  0  0  0  0  0  0  0  0  0
    1.9238   -5.5974    4.4012 O   0  0  0  0  0  0  0  0  0  0  0  0
    2.5965   -7.9373    4.1050 C   0  0  2  0  0  0  0  0  0  0  0  0
    1.8005   -8.4957    5.1423 O   0  0  0  0  0  0  0  0  0  0  0  0
    2.1098   -9.8440    5.2168 C   0  0  1  0  0  0  0  0  0  0  0  0
    1.3107  -10.6228    4.3556 O   0  0  0  0  0  0  0  0  0  0  0  0
    3.4552   -9.9779    4.9359 O   0  0  0  0  0  0  0  0  0  0  0  0
    3.7710   -8.9318    4.0346 C   0  0  2  0  0  0  0  0  0  0  0  0
    6.4942   -7.8133    5.9942 H   0  0  0  0  0  0  0  0  0  0  0  0
    5.5337   -9.2535    6.3139 H   0  0  0  0  0  0  0  0  0  0  0  0
    4.7938   -7.6727    6.4346 H   0  0  0  0  0  0  0  0  0  0  0  0
    5.8912   -9.0570    3.9449 H   0  0  0  0  0  0  0  0  0  0  0  0
    6.9871   -7.7117    2.4915 H   0  0  0  0  0  0  0  0  0  0  0  0
    7.5306   -5.3560    1.9197 H   0  0  0  0  0  0  0  0  0  0  0  0
    6.3864   -6.0398    0.7762 H   0  0  0  0  0  0  0  0  0  0  0  0
    5.9613   -3.9325    2.8953 H   0  0  0  0  0  0  0  0  0  0  0  0
    3.5068   -4.2128    2.8271 H   0  0  0  0  0  0  0  0  0  0  0  0
    3.9222   -6.7341    1.1578 H   0  0  0  0  0  0  0  0  0  0  0  0
    1.8938   -6.8875    1.4061 H   0  0  0  0  0  0  0  0  0  0  0  0
    2.8496   -5.2257   -0.6724 H   0  0  0  0  0  0  0  0  0  0  0  0
    6.1398   -3.4524   -2.3374 H   0  0  0  0  0  0  0  0  0  0  0  0
    4.8952   -2.9887   -3.4856 H   0  0  0  0  0  0  0  0  0  0  0  0
    4.8683   -4.5884   -2.7530 H   0  0  0  0  0  0  0  0  0  0  0  0
    2.1035   -2.7125   -1.0163 H   0  0  0  0  0  0  0  0  0  0  0  0
    2.3706   -3.8703   -2.3142 H   0  0  0  0  0  0  0  0  0  0  0  0
    2.5819   -2.1719   -2.6170 H   0  0  0  0  0  0  0  0  0  0  0  0
    4.9506   -0.1214    0.4851 H   0  0  0  0  0  0  0  0  0  0  0  0
    3.3659   -0.8462    0.5261 H   0  0  0  0  0  0  0  0  0  0  0  0
    5.6972   -1.6116    2.0545 H   0  0  0  0  0  0  0  0  0  0  0  0
    4.0779   -2.2278    2.1244 H   0  0  0  0  0  0  0  0  0  0  0  0
    7.5778   -3.1125    1.1068 H   0  0  0  0  0  0  0  0  0  0  0  0
    6.9362   -2.3946   -0.3324 H   0  0  0  0  0  0  0  0  0  0  0  0
    7.1521   -4.1222   -0.2763 H   0  0  0  0  0  0  0  0  0  0  0  0
    4.3956   -4.0459    5.0550 H   0  0  0  0  0  0  0  0  0  0  0  0
    5.9808   -4.7795    4.8213 H   0  0  0  0  0  0  0  0  0  0  0  0
    4.9004   -5.4420    5.9862 H   0  0  0  0  0  0  0  0  0  0  0  0
    3.1427   -6.5892    5.5941 H   0  0  0  0  0  0  0  0  0  0  0  0
    2.1540   -4.8022    4.8561 H   0  0  0  0  0  0  0  0  0  0  0  0
    2.0452   -7.9669    3.1688 H   0  0  0  0  0  0  0  0  0  0  0  0
    1.9221  -10.1916    6.2367 H   0  0  0  0  0  0  0  0  0  0  0  0
    1.0690  -11.4000    4.8405 H   0  0  0  0  0  0  0  0  0  0  0  0
    3.7855   -9.3425    3.0250 H   0  0  0  0  0  0  0  0  0  0  0  0
  1  2  1  0
  1 31  1  0
  1 32  1  0
  1 33  1  0
  2 30  1  0
  2  3  1  0
  2 34  1  6
  3 21  1  0
  3  4  2  0
  4  5  1  0
  4 35  1  0
  5  6  1  0
  5 36  1  0
  5 37  1  0
  6 19  1  0
  6  7  1  0
  6 38  1  1
  7  8  1  0
  7 21  1  0
  7 39  1  1
  8  9  1  0
  8 10  1  0
  8 40  1  6
  9 41  1  0
 10 11  2  0
 10 42  1  0
 11 19  1  0
 11 12  1  0
 12 13  1  0
 12 14  1  0
 12 15  1  0
 13 43  1  0
 13 44  1  0
 13 45  1  0
 14 46  1  0
 14 47  1  0
 14 48  1  0
 15 16  2  0
 15 17  1  0
 17 18  1  0
 17 49  1  0
 17 50  1  0
 18 19  1  0
 18 51  1  0
 18 52  1  0
 19 20  1  6
 20 53  1  0
 20 54  1  0
 20 55  1  0
 21 22  1  1
 21 23  1  0
 22 56  1  0
 22 57  1  0
 22 58  1  0
 23 24  1  0
 23 25  1  0
 23 59  1  1
 24 60  1  0
 25 30  1  0
 25 26  1  0
 25 61  1  6
 26 27  1  0
 27 28  1  0
 27 29  1  0
 27 62  1  1
 28 63  1  0
 29 30  1  0
 30 64  1  6
M  END
>  <i_m_ct_stereo_status>  (314) 
1

>  <s_m_source_file>  (314) 
/var/tmp/pbs.5076255.sched01/tmp7b2cfgi2/13234zcpj2x.sdf

>  <i_m_source_file_index>  (314) 
2

>  <i_lp_mmshare_version>  (314) 
48012

>  <i_f3d_flags>  (314) 
0

>  <s_epik_input>  (314) 
W09IXVtDQEBIXShPMSlPW0NAQEhdKFtDQEBIXTJbT0hdKVtDQEhdMVtDQEhdKFtDSDNdKUMoPVtDSF1bQ0gyXTMpW0NAQF0yKFtDSDNdKVtDQEBIXShbQ0BASF0zW0NAQF00NVtDSDNdKVtDQEBIXShbT0hdKVtDSF09QzRDKFtDSDNdKShbQ0gzXSlDKD1PKVtDSDJdW0NIMl01

>  <s_epik_cmdline>  (314) 
J2VwaWtfcHl0aG9uJywgJy1waHQnLCAnMi4wJywgJy1waCcsICc3LjAnLCAnLXRuJywgJzgnLCAnLW1hJywgJzIwMCcsICctaW1hZScsICc8aW5maWxlLm1hZT4nLCAnLW9tYWUnLCAnPG91dGZpbGUubWFlPic=

>  <r_lp_tautomer_probability>  (314) 
1

>  <r_epik_Ionization_Penalty>  (314) 
4.0756e-05

>  <r_epik_Ionization_Penalty_Charging>  (314) 
0

>  <r_epik_Ionization_Penalty_Neutral>  (314) 
4.0756e-05

>  <r_epik_State_Penalty>  (314) 
-0

>  <r_epik_Charging_Adjusted_Penalty>  (314) 
0

>  <i_epik_Tot_Q>  (314) 
0

>  <i_epik_Tot_abs_Q>  (314) 
0

>  <s_epik_Chemistry_Notes>  (314) 
This compound contains an acetal/aminal-like group ( X-CH(R)-Y where X, Y are N, S, or O) that may be acid/base labile, releasing an aldehyde.

>  <s_lp_Force_Field>  (314) 
OPLS3e

>  <r_lp_Energy>  (314) 
32.8377

>  <b_lp_Chiralities_Consistent>  (314) 
1

>  <s_lp_Variant>  (314) 
87:0-1

>  <s_i_glide_gridfile>  (314) 
pfpi4k_grid

>  <i_i_glide_lignum>  (314) 
2

>  <i_i_glide_rotatable_bonds>  (314) 
3

>  <r_i_docking_score>  (314) 
-2.93268

>  <r_i_glide_ligand_efficiency>  (314) 
-0.0977559

>  <r_i_glide_ligand_efficiency_sa>  (314) 
-0.30375

>  <r_i_glide_ligand_efficiency_ln>  (314) 
-0.666336

>  <r_i_glide_gscore>  (314) 
-2.93268

>  <r_i_glide_lipo>  (314) 
-0.506275

>  <r_i_glide_hbond>  (314) 
0

>  <r_i_glide_metal>  (314) 
-0

>  <r_i_glide_rewards>  (314) 
-0.555524

>  <r_i_glide_evdw>  (314) 
-28.1366

>  <r_i_glide_ecoul>  (314) 
-2.57547

>  <r_i_glide_erotb>  (314) 
0

>  <r_i_glide_esite>  (314) 
-0.0777253

>  <r_i_glide_emodel>  (314) 
-36.2387

>  <r_i_glide_energy>  (314) 
-30.7121

>  <r_i_glide_einternal>  (314) 
3.18972

>  <r_i_glide_intrahb_reward>  (314) 
-0

>  <i_i_glide_confnum>  (314) 
1

>  <i_i_glide_posenum>  (314) 
13

>  <r_i_glide_eff_state_penalty>  (314) 
0

>  <ligand_id>  (314) 
87

>  <original_smiles>  (314) 
CC1C2=CCC3C(C(O)C=C4C(C)(C)C(=O)CCC43C)C2(C)C(O)C2OC(O)OC12

>  <smiles>  (314) 
[H]OC1([H])OC2([H])C([H])(O1)C([H])(C([H])([H])[H])C1=C([H])C([H])([H])C3([H])C([H])(C([H])(O[H])C([H])=C4C(C([H])([H])[H])(C([H])([H])[H])C(=O)C([H])([H])C([H])([H])C43C([H])([H])[H])C1(C([H])([H])[H])C2([H])O[H]

$$$$
88:0:0
     RDKit          3D

 76 83  0  0  1  0  0  0  0  0999 V2000
    4.7190   -1.6607    2.9425 C   0  0  0  0  0  0  0  0  0  0  0  0
    4.7008   -2.8935    3.4876 C   0  0  0  0  0  0  0  0  0  0  0  0
    4.7988   -4.1176    2.6353 C   0  0  1  0  0  0  0  0  0  0  0  0
    6.1080   -4.2404    2.1680 O   0  0  0  0  0  0  0  0  0  0  0  0
    6.2731   -5.1604    1.1299 C   0  0  2  0  0  0  0  0  0  0  0  0
    7.7843   -5.3036    0.8483 C   0  0  0  0  0  0  0  0  0  0  0  0
    8.3263   -4.1640    0.0067 C   0  0  2  0  0  0  0  0  0  0  0  0
    8.0361   -2.8340    0.4562 O   0  0  0  0  0  0  0  0  0  0  0  0
    7.3701   -3.2800   -0.7335 C   0  0  2  0  0  0  0  0  0  0  0  0
    5.8770   -3.5124   -0.6021 C   0  0  1  0  0  0  0  0  0  0  0  0
    5.2017   -3.3667   -1.9768 C   0  0  0  0  0  0  0  0  0  0  0  0
    5.6067   -4.8086   -0.0592 O   0  0  0  0  0  0  0  0  0  0  0  0
    4.3656   -5.2345    3.3282 O   0  0  0  0  0  0  0  0  0  0  0  0
    4.3623   -5.2511    4.7674 C   0  0  2  0  0  0  0  0  0  0  0  0
    3.0126   -4.9264    5.2839 C   0  0  2  0  0  0  0  0  0  0  0  0
    3.2760   -3.5055    5.4624 O   0  0  0  0  0  0  0  0  0  0  0  0
    4.6181   -3.1347    4.9910 C   0  0  1  0  0  0  0  0  0  0  0  0
    5.3757   -4.3453    5.6105 C   0  0  2  0  0  0  0  0  0  0  0  0
    6.5820   -5.2065    5.2672 C   0  0  0  0  0  0  0  0  0  0  0  0
    6.5297   -6.3760    6.1502 O   0  0  0  0  0  0  0  0  0  0  0  0
    5.3919   -7.0387    6.7755 C   0  0  1  0  0  0  0  0  0  0  0  0
    5.8710   -7.8109    7.8488 O   0  0  0  0  0  0  0  0  0  0  0  0
    4.1190   -6.1603    7.3284 C   0  0  1  0  0  0  0  0  0  0  0  0
    4.3848   -4.7982    7.9159 C   0  0  0  0  0  0  0  0  0  0  0  0
    3.4217   -4.1653    8.6253 C   0  0  0  0  0  0  0  0  0  0  0  0
    2.0375   -4.5768    8.5206 C   0  0  0  0  0  0  0  0  0  0  0  0
    1.1195   -3.8930    9.2351 C   0  0  0  0  0  0  0  0  0  0  0  0
   -0.3307   -4.0636    9.0286 C   0  0  0  0  0  0  0  0  0  0  0  0
   -1.1539   -3.4654    9.7183 O   0  0  0  0  0  0  0  0  0  0  0  0
   -0.8277   -4.9881    7.9060 C   0  0  1  0  0  0  0  0  0  0  0  0
   -2.1557   -4.4854    7.2941 C   0  0  0  0  0  0  0  0  0  0  0  0
    0.2612   -5.2237    6.8329 C   0  0  0  0  0  0  0  0  0  0  0  0
    1.6334   -5.5993    7.4574 C   0  0  1  0  0  0  0  0  0  0  0  0
    2.8005   -5.9871    6.4577 C   0  0  1  0  0  0  0  0  0  0  0  0
    2.3789   -7.3737    5.8794 C   0  0  0  0  0  0  0  0  0  0  0  0
    5.5068   -4.0502    7.2425 C   0  0  0  0  0  0  0  0  0  0  0  0
    6.8469   -4.4038    7.9900 C   0  0  0  0  0  0  0  0  0  0  0  0
    5.4750   -2.5209    7.6121 C   0  0  0  0  0  0  0  0  0  0  0  0
    4.6669   -0.7724    3.5534 H   0  0  0  0  0  0  0  0  0  0  0  0
    4.7923   -1.5273    1.8739 H   0  0  0  0  0  0  0  0  0  0  0  0
    4.1323   -3.9762    1.7871 H   0  0  0  0  0  0  0  0  0  0  0  0
    5.8844   -6.1198    1.4595 H   0  0  0  0  0  0  0  0  0  0  0  0
    8.3479   -5.3966    1.7794 H   0  0  0  0  0  0  0  0  0  0  0  0
    7.9174   -6.2152    0.2653 H   0  0  0  0  0  0  0  0  0  0  0  0
    9.3161   -4.2872   -0.4300 H   0  0  0  0  0  0  0  0  0  0  0  0
    7.7334   -2.8302   -1.6628 H   0  0  0  0  0  0  0  0  0  0  0  0
    5.4720   -2.7584    0.0727 H   0  0  0  0  0  0  0  0  0  0  0  0
    5.4345   -2.3868   -2.3949 H   0  0  0  0  0  0  0  0  0  0  0  0
    4.1143   -3.4492   -1.9172 H   0  0  0  0  0  0  0  0  0  0  0  0
    5.5665   -4.1183   -2.6844 H   0  0  0  0  0  0  0  0  0  0  0  0
    4.5233   -6.3124    4.7617 H   0  0  0  0  0  0  0  0  0  0  0  0
    2.2436   -5.0490    4.5213 H   0  0  0  0  0  0  0  0  0  0  0  0
    4.9111   -2.1580    5.3563 H   0  0  0  0  0  0  0  0  0  0  0  0
    6.6418   -5.5325    4.2313 H   0  0  0  0  0  0  0  0  0  0  0  0
    7.5117   -4.6653    5.4281 H   0  0  0  0  0  0  0  0  0  0  0  0
    5.0729   -7.8054    6.0702 H   0  0  0  0  0  0  0  0  0  0  0  0
    6.2074   -7.2119    8.4983 H   0  0  0  0  0  0  0  0  0  0  0  0
    3.7777   -6.7565    8.1763 H   0  0  0  0  0  0  0  0  0  0  0  0
    3.5644   -3.1641    8.9879 H   0  0  0  0  0  0  0  0  0  0  0  0
    1.4220   -3.1230    9.9289 H   0  0  0  0  0  0  0  0  0  0  0  0
   -1.0395   -5.9415    8.3875 H   0  0  0  0  0  0  0  0  0  0  0  0
   -2.9587   -4.4860    8.0352 H   0  0  0  0  0  0  0  0  0  0  0  0
   -2.4874   -5.1286    6.4816 H   0  0  0  0  0  0  0  0  0  0  0  0
   -2.0685   -3.4727    6.8983 H   0  0  0  0  0  0  0  0  0  0  0  0
   -0.0966   -6.0156    6.1760 H   0  0  0  0  0  0  0  0  0  0  0  0
    0.3648   -4.3324    6.2137 H   0  0  0  0  0  0  0  0  0  0  0  0
    1.4345   -6.4922    8.0549 H   0  0  0  0  0  0  0  0  0  0  0  0
    2.2678   -8.1136    6.6742 H   0  0  0  0  0  0  0  0  0  0  0  0
    3.0820   -7.8010    5.1680 H   0  0  0  0  0  0  0  0  0  0  0  0
    1.4288   -7.3304    5.3498 H   0  0  0  0  0  0  0  0  0  0  0  0
    7.7126   -3.9405    7.5159 H   0  0  0  0  0  0  0  0  0  0  0  0
    7.0677   -5.4560    8.1242 H   0  0  0  0  0  0  0  0  0  0  0  0
    6.8392   -4.0509    9.0227 H   0  0  0  0  0  0  0  0  0  0  0  0
    6.2690   -1.9738    7.1001 H   0  0  0  0  0  0  0  0  0  0  0  0
    5.6277   -2.3381    8.6791 H   0  0  0  0  0  0  0  0  0  0  0  0
    4.5250   -2.0310    7.3880 H   0  0  0  0  0  0  0  0  0  0  0  0
  1  2  2  0
  1 39  1  0
  1 40  1  0
  2 17  1  0
  2  3  1  0
  3  4  1  0
  3 13  1  0
  3 41  1  6
  4  5  1  0
  5 12  1  0
  5  6  1  0
  5 42  1  1
  6  7  1  0
  6 43  1  0
  6 44  1  0
  7  9  1  0
  7  8  1  0
  7 45  1  6
  8  9  1  0
  9 10  1  0
  9 46  1  6
 10 11  1  0
 10 12  1  0
 10 47  1  1
 11 48  1  0
 11 49  1  0
 11 50  1  0
 13 14  1  0
 14 18  1  0
 14 15  1  0
 14 51  1  6
 15 34  1  0
 15 16  1  0
 15 52  1  6
 16 17  1  0
 17 18  1  0
 17 53  1  1
 18 36  1  0
 18 19  1  6
 19 20  1  0
 19 54  1  0
 19 55  1  0
 20 21  1  0
 21 22  1  0
 21 23  1  0
 21 56  1  6
 22 57  1  0
 23 34  1  0
 23 24  1  0
 23 58  1  1
 24 25  2  0
 24 36  1  0
 25 26  1  0
 25 59  1  0
 26 33  1  0
 26 27  2  0
 27 28  1  0
 27 60  1  0
 28 29  2  0
 28 30  1  0
 30 31  1  0
 30 32  1  0
 30 61  1  1
 31 62  1  0
 31 63  1  0
 31 64  1  0
 32 33  1  0
 32 65  1  0
 32 66  1  0
 33 34  1  0
 33 67  1  1
 34 35  1  6
 35 68  1  0
 35 69  1  0
 35 70  1  0
 36 37  1  0
 36 38  1  0
 37 71  1  0
 37 72  1  0
 37 73  1  0
 38 74  1  0
 38 75  1  0
 38 76  1  0
M  END
>  <i_m_ct_stereo_status>  (315) 
1

>  <s_m_source_file>  (315) 
/var/tmp/pbs.5076255.sched01/tmp7b2cfgi2/13234zcpj2x.sdf

>  <i_m_source_file_index>  (315) 
3

>  <i_lp_mmshare_version>  (315) 
48012

>  <i_f3d_flags>  (315) 
0

>  <s_epik_input>  (315) 
W0NAQEhdMTJbQ0BIXShPMilbQ0BASF0oW0NIM10pT1tDQEBIXShbQ0gyXTEpT1tDQEBIXShPMylDKD1bQ0gyXSlbQ0BIXTRPW0NAQEhdKFtDQEBIXTNbQ0BdNDU2KVtDQEBdNyhbQ0gzXSlbQ0BASF0oW0NASF0oW09IXSlPW0NIMl01KUMoQzYoW0NIM10pW0NIM10pPVtDSF1DPThbQ0BIXTdbQ0gyXVtDQEhdKFtDSDNdKUMoPU8pW0NIXTg=

>  <s_epik_cmdline>  (315) 
J2VwaWtfcHl0aG9uJywgJy1waHQnLCAnMi4wJywgJy1waCcsICc3LjAnLCAnLXRuJywgJzgnLCAnLW1hJywgJzIwMCcsICctaW1hZScsICc8aW5maWxlLm1hZT4nLCAnLW9tYWUnLCAnPG91dGZpbGUubWFlPic=

>  <r_lp_tautomer_probability>  (315) 
1

>  <r_epik_Ionization_Penalty>  (315) 
5.82133e-07

>  <r_epik_Ionization_Penalty_Charging>  (315) 
0

>  <r_epik_Ionization_Penalty_Neutral>  (315) 
5.82133e-07

>  <r_epik_State_Penalty>  (315) 
-0

>  <r_epik_Charging_Adjusted_Penalty>  (315) 
0

>  <i_epik_Tot_Q>  (315) 
0

>  <i_epik_Tot_abs_Q>  (315) 
0

>  <s_epik_Chemistry_Notes>  (315) 
This compound contains an acetal/aminal-like group ( X-CH(R)-Y where X, Y are N, S, or O) that may be acid/base labile, releasing an aldehyde.

>  <s_lp_Force_Field>  (315) 
OPLS3e

>  <r_lp_Energy>  (315) 
181.838

>  <b_lp_Chiralities_Consistent>  (315) 
1

>  <s_lp_Variant>  (315) 
88:0-1

>  <s_i_glide_gridfile>  (315) 
pfpi4k_grid

>  <i_i_glide_lignum>  (315) 
3

>  <i_i_glide_rotatable_bonds>  (315) 
3

>  <r_i_docking_score>  (315) 
-2.34123

>  <r_i_glide_ligand_efficiency>  (315) 
-0.0616113

>  <r_i_glide_ligand_efficiency_sa>  (315) 
-0.207136

>  <r_i_glide_ligand_efficiency_ln>  (315) 
-0.504838

>  <r_i_glide_gscore>  (315) 
-2.34123

>  <r_i_glide_lipo>  (315) 
-0.753175

>  <r_i_glide_hbond>  (315) 
-0.139623

>  <r_i_glide_metal>  (315) 
-0

>  <r_i_glide_rewards>  (315) 
-0.156706

>  <r_i_glide_evdw>  (315) 
-25.7797

>  <r_i_glide_ecoul>  (315) 
-0.829897

>  <r_i_glide_erotb>  (315) 
0.14849

>  <r_i_glide_esite>  (315) 
-0.0267435

>  <r_i_glide_emodel>  (315) 
-31.4197

>  <r_i_glide_energy>  (315) 
-26.6096

>  <r_i_glide_einternal>  (315) 
0.159773

>  <r_i_glide_intrahb_reward>  (315) 
-0

>  <i_i_glide_confnum>  (315) 
6

>  <i_i_glide_posenum>  (315) 
21

>  <r_i_glide_eff_state_penalty>  (315) 
0

>  <ligand_id>  (315) 
88

>  <original_smiles>  (315) 
C=C1C(OC2CC3OC3C(C)O2)OC2C3OC1C21COC(O)C2C(=CC4=CC(=O)C(C)CC4C32C)C1(C)C

>  <smiles>  (315) 
[H]OC1([H])OC([H])([H])C23C4([H])OC([H])(C2([H])OC([H])(OC2([H])OC([H])(C([H])([H])[H])C5([H])OC5([H])C2([H])[H])C4=C([H])[H])C2(C([H])([H])[H])C1([H])C(=C([H])C1=C([H])C(=O)C([H])(C([H])([H])[H])C([H])([H])C12[H])C3(C([H])([H])[H])C([H])([H])[H]

$$$$
88:0:1
     RDKit          3D

 76 83  0  0  1  0  0  0  0  0999 V2000
    4.4219   -0.7849    0.3498 C   0  0  0  0  0  0  0  0  0  0  0  0
    3.7353   -1.2974    1.3910 C   0  0  0  0  0  0  0  0  0  0  0  0
    2.9819   -2.5886    1.2907 C   0  0  1  0  0  0  0  0  0  0  0  0
    3.8582   -3.6819    1.3866 O   0  0  0  0  0  0  0  0  0  0  0  0
    4.1099   -4.3714    0.1884 C   0  0  2  0  0  0  0  0  0  0  0  0
    4.6800   -5.7667    0.5179 C   0  0  0  0  0  0  0  0  0  0  0  0
    6.1604   -5.7293    0.8531 C   0  0  2  0  0  0  0  0  0  0  0  0
    6.5670   -4.7653    1.8243 O   0  0  0  0  0  0  0  0  0  0  0  0
    6.9655   -4.5344    0.4695 C   0  0  2  0  0  0  0  0  0  0  0  0
    6.2897   -3.3543   -0.1775 C   0  0  1  0  0  0  0  0  0  0  0  0
    7.1416   -2.7744   -1.3154 C   0  0  0  0  0  0  0  0  0  0  0  0
    4.9906   -3.6994   -0.6820 O   0  0  0  0  0  0  0  0  0  0  0  0
    1.9842   -2.6458    2.2547 O   0  0  0  0  0  0  0  0  0  0  0  0
    2.0978   -1.8734    3.4663 C   0  0  2  0  0  0  0  0  0  0  0  0
    1.3054   -0.6290    3.3436 C   0  0  2  0  0  0  0  0  0  0  0  0
    2.4202    0.1996    2.9103 O   0  0  0  0  0  0  0  0  0  0  0  0
    3.6496   -0.5885    2.7334 C   0  0  1  0  0  0  0  0  0  0  0  0
    3.5236   -1.4254    4.0380 C   0  0  2  0  0  0  0  0  0  0  0  0
    3.8831   -2.8248    4.5143 C   0  0  0  0  0  0  0  0  0  0  0  0
    3.1789   -3.0211    5.7906 O   0  0  0  0  0  0  0  0  0  0  0  0
    1.9320   -2.4410    6.2838 C   0  0  1  0  0  0  0  0  0  0  0  0
    1.8941   -2.5881    7.6827 O   0  0  0  0  0  0  0  0  0  0  0  0
    1.5552   -0.8788    5.9478 C   0  0  1  0  0  0  0  0  0  0  0  0
    2.6692    0.1297    5.8694 C   0  0  0  0  0  0  0  0  0  0  0  0
    2.3895    1.4550    5.8711 C   0  0  0  0  0  0  0  0  0  0  0  0
    1.0539    1.9207    5.5645 C   0  0  0  0  0  0  0  0  0  0  0  0
    0.8436    3.2541    5.5566 C   0  0  0  0  0  0  0  0  0  0  0  0
   -0.4019    3.8538    5.0393 C   0  0  0  0  0  0  0  0  0  0  0  0
   -0.6124    5.0634    5.1192 O   0  0  0  0  0  0  0  0  0  0  0  0
   -1.4686    2.9457    4.4069 C   0  0  1  0  0  0  0  0  0  0  0  0
   -2.2236    3.6608    3.2646 C   0  0  0  0  0  0  0  0  0  0  0  0
   -0.8714    1.5931    3.9506 C   0  0  0  0  0  0  0  0  0  0  0  0
    0.0052    0.9346    5.0518 C   0  0  1  0  0  0  0  0  0  0  0  0
    0.5710   -0.5138    4.7540 C   0  0  1  0  0  0  0  0  0  0  0  0
   -0.6757   -1.4459    4.8161 C   0  0  0  0  0  0  0  0  0  0  0  0
    3.9488   -0.4172    5.2927 C   0  0  0  0  0  0  0  0  0  0  0  0
    4.8196   -0.9745    6.4780 C   0  0  0  0  0  0  0  0  0  0  0  0
    4.9194    0.7420    4.8675 C   0  0  0  0  0  0  0  0  0  0  0  0
    4.9958    0.1286    0.4334 H   0  0  0  0  0  0  0  0  0  0  0  0
    4.4294   -1.2979   -0.6002 H   0  0  0  0  0  0  0  0  0  0  0  0
    2.4577   -2.5831    0.3382 H   0  0  0  0  0  0  0  0  0  0  0  0
    3.1826   -4.5299   -0.3528 H   0  0  0  0  0  0  0  0  0  0  0  0
    4.1171   -6.2281    1.3322 H   0  0  0  0  0  0  0  0  0  0  0  0
    4.5774   -6.3711   -0.3843 H   0  0  0  0  0  0  0  0  0  0  0  0
    6.6943   -6.6829    0.9094 H   0  0  0  0  0  0  0  0  0  0  0  0
    8.0387   -4.6649    0.2882 H   0  0  0  0  0  0  0  0  0  0  0  0
    6.1938   -2.6158    0.6098 H   0  0  0  0  0  0  0  0  0  0  0  0
    8.1228   -2.4992   -0.9225 H   0  0  0  0  0  0  0  0  0  0  0  0
    6.6922   -1.8795   -1.7561 H   0  0  0  0  0  0  0  0  0  0  0  0
    7.3093   -3.4943   -2.1264 H   0  0  0  0  0  0  0  0  0  0  0  0
    1.5535   -2.6242    4.0081 H   0  0  0  0  0  0  0  0  0  0  0  0
    0.5739   -0.6920    2.5370 H   0  0  0  0  0  0  0  0  0  0  0  0
    4.5241    0.0461    2.6614 H   0  0  0  0  0  0  0  0  0  0  0  0
    3.6262   -3.6327    3.8345 H   0  0  0  0  0  0  0  0  0  0  0  0
    4.9557   -2.9304    4.6587 H   0  0  0  0  0  0  0  0  0  0  0  0
    1.1450   -3.1246    5.9655 H   0  0  0  0  0  0  0  0  0  0  0  0
    2.6143   -2.0898    8.0353 H   0  0  0  0  0  0  0  0  0  0  0  0
    0.9905   -0.5804    6.8303 H   0  0  0  0  0  0  0  0  0  0  0  0
    3.1573    2.1895    5.7365 H   0  0  0  0  0  0  0  0  0  0  0  0
    1.6205    3.9419    5.8543 H   0  0  0  0  0  0  0  0  0  0  0  0
   -2.1972    2.7510    5.1961 H   0  0  0  0  0  0  0  0  0  0  0  0
   -2.7656    4.5328    3.6263 H   0  0  0  0  0  0  0  0  0  0  0  0
   -2.9549    3.0010    2.7962 H   0  0  0  0  0  0  0  0  0  0  0  0
   -1.5464    4.0101    2.4841 H   0  0  0  0  0  0  0  0  0  0  0  0
   -1.7036    0.9479    3.6710 H   0  0  0  0  0  0  0  0  0  0  0  0
   -0.2825    1.7462    3.0453 H   0  0  0  0  0  0  0  0  0  0  0  0
   -0.6597    0.8328    5.9108 H   0  0  0  0  0  0  0  0  0  0  0  0
   -1.1602   -1.3929    5.7902 H   0  0  0  0  0  0  0  0  0  0  0  0
   -0.4652   -2.4969    4.6320 H   0  0  0  0  0  0  0  0  0  0  0  0
   -1.4232   -1.1701    4.0787 H   0  0  0  0  0  0  0  0  0  0  0  0
    5.7398   -1.4375    6.1214 H   0  0  0  0  0  0  0  0  0  0  0  0
    4.3379   -1.6691    7.1550 H   0  0  0  0  0  0  0  0  0  0  0  0
    5.1231   -0.1810    7.1625 H   0  0  0  0  0  0  0  0  0  0  0  0
    5.8333    0.3499    4.4175 H   0  0  0  0  0  0  0  0  0  0  0  0
    5.2428    1.3603    5.7086 H   0  0  0  0  0  0  0  0  0  0  0  0
    4.4764    1.4543    4.1670 H   0  0  0  0  0  0  0  0  0  0  0  0
  1  2  2  0
  1 39  1  0
  1 40  1  0
  2 17  1  0
  2  3  1  0
  3  4  1  0
  3 13  1  0
  3 41  1  6
  4  5  1  0
  5 12  1  0
  5  6  1  0
  5 42  1  6
  6  7  1  0
  6 43  1  0
  6 44  1  0
  7  9  1  0
  7  8  1  0
  7 45  1  1
  8  9  1  0
  9 10  1  0
  9 46  1  1
 10 11  1  0
 10 12  1  0
 10 47  1  1
 11 48  1  0
 11 49  1  0
 11 50  1  0
 13 14  1  0
 14 18  1  0
 14 15  1  0
 14 51  1  1
 15 34  1  0
 15 16  1  0
 15 52  1  6
 16 17  1  0
 17 18  1  0
 17 53  1  1
 18 36  1  0
 18 19  1  6
 19 20  1  0
 19 54  1  0
 19 55  1  0
 20 21  1  0
 21 22  1  0
 21 23  1  0
 21 56  1  6
 22 57  1  0
 23 34  1  0
 23 24  1  0
 23 58  1  1
 24 25  2  0
 24 36  1  0
 25 26  1  0
 25 59  1  0
 26 33  1  0
 26 27  2  0
 27 28  1  0
 27 60  1  0
 28 29  2  0
 28 30  1  0
 30 31  1  0
 30 32  1  0
 30 61  1  1
 31 62  1  0
 31 63  1  0
 31 64  1  0
 32 33  1  0
 32 65  1  0
 32 66  1  0
 33 34  1  0
 33 67  1  1
 34 35  1  6
 35 68  1  0
 35 69  1  0
 35 70  1  0
 36 37  1  0
 36 38  1  0
 37 71  1  0
 37 72  1  0
 37 73  1  0
 38 74  1  0
 38 75  1  0
 38 76  1  0
M  END
>  <i_m_ct_stereo_status>  (316) 
1

>  <s_m_source_file>  (316) 
/var/tmp/pbs.5076255.sched01/tmp7b2cfgi2/13234zcpj2x.sdf

>  <i_m_source_file_index>  (316) 
3

>  <i_lp_mmshare_version>  (316) 
48012

>  <i_f3d_flags>  (316) 
0

>  <s_epik_input>  (316) 
W0NAQEhdMTJbQ0BIXShPMilbQ0BASF0oW0NIM10pT1tDQEBIXShbQ0gyXTEpT1tDQEBIXShPMylDKD1bQ0gyXSlbQ0BIXTRPW0NAQEhdKFtDQEBIXTNbQ0BdNDU2KVtDQEBdNyhbQ0gzXSlbQ0BASF0oW0NASF0oW09IXSlPW0NIMl01KUMoQzYoW0NIM10pW0NIM10pPVtDSF1DPThbQ0BIXTdbQ0gyXVtDQEhdKFtDSDNdKUMoPU8pW0NIXTg=

>  <s_epik_cmdline>  (316) 
J2VwaWtfcHl0aG9uJywgJy1waHQnLCAnMi4wJywgJy1waCcsICc3LjAnLCAnLXRuJywgJzgnLCAnLW1hJywgJzIwMCcsICctaW1hZScsICc8aW5maWxlLm1hZT4nLCAnLW9tYWUnLCAnPG91dGZpbGUubWFlPic=

>  <r_lp_tautomer_probability>  (316) 
1

>  <r_epik_Ionization_Penalty>  (316) 
5.82133e-07

>  <r_epik_Ionization_Penalty_Charging>  (316) 
0

>  <r_epik_Ionization_Penalty_Neutral>  (316) 
5.82133e-07

>  <r_epik_State_Penalty>  (316) 
-0

>  <r_epik_Charging_Adjusted_Penalty>  (316) 
0

>  <i_epik_Tot_Q>  (316) 
0

>  <i_epik_Tot_abs_Q>  (316) 
0

>  <s_epik_Chemistry_Notes>  (316) 
This compound contains an acetal/aminal-like group ( X-CH(R)-Y where X, Y are N, S, or O) that may be acid/base labile, releasing an aldehyde.

>  <s_lp_Force_Field>  (316) 
OPLS3e

>  <r_lp_Energy>  (316) 
181.838

>  <b_lp_Chiralities_Consistent>  (316) 
1

>  <s_lp_Variant>  (316) 
88:0-1

>  <s_i_glide_gridfile>  (316) 
pfpi4k_grid

>  <i_i_glide_lignum>  (316) 
3

>  <i_i_glide_rotatable_bonds>  (316) 
3

>  <r_i_docking_score>  (316) 
-2.30226

>  <r_i_glide_ligand_efficiency>  (316) 
-0.0605858

>  <r_i_glide_ligand_efficiency_sa>  (316) 
-0.203688

>  <r_i_glide_ligand_efficiency_ln>  (316) 
-0.496435

>  <r_i_glide_gscore>  (316) 
-2.30226

>  <r_i_glide_lipo>  (316) 
-0.553769

>  <r_i_glide_hbond>  (316) 
0

>  <r_i_glide_metal>  (316) 
-0

>  <r_i_glide_rewards>  (316) 
-0.00372485

>  <r_i_glide_evdw>  (316) 
-34.0416

>  <r_i_glide_ecoul>  (316) 
-0.992429

>  <r_i_glide_erotb>  (316) 
0.14849

>  <r_i_glide_esite>  (316) 
-0.0423128

>  <r_i_glide_emodel>  (316) 
-38.3432

>  <r_i_glide_energy>  (316) 
-35.034

>  <r_i_glide_einternal>  (316) 
2.44532

>  <r_i_glide_intrahb_reward>  (316) 
-0

>  <i_i_glide_confnum>  (316) 
2

>  <i_i_glide_posenum>  (316) 
1

>  <r_i_glide_eff_state_penalty>  (316) 
0

>  <ligand_id>  (316) 
88

>  <original_smiles>  (316) 
C=C1C(OC2CC3OC3C(C)O2)OC2C3OC1C21COC(O)C2C(=CC4=CC(=O)C(C)CC4C32C)C1(C)C

>  <smiles>  (316) 
[H]OC1([H])OC([H])([H])C23C4([H])OC([H])(C2([H])OC([H])(OC2([H])OC([H])(C([H])([H])[H])C5([H])OC5([H])C2([H])[H])C4=C([H])[H])C2(C([H])([H])[H])C1([H])C(=C([H])C1=C([H])C(=O)C([H])(C([H])([H])[H])C([H])([H])C12[H])C3(C([H])([H])[H])C([H])([H])[H]

$$$$
88:0:2
     RDKit          3D

 76 83  0  0  1  0  0  0  0  0999 V2000
   -1.2424   -1.2734    4.8876 C   0  0  0  0  0  0  0  0  0  0  0  0
    0.0749   -1.0063    4.9728 C   0  0  0  0  0  0  0  0  0  0  0  0
    0.5907    0.3947    4.9855 C   0  0  1  0  0  0  0  0  0  0  0  0
    0.2089    0.9935    6.1868 O   0  0  0  0  0  0  0  0  0  0  0  0
    0.2473    2.3888    6.2082 C   0  0  2  0  0  0  0  0  0  0  0  0
   -0.3089    2.8725    7.5653 C   0  0  0  0  0  0  0  0  0  0  0  0
   -1.8264    2.8085    7.6210 C   0  0  2  0  0  0  0  0  0  0  0  0
   -2.4131    1.5649    7.2347 O   0  0  0  0  0  0  0  0  0  0  0  0
   -2.5898    2.6731    6.3423 C   0  0  2  0  0  0  0  0  0  0  0  0
   -1.8466    2.5729    5.0346 C   0  0  1  0  0  0  0  0  0  0  0  0
   -2.5354    3.3670    3.9279 C   0  0  0  0  0  0  0  0  0  0  0  0
   -0.4977    3.0014    5.1916 O   0  0  0  0  0  0  0  0  0  0  0  0
    1.9491    0.4443    4.7504 O   0  0  0  0  0  0  0  0  0  0  0  0
    2.7590   -0.7290    4.9027 C   0  0  2  0  0  0  0  0  0  0  0  0
    2.9240   -1.4518    3.6188 C   0  0  2  0  0  0  0  0  0  0  0  0
    1.8325   -2.3889    3.8488 O   0  0  0  0  0  0  0  0  0  0  0  0
    1.1250   -2.0968    5.1018 C   0  0  1  0  0  0  0  0  0  0  0  0
    2.3767   -1.8362    5.9873 C   0  0  2  0  0  0  0  0  0  0  0  0
    2.7440   -0.9429    7.1630 C   0  0  0  0  0  0  0  0  0  0  0  0
    4.2065   -0.9966    7.2783 O   0  0  0  0  0  0  0  0  0  0  0  0
    5.2303   -1.2249    6.2594 C   0  0  1  0  0  0  0  0  0  0  0  0
    6.4231   -1.5979    6.9096 O   0  0  0  0  0  0  0  0  0  0  0  0
    4.9562   -2.3083    5.0501 C   0  0  1  0  0  0  0  0  0  0  0  0
    4.1460   -3.5431    5.3430 C   0  0  0  0  0  0  0  0  0  0  0  0
    4.1309   -4.5732    4.4659 C   0  0  0  0  0  0  0  0  0  0  0  0
    4.5621   -4.3768    3.0974 C   0  0  0  0  0  0  0  0  0  0  0  0
    4.4997   -5.4381    2.2649 C   0  0  0  0  0  0  0  0  0  0  0  0
    4.6863   -5.3055    0.8076 C   0  0  0  0  0  0  0  0  0  0  0  0
    4.7055   -6.2953    0.0765 O   0  0  0  0  0  0  0  0  0  0  0  0
    4.8756   -3.9117    0.1918 C   0  0  1  0  0  0  0  0  0  0  0  0
    4.2671   -3.8189   -1.2244 C   0  0  0  0  0  0  0  0  0  0  0  0
    4.3411   -2.7995    1.1273 C   0  0  0  0  0  0  0  0  0  0  0  0
    4.8476   -2.9655    2.5870 C   0  0  1  0  0  0  0  0  0  0  0  0
    4.4763   -1.8195    3.6123 C   0  0  1  0  0  0  0  0  0  0  0  0
    5.3261   -0.5898    3.1631 C   0  0  0  0  0  0  0  0  0  0  0  0
    3.0361   -3.3196    6.3334 C   0  0  0  0  0  0  0  0  0  0  0  0
    3.6028   -3.5989    7.7721 C   0  0  0  0  0  0  0  0  0  0  0  0
    1.9939   -4.4962    6.2935 C   0  0  0  0  0  0  0  0  0  0  0  0
   -1.6001   -2.2860    4.8912 H   0  0  0  0  0  0  0  0  0  0  0  0
   -1.9897   -0.5032    4.8040 H   0  0  0  0  0  0  0  0  0  0  0  0
    0.1287    0.8797    4.1346 H   0  0  0  0  0  0  0  0  0  0  0  0
    1.2795    2.7069    6.0978 H   0  0  0  0  0  0  0  0  0  0  0  0
    0.1295    2.3079    8.3966 H   0  0  0  0  0  0  0  0  0  0  0  0
   -0.0380    3.9241    7.6690 H   0  0  0  0  0  0  0  0  0  0  0  0
   -2.3311    3.3139    8.4454 H   0  0  0  0  0  0  0  0  0  0  0  0
   -3.6169    3.0612    6.3173 H   0  0  0  0  0  0  0  0  0  0  0  0
   -1.8651    1.5443    4.7141 H   0  0  0  0  0  0  0  0  0  0  0  0
   -3.5712    3.0278    3.8387 H   0  0  0  0  0  0  0  0  0  0  0  0
   -2.0619    3.2227    2.9516 H   0  0  0  0  0  0  0  0  0  0  0  0
   -2.5410    4.4346    4.1619 H   0  0  0  0  0  0  0  0  0  0  0  0
    3.6049   -0.0959    5.0923 H   0  0  0  0  0  0  0  0  0  0  0  0
    2.6793   -0.8276    2.7579 H   0  0  0  0  0  0  0  0  0  0  0  0
    0.4952   -2.9237    5.4068 H   0  0  0  0  0  0  0  0  0  0  0  0
    2.4248    0.0941    7.0853 H   0  0  0  0  0  0  0  0  0  0  0  0
    2.2862   -1.2937    8.0846 H   0  0  0  0  0  0  0  0  0  0  0  0
    5.4880   -0.2413    5.8610 H   0  0  0  0  0  0  0  0  0  0  0  0
    6.6499   -0.8966    7.5022 H   0  0  0  0  0  0  0  0  0  0  0  0
    5.9506   -2.7070    4.8659 H   0  0  0  0  0  0  0  0  0  0  0  0
    3.5026   -5.4290    4.6153 H   0  0  0  0  0  0  0  0  0  0  0  0
    4.2252   -6.4159    2.6294 H   0  0  0  0  0  0  0  0  0  0  0  0
    5.9521   -3.7809    0.0798 H   0  0  0  0  0  0  0  0  0  0  0  0
    4.7583   -4.5048   -1.9181 H   0  0  0  0  0  0  0  0  0  0  0  0
    4.3661   -2.8180   -1.6433 H   0  0  0  0  0  0  0  0  0  0  0  0
    3.2060   -4.0719   -1.2257 H   0  0  0  0  0  0  0  0  0  0  0  0
    4.6552   -1.8433    0.7096 H   0  0  0  0  0  0  0  0  0  0  0  0
    3.2508   -2.7983    1.1071 H   0  0  0  0  0  0  0  0  0  0  0  0
    5.9354   -2.9596    2.5016 H   0  0  0  0  0  0  0  0  0  0  0  0
    6.3897   -0.8150    3.1753 H   0  0  0  0  0  0  0  0  0  0  0  0
    5.2013    0.2978    3.7780 H   0  0  0  0  0  0  0  0  0  0  0  0
    5.0912   -0.2737    2.1492 H   0  0  0  0  0  0  0  0  0  0  0  0
    2.8622   -3.3981    8.5461 H   0  0  0  0  0  0  0  0  0  0  0  0
    4.5196   -3.0867    8.0397 H   0  0  0  0  0  0  0  0  0  0  0  0
    3.8940   -4.6425    7.8918 H   0  0  0  0  0  0  0  0  0  0  0  0
    1.1711   -4.3191    6.9882 H   0  0  0  0  0  0  0  0  0  0  0  0
    2.4282   -5.4557    6.5856 H   0  0  0  0  0  0  0  0  0  0  0  0
    1.5711   -4.6833    5.3030 H   0  0  0  0  0  0  0  0  0  0  0  0
  1  2  2  0
  1 39  1  0
  1 40  1  0
  2 17  1  0
  2  3  1  0
  3  4  1  0
  3 13  1  0
  3 41  1  6
  4  5  1  0
  5 12  1  0
  5  6  1  0
  5 42  1  6
  6  7  1  0
  6 43  1  0
  6 44  1  0
  7  9  1  0
  7  8  1  0
  7 45  1  1
  8  9  1  0
  9 10  1  0
  9 46  1  6
 10 11  1  0
 10 12  1  0
 10 47  1  6
 11 48  1  0
 11 49  1  0
 11 50  1  0
 13 14  1  0
 14 18  1  0
 14 15  1  0
 14 51  1  1
 15 34  1  0
 15 16  1  0
 15 52  1  6
 16 17  1  0
 17 18  1  0
 17 53  1  1
 18 36  1  0
 18 19  1  1
 19 20  1  0
 19 54  1  0
 19 55  1  0
 20 21  1  0
 21 22  1  0
 21 23  1  0
 21 56  1  6
 22 57  1  0
 23 34  1  0
 23 24  1  0
 23 58  1  6
 24 25  2  0
 24 36  1  0
 25 26  1  0
 25 59  1  0
 26 33  1  0
 26 27  2  0
 27 28  1  0
 27 60  1  0
 28 29  2  0
 28 30  1  0
 30 31  1  0
 30 32  1  0
 30 61  1  6
 31 62  1  0
 31 63  1  0
 31 64  1  0
 32 33  1  0
 32 65  1  0
 32 66  1  0
 33 34  1  0
 33 67  1  6
 34 35  1  6
 35 68  1  0
 35 69  1  0
 35 70  1  0
 36 37  1  0
 36 38  1  0
 37 71  1  0
 37 72  1  0
 37 73  1  0
 38 74  1  0
 38 75  1  0
 38 76  1  0
M  END
>  <i_m_ct_stereo_status>  (317) 
1

>  <s_m_source_file>  (317) 
/var/tmp/pbs.5076255.sched01/tmp7b2cfgi2/13234zcpj2x.sdf

>  <i_m_source_file_index>  (317) 
3

>  <i_lp_mmshare_version>  (317) 
48012

>  <i_f3d_flags>  (317) 
0

>  <s_epik_input>  (317) 
W0NAQEhdMTJbQ0BIXShPMilbQ0BASF0oW0NIM10pT1tDQEBIXShbQ0gyXTEpT1tDQEBIXShPMylDKD1bQ0gyXSlbQ0BIXTRPW0NAQEhdKFtDQEBIXTNbQ0BdNDU2KVtDQEBdNyhbQ0gzXSlbQ0BASF0oW0NASF0oW09IXSlPW0NIMl01KUMoQzYoW0NIM10pW0NIM10pPVtDSF1DPThbQ0BIXTdbQ0gyXVtDQEhdKFtDSDNdKUMoPU8pW0NIXTg=

>  <s_epik_cmdline>  (317) 
J2VwaWtfcHl0aG9uJywgJy1waHQnLCAnMi4wJywgJy1waCcsICc3LjAnLCAnLXRuJywgJzgnLCAnLW1hJywgJzIwMCcsICctaW1hZScsICc8aW5maWxlLm1hZT4nLCAnLW9tYWUnLCAnPG91dGZpbGUubWFlPic=

>  <r_lp_tautomer_probability>  (317) 
1

>  <r_epik_Ionization_Penalty>  (317) 
5.82133e-07

>  <r_epik_Ionization_Penalty_Charging>  (317) 
0

>  <r_epik_Ionization_Penalty_Neutral>  (317) 
5.82133e-07

>  <r_epik_State_Penalty>  (317) 
-0

>  <r_epik_Charging_Adjusted_Penalty>  (317) 
0

>  <i_epik_Tot_Q>  (317) 
0

>  <i_epik_Tot_abs_Q>  (317) 
0

>  <s_epik_Chemistry_Notes>  (317) 
This compound contains an acetal/aminal-like group ( X-CH(R)-Y where X, Y are N, S, or O) that may be acid/base labile, releasing an aldehyde.

>  <s_lp_Force_Field>  (317) 
OPLS3e

>  <r_lp_Energy>  (317) 
181.838

>  <b_lp_Chiralities_Consistent>  (317) 
1

>  <s_lp_Variant>  (317) 
88:0-1

>  <s_i_glide_gridfile>  (317) 
pfpi4k_grid

>  <i_i_glide_lignum>  (317) 
3

>  <i_i_glide_rotatable_bonds>  (317) 
3

>  <r_i_docking_score>  (317) 
-2.01046

>  <r_i_glide_ligand_efficiency>  (317) 
-0.0529069

>  <r_i_glide_ligand_efficiency_sa>  (317) 
-0.177872

>  <r_i_glide_ligand_efficiency_ln>  (317) 
-0.433514

>  <r_i_glide_gscore>  (317) 
-2.01046

>  <r_i_glide_lipo>  (317) 
-0.472901

>  <r_i_glide_hbond>  (317) 
-0.0719996

>  <r_i_glide_metal>  (317) 
-0

>  <r_i_glide_rewards>  (317) 
-0.0906587

>  <r_i_glide_evdw>  (317) 
-28.0057

>  <r_i_glide_ecoul>  (317) 
-0.782638

>  <r_i_glide_erotb>  (317) 
0.14849

>  <r_i_glide_esite>  (317) 
-0.00570975

>  <r_i_glide_emodel>  (317) 
-31.2858

>  <r_i_glide_energy>  (317) 
-28.7884

>  <r_i_glide_einternal>  (317) 
2.74916

>  <r_i_glide_intrahb_reward>  (317) 
-0

>  <i_i_glide_confnum>  (317) 
2

>  <i_i_glide_posenum>  (317) 
24

>  <r_i_glide_eff_state_penalty>  (317) 
0

>  <ligand_id>  (317) 
88

>  <original_smiles>  (317) 
C=C1C(OC2CC3OC3C(C)O2)OC2C3OC1C21COC(O)C2C(=CC4=CC(=O)C(C)CC4C32C)C1(C)C

>  <smiles>  (317) 
[H]OC1([H])OC([H])([H])C23C4([H])OC([H])(C2([H])OC([H])(OC2([H])OC([H])(C([H])([H])[H])C5([H])OC5([H])C2([H])[H])C4=C([H])[H])C2(C([H])([H])[H])C1([H])C(=C([H])C1=C([H])C(=O)C([H])(C([H])([H])[H])C([H])([H])C12[H])C3(C([H])([H])[H])C([H])([H])[H]

$$$$
89:0:0
     RDKit          3D

 53 58  0  0  1  0  0  0  0  0999 V2000
    5.2949   -0.4327    5.4475 C   0  0  0  0  0  0  0  0  0  0  0  0
    4.4528   -1.4768    4.7300 C   0  0  0  0  0  0  0  0  0  0  0  0
    3.2493   -1.1150    4.1975 C   0  0  0  0  0  0  0  0  0  0  0  0
    2.2665   -1.9562    3.3435 C   0  0  0  0  0  0  0  0  0  0  0  0
    3.0069   -3.0831    2.5941 C   0  0  0  0  0  0  0  0  0  0  0  0
    3.2746   -3.3737    1.1008 C   0  0  1  0  0  0  0  0  0  0  0  0
    3.0356   -2.2404    0.0913 C   0  0  0  0  0  0  0  0  0  0  0  0
    4.3980   -1.8627   -0.5101 C   0  0  2  0  0  0  0  0  0  0  0  0
    4.3422   -1.2127   -1.9171 C   0  0  0  0  0  0  0  0  0  0  0  0
    4.0123   -2.1939   -3.0548 C   0  0  1  0  0  0  0  0  0  0  0  0
    4.1998   -1.5441   -4.3007 O   0  0  0  0  0  0  0  0  0  0  0  0
    4.8912   -3.4503   -2.9931 C   0  0  0  0  0  0  0  0  0  0  0  0
    4.8269   -4.0878   -1.5913 C   0  0  0  0  0  0  0  0  0  0  0  0
    5.2405   -3.1480   -0.4331 C   0  0  1  0  0  0  0  0  0  0  0  0
    6.7560   -2.8568   -0.5251 C   0  0  0  0  0  0  0  0  0  0  0  0
    4.7957   -3.7738    0.9240 C   0  0  1  0  0  0  0  0  0  0  0  0
    5.7031   -3.3987    2.1680 C   0  0  0  0  0  0  0  0  0  0  0  0
    5.0715   -3.8428    3.5394 C   0  0  1  0  0  0  0  0  0  0  0  0
    5.0513   -2.9108    4.8182 C   0  0  2  0  0  0  0  0  0  0  0  0
    4.1074   -3.6468    5.7507 C   0  0  2  0  0  0  0  0  0  0  0  0
    4.0432   -5.0863    5.7381 O   0  0  0  0  0  0  0  0  0  0  0  0
    3.1527   -4.3641    4.8733 C   0  0  2  0  0  0  0  0  0  0  0  0
    3.6010   -4.2313    3.4324 C   0  0  1  0  0  0  0  0  0  0  0  0
    5.5067   -0.7372    6.4725 H   0  0  0  0  0  0  0  0  0  0  0  0
    4.7847    0.5279    5.4866 H   0  0  0  0  0  0  0  0  0  0  0  0
    6.2412   -0.2782    4.9308 H   0  0  0  0  0  0  0  0  0  0  0  0
    2.9408   -0.0862    4.3024 H   0  0  0  0  0  0  0  0  0  0  0  0
    1.4674   -2.3411    3.9737 H   0  0  0  0  0  0  0  0  0  0  0  0
    1.7913   -1.2787    2.6348 H   0  0  0  0  0  0  0  0  0  0  0  0
    3.7317   -2.3013    2.4291 H   0  0  0  0  0  0  0  0  0  0  0  0
    2.6467   -4.2163    0.8041 H   0  0  0  0  0  0  0  0  0  0  0  0
    2.3687   -2.6223   -0.6833 H   0  0  0  0  0  0  0  0  0  0  0  0
    2.5684   -1.3603    0.5299 H   0  0  0  0  0  0  0  0  0  0  0  0
    4.8370   -1.1337    0.1711 H   0  0  0  0  0  0  0  0  0  0  0  0
    3.6070   -0.4122   -1.9256 H   0  0  0  0  0  0  0  0  0  0  0  0
    5.3011   -0.7363   -2.1183 H   0  0  0  0  0  0  0  0  0  0  0  0
    2.9660   -2.4913   -2.9856 H   0  0  0  0  0  0  0  0  0  0  0  0
    3.5785   -0.8321   -4.3537 H   0  0  0  0  0  0  0  0  0  0  0  0
    4.5390   -4.1715   -3.7323 H   0  0  0  0  0  0  0  0  0  0  0  0
    5.9216   -3.2184   -3.2667 H   0  0  0  0  0  0  0  0  0  0  0  0
    3.8011   -4.4100   -1.4283 H   0  0  0  0  0  0  0  0  0  0  0  0
    5.4140   -5.0050   -1.5679 H   0  0  0  0  0  0  0  0  0  0  0  0
    7.3401   -3.7702   -0.4077 H   0  0  0  0  0  0  0  0  0  0  0  0
    7.0844   -2.1481    0.2326 H   0  0  0  0  0  0  0  0  0  0  0  0
    7.0244   -2.4251   -1.4869 H   0  0  0  0  0  0  0  0  0  0  0  0
    4.8474   -4.8610    0.8389 H   0  0  0  0  0  0  0  0  0  0  0  0
    6.6777   -3.8713    2.0633 H   0  0  0  0  0  0  0  0  0  0  0  0
    5.8890   -2.3223    2.1939 H   0  0  0  0  0  0  0  0  0  0  0  0
    5.6079   -4.7512    3.8218 H   0  0  0  0  0  0  0  0  0  0  0  0
    6.0408   -2.8759    5.2754 H   0  0  0  0  0  0  0  0  0  0  0  0
    3.7846   -3.1734    6.6785 H   0  0  0  0  0  0  0  0  0  0  0  0
    2.0927   -4.4258    5.1142 H   0  0  0  0  0  0  0  0  0  0  0  0
    3.4666   -5.1931    2.9371 H   0  0  0  0  0  0  0  0  0  0  0  0
  1  2  1  0
  1 24  1  0
  1 25  1  0
  1 26  1  0
  2 19  1  0
  2  3  2  0
  3  4  1  0
  3 27  1  0
  4  5  1  0
  4 28  1  0
  4 29  1  0
  5 23  1  0
  5  6  1  0
  5 30  1  0
  6 16  1  0
  6  7  1  0
  6 31  1  6
  7  8  1  0
  7 32  1  0
  7 33  1  0
  8 14  1  0
  8  9  1  0
  8 34  1  1
  9 10  1  0
  9 35  1  0
  9 36  1  0
 10 11  1  0
 10 12  1  0
 10 37  1  1
 11 38  1  0
 12 13  1  0
 12 39  1  0
 12 40  1  0
 13 14  1  0
 13 41  1  0
 13 42  1  0
 14 15  1  1
 14 16  1  0
 15 43  1  0
 15 44  1  0
 15 45  1  0
 16 17  1  0
 16 46  1  6
 17 18  1  0
 17 47  1  0
 17 48  1  0
 18 23  1  0
 18 19  1  0
 18 49  1  1
 19 20  1  0
 19 50  1  1
 20 22  1  0
 20 21  1  0
 20 51  1  1
 21 22  1  0
 22 23  1  0
 22 52  1  6
 23 53  1  6
M  END
>  <i_m_ct_stereo_status>  (318) 
1

>  <s_m_source_file>  (318) 
/var/tmp/pbs.5076255.sched01/tmp7b2cfgi2/13234zcpj2x.sdf

>  <i_m_source_file_index>  (318) 
4

>  <i_lp_mmshare_version>  (318) 
48012

>  <i_f3d_flags>  (318) 
0

>  <s_epik_input>  (318) 
W0NIMl0xW0NIXT1DKFtDSDNdKVtDQEBIXShbQ0BIXTJbQ0BASF0zTzIpW0NAQEhdKFtDSDJdW0NAQEhdNDUpW0NAQEhdM1tDQEhdMVtDQEhdNFtDSDJdW0NAQEhdKFtDQEBdNTZbQ0gzXSlbQ0gyXVtDQEBIXShbT0hdKVtDSDJdW0NIMl02

>  <s_epik_cmdline>  (318) 
J2VwaWtfcHl0aG9uJywgJy1waHQnLCAnMi4wJywgJy1waCcsICc3LjAnLCAnLXRuJywgJzgnLCAnLW1hJywgJzIwMCcsICctaW1hZScsICc8aW5maWxlLm1hZT4nLCAnLW9tYWUnLCAnPG91dGZpbGUubWFlPic=

>  <r_lp_tautomer_probability>  (318) 
1

>  <r_epik_Ionization_Penalty>  (318) 
3.30248e-06

>  <r_epik_Ionization_Penalty_Charging>  (318) 
0

>  <r_epik_Ionization_Penalty_Neutral>  (318) 
3.30248e-06

>  <r_epik_State_Penalty>  (318) 
-0

>  <r_epik_Charging_Adjusted_Penalty>  (318) 
0

>  <i_epik_Tot_Q>  (318) 
0

>  <i_epik_Tot_abs_Q>  (318) 
0

>  <s_lp_Force_Field>  (318) 
OPLS3e

>  <r_lp_Energy>  (318) 
98.5064

>  <b_lp_Chiralities_Consistent>  (318) 
1

>  <s_lp_Variant>  (318) 
89:0-1

>  <s_i_glide_gridfile>  (318) 
pfpi4k_grid

>  <i_i_glide_lignum>  (318) 
4

>  <i_i_glide_rotatable_bonds>  (318) 
1

>  <r_i_docking_score>  (318) 
-3.73782

>  <r_i_glide_ligand_efficiency>  (318) 
-0.162514

>  <r_i_glide_ligand_efficiency_sa>  (318) 
-0.462168

>  <r_i_glide_ligand_efficiency_ln>  (318) 
-0.903839

>  <r_i_glide_gscore>  (318) 
-3.73782

>  <r_i_glide_lipo>  (318) 
-0.501822

>  <r_i_glide_hbond>  (318) 
-0.318015

>  <r_i_glide_metal>  (318) 
-0

>  <r_i_glide_rewards>  (318) 
-1.26503

>  <r_i_glide_evdw>  (318) 
-21.3692

>  <r_i_glide_ecoul>  (318) 
-3.89657

>  <r_i_glide_erotb>  (318) 
0

>  <r_i_glide_esite>  (318) 
0

>  <r_i_glide_emodel>  (318) 
-30.8022

>  <r_i_glide_energy>  (318) 
-25.2658

>  <r_i_glide_einternal>  (318) 
0.337294

>  <r_i_glide_intrahb_reward>  (318) 
-0

>  <i_i_glide_confnum>  (318) 
2

>  <i_i_glide_posenum>  (318) 
26

>  <r_i_glide_eff_state_penalty>  (318) 
0

>  <ligand_id>  (318) 
89

>  <original_smiles>  (318) 
CC1=CCC2C3CC4CC(O)CCC4(C)C3CC3C1C1OC1C23

>  <smiles>  (318) 
[H]OC1([H])C([H])([H])C([H])([H])C2(C([H])([H])[H])C([H])(C1([H])[H])C([H])([H])C1([H])C3([H])C([H])([H])C([H])=C(C([H])([H])[H])C4([H])C5([H])OC5([H])C3([H])C4([H])C([H])([H])C12[H]

$$$$
89:0:1
     RDKit          3D

 53 58  0  0  1  0  0  0  0  0999 V2000
    5.0686   -4.4440    5.7292 C   0  0  0  0  0  0  0  0  0  0  0  0
    4.3245   -5.0195    4.5362 C   0  0  0  0  0  0  0  0  0  0  0  0
    3.0695   -4.5630    4.2460 C   0  0  0  0  0  0  0  0  0  0  0  0
    2.1559   -4.9092    3.0441 C   0  0  0  0  0  0  0  0  0  0  0  0
    2.9910   -5.3656    1.8289 C   0  0  2  0  0  0  0  0  0  0  0  0
    3.2342   -4.7701    0.4245 C   0  0  1  0  0  0  0  0  0  0  0  0
    2.8353   -3.2990    0.1842 C   0  0  0  0  0  0  0  0  0  0  0  0
    4.1416   -2.5339   -0.0809 C   0  0  2  0  0  0  0  0  0  0  0  0
    3.9761   -1.2409   -0.9134 C   0  0  0  0  0  0  0  0  0  0  0  0
    3.7094   -1.4877   -2.4131 C   0  0  1  0  0  0  0  0  0  0  0  0
    3.8146   -0.2732   -3.1330 O   0  0  0  0  0  0  0  0  0  0  0  0
    4.7102   -2.4827   -3.0092 C   0  0  0  0  0  0  0  0  0  0  0  0
    4.7732   -3.7732   -2.1895 C   0  0  0  0  0  0  0  0  0  0  0  0
    5.1157   -3.5599   -0.6899 C   0  0  1  0  0  0  0  0  0  0  0  0
    6.5890   -3.1010   -0.5563 C   0  0  0  0  0  0  0  0  0  0  0  0
    4.7860   -4.8564    0.1078 C   0  0  1  0  0  0  0  0  0  0  0  0
    5.6924   -5.1156    1.3887 C   0  0  0  0  0  0  0  0  0  0  0  0
    5.1566   -6.2939    2.2821 C   0  0  1  0  0  0  0  0  0  0  0  0
    5.0763   -6.2019    3.8596 C   0  0  2  0  0  0  0  0  0  0  0  0
    4.2439   -7.4186    4.2178 C   0  0  2  0  0  0  0  0  0  0  0  0
    4.3333   -8.6254    3.4297 O   0  0  0  0  0  0  0  0  0  0  0  0
    3.3433   -7.6473    3.0619 C   0  0  2  0  0  0  0  0  0  0  0  0
    3.7299   -6.7146    1.9349 C   0  0  1  0  0  0  0  0  0  0  0  0
    5.3374   -5.2261    6.4384 H   0  0  0  0  0  0  0  0  0  0  0  0
    4.4617   -3.7129    6.2608 H   0  0  0  0  0  0  0  0  0  0  0  0
    5.9806   -3.9461    5.4043 H   0  0  0  0  0  0  0  0  0  0  0  0
    2.6562   -3.7930    4.8789 H   0  0  0  0  0  0  0  0  0  0  0  0
    1.4228   -5.6554    3.3440 H   0  0  0  0  0  0  0  0  0  0  0  0
    1.5895   -4.0110    2.7994 H   0  0  0  0  0  0  0  0  0  0  0  0
    3.6251   -4.5489    2.1339 H   0  0  0  0  0  0  0  0  0  0  0  0
    2.6951   -5.3823   -0.3014 H   0  0  0  0  0  0  0  0  0  0  0  0
    2.1917   -3.2524   -0.6947 H   0  0  0  0  0  0  0  0  0  0  0  0
    2.2752   -2.8500    1.0041 H   0  0  0  0  0  0  0  0  0  0  0  0
    4.5264   -2.2445    0.8981 H   0  0  0  0  0  0  0  0  0  0  0  0
    3.1544   -0.6636   -0.4891 H   0  0  0  0  0  0  0  0  0  0  0  0
    4.8708   -0.6277   -0.7971 H   0  0  0  0  0  0  0  0  0  0  0  0
    2.6974   -1.8742   -2.5448 H   0  0  0  0  0  0  0  0  0  0  0  0
    3.1269    0.3118   -2.8560 H   0  0  0  0  0  0  0  0  0  0  0  0
    4.4263   -2.7118   -4.0361 H   0  0  0  0  0  0  0  0  0  0  0  0
    5.7068   -2.0535   -3.0593 H   0  0  0  0  0  0  0  0  0  0  0  0
    3.8030   -4.2530   -2.2726 H   0  0  0  0  0  0  0  0  0  0  0  0
    5.4785   -4.4571   -2.6564 H   0  0  0  0  0  0  0  0  0  0  0  0
    7.2796   -3.8549   -0.9285 H   0  0  0  0  0  0  0  0  0  0  0  0
    6.8637   -2.8793    0.4738 H   0  0  0  0  0  0  0  0  0  0  0  0
    6.7813   -2.1941   -1.1216 H   0  0  0  0  0  0  0  0  0  0  0  0
    4.9478   -5.7140   -0.5487 H   0  0  0  0  0  0  0  0  0  0  0  0
    6.7114   -5.3494    1.0837 H   0  0  0  0  0  0  0  0  0  0  0  0
    5.7641   -4.2112    1.9964 H   0  0  0  0  0  0  0  0  0  0  0  0
    5.7922   -7.1506    2.0491 H   0  0  0  0  0  0  0  0  0  0  0  0
    6.0714   -6.3060    4.2922 H   0  0  0  0  0  0  0  0  0  0  0  0
    3.8980   -7.5595    5.2432 H   0  0  0  0  0  0  0  0  0  0  0  0
    2.3037   -7.9465    3.1969 H   0  0  0  0  0  0  0  0  0  0  0  0
    3.6816   -7.2669    0.9960 H   0  0  0  0  0  0  0  0  0  0  0  0
  1  2  1  0
  1 24  1  0
  1 25  1  0
  1 26  1  0
  2 19  1  0
  2  3  2  0
  3  4  1  0
  3 27  1  0
  4  5  1  0
  4 28  1  0
  4 29  1  0
  5 23  1  0
  5  6  1  0
  5 30  1  1
  6 16  1  0
  6  7  1  0
  6 31  1  6
  7  8  1  0
  7 32  1  0
  7 33  1  0
  8 14  1  0
  8  9  1  0
  8 34  1  1
  9 10  1  0
  9 35  1  0
  9 36  1  0
 10 11  1  0
 10 12  1  0
 10 37  1  1
 11 38  1  0
 12 13  1  0
 12 39  1  0
 12 40  1  0
 13 14  1  0
 13 41  1  0
 13 42  1  0
 14 15  1  6
 14 16  1  0
 15 43  1  0
 15 44  1  0
 15 45  1  0
 16 17  1  0
 16 46  1  6
 17 18  1  0
 17 47  1  0
 17 48  1  0
 18 23  1  0
 18 19  1  0
 18 49  1  1
 19 20  1  0
 19 50  1  1
 20 22  1  0
 20 21  1  0
 20 51  1  1
 21 22  1  0
 22 23  1  0
 22 52  1  1
 23 53  1  6
M  END
>  <i_m_ct_stereo_status>  (319) 
1

>  <s_m_source_file>  (319) 
/var/tmp/pbs.5076255.sched01/tmp7b2cfgi2/13234zcpj2x.sdf

>  <i_m_source_file_index>  (319) 
4

>  <i_lp_mmshare_version>  (319) 
48012

>  <i_f3d_flags>  (319) 
0

>  <s_epik_input>  (319) 
W0NIMl0xW0NIXT1DKFtDSDNdKVtDQEBIXShbQ0BIXTJbQ0BASF0zTzIpW0NAQEhdKFtDSDJdW0NAQEhdNDUpW0NAQEhdM1tDQEhdMVtDQEhdNFtDSDJdW0NAQEhdKFtDQEBdNTZbQ0gzXSlbQ0gyXVtDQEBIXShbT0hdKVtDSDJdW0NIMl02

>  <s_epik_cmdline>  (319) 
J2VwaWtfcHl0aG9uJywgJy1waHQnLCAnMi4wJywgJy1waCcsICc3LjAnLCAnLXRuJywgJzgnLCAnLW1hJywgJzIwMCcsICctaW1hZScsICc8aW5maWxlLm1hZT4nLCAnLW9tYWUnLCAnPG91dGZpbGUubWFlPic=

>  <r_lp_tautomer_probability>  (319) 
1

>  <r_epik_Ionization_Penalty>  (319) 
3.30248e-06

>  <r_epik_Ionization_Penalty_Charging>  (319) 
0

>  <r_epik_Ionization_Penalty_Neutral>  (319) 
3.30248e-06

>  <r_epik_State_Penalty>  (319) 
-0

>  <r_epik_Charging_Adjusted_Penalty>  (319) 
0

>  <i_epik_Tot_Q>  (319) 
0

>  <i_epik_Tot_abs_Q>  (319) 
0

>  <s_lp_Force_Field>  (319) 
OPLS3e

>  <r_lp_Energy>  (319) 
98.5064

>  <b_lp_Chiralities_Consistent>  (319) 
1

>  <s_lp_Variant>  (319) 
89:0-1

>  <s_i_glide_gridfile>  (319) 
pfpi4k_grid

>  <i_i_glide_lignum>  (319) 
4

>  <i_i_glide_rotatable_bonds>  (319) 
1

>  <r_i_docking_score>  (319) 
-3.25387

>  <r_i_glide_ligand_efficiency>  (319) 
-0.141472

>  <r_i_glide_ligand_efficiency_sa>  (319) 
-0.402329

>  <r_i_glide_ligand_efficiency_ln>  (319) 
-0.786814

>  <r_i_glide_gscore>  (319) 
-3.25387

>  <r_i_glide_lipo>  (319) 
-0.366522

>  <r_i_glide_hbond>  (319) 
-0.101015

>  <r_i_glide_metal>  (319) 
-0

>  <r_i_glide_rewards>  (319) 
-1.26503

>  <r_i_glide_evdw>  (319) 
-23.0634

>  <r_i_glide_ecoul>  (319) 
-2.45417

>  <r_i_glide_erotb>  (319) 
0

>  <r_i_glide_esite>  (319) 
0

>  <r_i_glide_emodel>  (319) 
-30.2981

>  <r_i_glide_energy>  (319) 
-25.5176

>  <r_i_glide_einternal>  (319) 
0.353663

>  <r_i_glide_intrahb_reward>  (319) 
-0

>  <i_i_glide_confnum>  (319) 
1

>  <i_i_glide_posenum>  (319) 
38

>  <r_i_glide_eff_state_penalty>  (319) 
0

>  <ligand_id>  (319) 
89

>  <original_smiles>  (319) 
CC1=CCC2C3CC4CC(O)CCC4(C)C3CC3C1C1OC1C23

>  <smiles>  (319) 
[H]OC1([H])C([H])([H])C([H])([H])C2(C([H])([H])[H])C([H])(C1([H])[H])C([H])([H])C1([H])C3([H])C([H])([H])C([H])=C(C([H])([H])[H])C4([H])C5([H])OC5([H])C3([H])C4([H])C([H])([H])C12[H]

$$$$
89:0:2
     RDKit          3D

 53 58  0  0  1  0  0  0  0  0999 V2000
    2.4769   -3.8154    4.9489 C   0  0  0  0  0  0  0  0  0  0  0  0
    3.0954   -4.5483    3.7658 C   0  0  0  0  0  0  0  0  0  0  0  0
    2.2912   -5.1858    2.8730 C   0  0  0  0  0  0  0  0  0  0  0  0
    2.6663   -5.9070    1.5535 C   0  0  0  0  0  0  0  0  0  0  0  0
    3.9718   -5.3275    0.9708 C   0  0  0  0  0  0  0  0  0  0  0  0
    4.2935   -4.5265   -0.3044 C   0  0  1  0  0  0  0  0  0  0  0  0
    3.1291   -3.8573   -1.0586 C   0  0  0  0  0  0  0  0  0  0  0  0
    3.3352   -2.3690   -1.0408 C   0  0  2  0  0  0  0  0  0  0  0  0
    2.6916   -1.7125   -2.2864 C   0  0  0  0  0  0  0  0  0  0  0  0
    3.3891   -1.7740   -3.5847 C   0  0  1  0  0  0  0  0  0  0  0  0
    2.9382   -0.7223   -4.4239 O   0  0  0  0  0  0  0  0  0  0  0  0
    4.8008   -1.4578   -3.2925 C   0  0  0  0  0  0  0  0  0  0  0  0
    5.4915   -2.3388   -2.2421 C   0  0  0  0  0  0  0  0  0  0  0  0
    4.8403   -2.1776   -0.8505 C   0  0  1  0  0  0  0  0  0  0  0  0
    5.1225   -0.7791   -0.2577 C   0  0  0  0  0  0  0  0  0  0  0  0
    5.2694   -3.3454    0.0777 C   0  0  1  0  0  0  0  0  0  0  0  0
    5.2839   -3.0008    1.6251 C   0  0  0  0  0  0  0  0  0  0  0  0
    5.4837   -4.2846    2.4971 C   0  0  1  0  0  0  0  0  0  0  0  0
    4.6526   -4.5534    3.8139 C   0  0  2  0  0  0  0  0  0  0  0  0
    4.9966   -5.9968    4.1230 C   0  0  2  0  0  0  0  0  0  0  0  0
    6.3020   -6.5254    3.8125 O   0  0  0  0  0  0  0  0  0  0  0  0
    5.2719   -6.6401    2.8199 C   0  0  2  0  0  0  0  0  0  0  0  0
    5.2777   -5.5905    1.7369 C   0  0  1  0  0  0  0  0  0  0  0  0
    2.8634   -4.2015    5.8921 H   0  0  0  0  0  0  0  0  0  0  0  0
    1.3953   -3.9362    4.9598 H   0  0  0  0  0  0  0  0  0  0  0  0
    2.6975   -2.7480    4.8982 H   0  0  0  0  0  0  0  0  0  0  0  0
    1.2273   -5.1579    3.0462 H   0  0  0  0  0  0  0  0  0  0  0  0
    2.7419   -6.9774    1.7216 H   0  0  0  0  0  0  0  0  0  0  0  0
    1.8478   -5.7654    0.8514 H   0  0  0  0  0  0  0  0  0  0  0  0
    3.5217   -4.3927    1.2657 H   0  0  0  0  0  0  0  0  0  0  0  0
    4.8089   -5.1918   -1.0060 H   0  0  0  0  0  0  0  0  0  0  0  0
    3.2229   -4.1719   -2.0967 H   0  0  0  0  0  0  0  0  0  0  0  0
    2.1388   -4.1595   -0.7291 H   0  0  0  0  0  0  0  0  0  0  0  0
    2.8270   -2.0213   -0.1411 H   0  0  0  0  0  0  0  0  0  0  0  0
    1.7107   -2.1371   -2.4265 H   0  0  0  0  0  0  0  0  0  0  0  0
    2.6051   -0.6630   -2.0222 H   0  0  0  0  0  0  0  0  0  0  0  0
    3.2722   -2.7490   -4.0596 H   0  0  0  0  0  0  0  0  0  0  0  0
    2.7259    0.0411   -3.9072 H   0  0  0  0  0  0  0  0  0  0  0  0
    5.2477   -1.5802   -4.2632 H   0  0  0  0  0  0  0  0  0  0  0  0
    4.8931   -0.4080   -3.0060 H   0  0  0  0  0  0  0  0  0  0  0  0
    5.4509   -3.3790   -2.5751 H   0  0  0  0  0  0  0  0  0  0  0  0
    6.5494   -2.0862   -2.1774 H   0  0  0  0  0  0  0  0  0  0  0  0
    6.1864   -0.6030   -0.1023 H   0  0  0  0  0  0  0  0  0  0  0  0
    4.6083   -0.6039    0.6841 H   0  0  0  0  0  0  0  0  0  0  0  0
    4.7374   -0.0101   -0.9180 H   0  0  0  0  0  0  0  0  0  0  0  0
    6.2907   -3.6297   -0.1860 H   0  0  0  0  0  0  0  0  0  0  0  0
    6.0920   -2.3006    1.8367 H   0  0  0  0  0  0  0  0  0  0  0  0
    4.3608   -2.4961    1.9186 H   0  0  0  0  0  0  0  0  0  0  0  0
    6.5359   -4.2880    2.7699 H   0  0  0  0  0  0  0  0  0  0  0  0
    5.0086   -3.9144    4.6213 H   0  0  0  0  0  0  0  0  0  0  0  0
    4.4577   -6.5263    4.9109 H   0  0  0  0  0  0  0  0  0  0  0  0
    4.9303   -7.6511    2.5995 H   0  0  0  0  0  0  0  0  0  0  0  0
    6.1010   -5.7995    1.0514 H   0  0  0  0  0  0  0  0  0  0  0  0
  1  2  1  0
  1 24  1  0
  1 25  1  0
  1 26  1  0
  2 19  1  0
  2  3  2  0
  3  4  1  0
  3 27  1  0
  4  5  1  0
  4 28  1  0
  4 29  1  0
  5 23  1  0
  5  6  1  0
  5 30  1  0
  6 16  1  0
  6  7  1  0
  6 31  1  6
  7  8  1  0
  7 32  1  0
  7 33  1  0
  8 14  1  0
  8  9  1  0
  8 34  1  1
  9 10  1  0
  9 35  1  0
  9 36  1  0
 10 11  1  0
 10 12  1  0
 10 37  1  6
 11 38  1  0
 12 13  1  0
 12 39  1  0
 12 40  1  0
 13 14  1  0
 13 41  1  0
 13 42  1  0
 14 15  1  1
 14 16  1  0
 15 43  1  0
 15 44  1  0
 15 45  1  0
 16 17  1  0
 16 46  1  6
 17 18  1  0
 17 47  1  0
 17 48  1  0
 18 23  1  0
 18 19  1  0
 18 49  1  1
 19 20  1  0
 19 50  1  1
 20 22  1  0
 20 21  1  0
 20 51  1  1
 21 22  1  0
 22 23  1  0
 22 52  1  6
 23 53  1  6
M  END
>  <i_m_ct_stereo_status>  (320) 
1

>  <s_m_source_file>  (320) 
/var/tmp/pbs.5076255.sched01/tmp7b2cfgi2/13234zcpj2x.sdf

>  <i_m_source_file_index>  (320) 
4

>  <i_lp_mmshare_version>  (320) 
48012

>  <i_f3d_flags>  (320) 
0

>  <s_epik_input>  (320) 
W0NIMl0xW0NIXT1DKFtDSDNdKVtDQEBIXShbQ0BIXTJbQ0BASF0zTzIpW0NAQEhdKFtDSDJdW0NAQEhdNDUpW0NAQEhdM1tDQEhdMVtDQEhdNFtDSDJdW0NAQEhdKFtDQEBdNTZbQ0gzXSlbQ0gyXVtDQEBIXShbT0hdKVtDSDJdW0NIMl02

>  <s_epik_cmdline>  (320) 
J2VwaWtfcHl0aG9uJywgJy1waHQnLCAnMi4wJywgJy1waCcsICc3LjAnLCAnLXRuJywgJzgnLCAnLW1hJywgJzIwMCcsICctaW1hZScsICc8aW5maWxlLm1hZT4nLCAnLW9tYWUnLCAnPG91dGZpbGUubWFlPic=

>  <r_lp_tautomer_probability>  (320) 
1

>  <r_epik_Ionization_Penalty>  (320) 
3.30248e-06

>  <r_epik_Ionization_Penalty_Charging>  (320) 
0

>  <r_epik_Ionization_Penalty_Neutral>  (320) 
3.30248e-06

>  <r_epik_State_Penalty>  (320) 
-0

>  <r_epik_Charging_Adjusted_Penalty>  (320) 
0

>  <i_epik_Tot_Q>  (320) 
0

>  <i_epik_Tot_abs_Q>  (320) 
0

>  <s_lp_Force_Field>  (320) 
OPLS3e

>  <r_lp_Energy>  (320) 
98.5064

>  <b_lp_Chiralities_Consistent>  (320) 
1

>  <s_lp_Variant>  (320) 
89:0-1

>  <s_i_glide_gridfile>  (320) 
pfpi4k_grid

>  <i_i_glide_lignum>  (320) 
4

>  <i_i_glide_rotatable_bonds>  (320) 
1

>  <r_i_docking_score>  (320) 
-2.2459

>  <r_i_glide_ligand_efficiency>  (320) 
-0.0976478

>  <r_i_glide_ligand_efficiency_sa>  (320) 
-0.277697

>  <r_i_glide_ligand_efficiency_ln>  (320) 
-0.543079

>  <r_i_glide_gscore>  (320) 
-2.2459

>  <r_i_glide_lipo>  (320) 
-0.429831

>  <r_i_glide_hbond>  (320) 
0

>  <r_i_glide_metal>  (320) 
-0

>  <r_i_glide_rewards>  (320) 
-1.26503

>  <r_i_glide_evdw>  (320) 
-7.31809

>  <r_i_glide_ecoul>  (320) 
-1.23421

>  <r_i_glide_erotb>  (320) 
0

>  <r_i_glide_esite>  (320) 
0

>  <r_i_glide_emodel>  (320) 
-10.3115

>  <r_i_glide_energy>  (320) 
-8.55229

>  <r_i_glide_einternal>  (320) 
0.277375

>  <r_i_glide_intrahb_reward>  (320) 
-0

>  <i_i_glide_confnum>  (320) 
2

>  <i_i_glide_posenum>  (320) 
1

>  <r_i_glide_eff_state_penalty>  (320) 
0

>  <ligand_id>  (320) 
89

>  <original_smiles>  (320) 
CC1=CCC2C3CC4CC(O)CCC4(C)C3CC3C1C1OC1C23

>  <smiles>  (320) 
[H]OC1([H])C([H])([H])C([H])([H])C2(C([H])([H])[H])C([H])(C1([H])[H])C([H])([H])C1([H])C3([H])C([H])([H])C([H])=C(C([H])([H])[H])C4([H])C5([H])OC5([H])C3([H])C4([H])C([H])([H])C12[H]

$$$$
89:1:0
     RDKit          3D

 53 58  0  0  1  0  0  0  0  0999 V2000
    5.0411   -0.3300    4.8345 C   0  0  0  0  0  0  0  0  0  0  0  0
    4.2794   -1.5590    4.3706 C   0  0  0  0  0  0  0  0  0  0  0  0
    3.1271   -1.4396    3.6775 C   0  0  0  0  0  0  0  0  0  0  0  0
    2.1871   -2.5274    3.1714 C   0  0  0  0  0  0  0  0  0  0  0  0
    2.7679   -3.8200    2.5065 C   0  0  1  0  0  0  0  0  0  0  0  0
    3.3391   -3.7426    1.0466 C   0  0  1  0  0  0  0  0  0  0  0  0
    2.8381   -2.6386    0.1021 C   0  0  0  0  0  0  0  0  0  0  0  0
    4.0741   -1.9650   -0.5183 C   0  0  2  0  0  0  0  0  0  0  0  0
    3.8655   -1.3367   -1.9203 C   0  0  0  0  0  0  0  0  0  0  0  0
    3.7720   -2.3633   -3.0660 C   0  0  1  0  0  0  0  0  0  0  0  0
    3.8102   -1.6998   -4.3135 O   0  0  0  0  0  0  0  0  0  0  0  0
    4.9183   -3.3815   -3.0078 C   0  0  0  0  0  0  0  0  0  0  0  0
    4.9995   -4.0202   -1.6133 C   0  0  0  0  0  0  0  0  0  0  0  0
    5.1813   -3.0261   -0.4451 C   0  0  1  0  0  0  0  0  0  0  0  0
    6.5959   -2.4035   -0.5195 C   0  0  0  0  0  0  0  0  0  0  0  0
    4.8810   -3.7512    0.9028 C   0  0  1  0  0  0  0  0  0  0  0  0
    5.5334   -3.1224    2.1416 C   0  0  0  0  0  0  0  0  0  0  0  0
    5.0989   -3.8119    3.4617 C   0  0  1  0  0  0  0  0  0  0  0  0
    4.9465   -2.8961    4.7092 C   0  0  2  0  0  0  0  0  0  0  0  0
    4.0797   -3.7052    5.6437 C   0  0  2  0  0  0  0  0  0  0  0  0
    4.3614   -5.1152    5.7836 O   0  0  0  0  0  0  0  0  0  0  0  0
    3.3501   -4.7223    4.8395 C   0  0  2  0  0  0  0  0  0  0  0  0
    3.7649   -4.5873    3.3948 C   0  0  1  0  0  0  0  0  0  0  0  0
    5.1567   -0.3349    5.9175 H   0  0  0  0  0  0  0  0  0  0  0  0
    4.5169    0.5837    4.5599 H   0  0  0  0  0  0  0  0  0  0  0  0
    6.0310   -0.2902    4.3816 H   0  0  0  0  0  0  0  0  0  0  0  0
    2.7525   -0.4408    3.5114 H   0  0  0  0  0  0  0  0  0  0  0  0
    1.5879   -2.8169    4.0349 H   0  0  0  0  0  0  0  0  0  0  0  0
    1.4584   -2.0556    2.5167 H   0  0  0  0  0  0  0  0  0  0  0  0
    1.8937   -4.4625    2.4253 H   0  0  0  0  0  0  0  0  0  0  0  0
    3.0187   -4.6769    0.5821 H   0  0  0  0  0  0  0  0  0  0  0  0
    2.2163   -3.0852   -0.6756 H   0  0  0  0  0  0  0  0  0  0  0  0
    2.2299   -1.8759    0.5801 H   0  0  0  0  0  0  0  0  0  0  0  0
    4.3486   -1.1539    0.1583 H   0  0  0  0  0  0  0  0  0  0  0  0
    2.9655   -0.7225   -1.9149 H   0  0  0  0  0  0  0  0  0  0  0  0
    4.6895   -0.6520   -2.1201 H   0  0  0  0  0  0  0  0  0  0  0  0
    2.8243   -2.8959   -2.9978 H   0  0  0  0  0  0  0  0  0  0  0  0
    3.0112   -1.1960   -4.4052 H   0  0  0  0  0  0  0  0  0  0  0  0
    4.7455   -4.1566   -3.7550 H   0  0  0  0  0  0  0  0  0  0  0  0
    5.8664   -2.9156   -3.2751 H   0  0  0  0  0  0  0  0  0  0  0  0
    4.0973   -4.6079   -1.4666 H   0  0  0  0  0  0  0  0  0  0  0  0
    5.8107   -4.7270   -1.5746 H   0  0  0  0  0  0  0  0  0  0  0  0
    7.3712   -3.1600   -0.3873 H   0  0  0  0  0  0  0  0  0  0  0  0
    6.7438   -1.6380    0.2377 H   0  0  0  0  0  0  0  0  0  0  0  0
    6.7698   -1.9282   -1.4811 H   0  0  0  0  0  0  0  0  0  0  0  0
    5.2348   -4.7829    0.8435 H   0  0  0  0  0  0  0  0  0  0  0  0
    6.6157   -3.2082    2.0633 H   0  0  0  0  0  0  0  0  0  0  0  0
    5.3290   -2.0576    2.1424 H   0  0  0  0  0  0  0  0  0  0  0  0
    5.8569   -4.5547    3.7053 H   0  0  0  0  0  0  0  0  0  0  0  0
    5.9139   -2.7193    5.1819 H   0  0  0  0  0  0  0  0  0  0  0  0
    3.6289   -3.2346    6.5183 H   0  0  0  0  0  0  0  0  0  0  0  0
    2.3328   -5.0279    5.0895 H   0  0  0  0  0  0  0  0  0  0  0  0
    3.9293   -5.5861    2.9821 H   0  0  0  0  0  0  0  0  0  0  0  0
  1  2  1  0
  1 24  1  0
  1 25  1  0
  1 26  1  0
  2 19  1  0
  2  3  2  0
  3  4  1  0
  3 27  1  0
  4  5  1  0
  4 28  1  0
  4 29  1  0
  5 23  1  0
  5  6  1  0
  5 30  1  6
  6 16  1  0
  6  7  1  0
  6 31  1  6
  7  8  1  0
  7 32  1  0
  7 33  1  0
  8 14  1  0
  8  9  1  0
  8 34  1  1
  9 10  1  0
  9 35  1  0
  9 36  1  0
 10 11  1  0
 10 12  1  0
 10 37  1  1
 11 38  1  0
 12 13  1  0
 12 39  1  0
 12 40  1  0
 13 14  1  0
 13 41  1  0
 13 42  1  0
 14 15  1  1
 14 16  1  0
 15 43  1  0
 15 44  1  0
 15 45  1  0
 16 17  1  0
 16 46  1  6
 17 18  1  0
 17 47  1  0
 17 48  1  0
 18 23  1  0
 18 19  1  0
 18 49  1  1
 19 20  1  0
 19 50  1  1
 20 22  1  0
 20 21  1  0
 20 51  1  1
 21 22  1  0
 22 23  1  0
 22 52  1  6
 23 53  1  6
M  END
>  <i_m_ct_stereo_status>  (321) 
1

>  <s_m_source_file>  (321) 
/var/tmp/pbs.5076255.sched01/tmp7b2cfgi2/13234zcpj2x.sdf

>  <i_m_source_file_index>  (321) 
5

>  <i_lp_mmshare_version>  (321) 
48012

>  <i_f3d_flags>  (321) 
0

>  <s_epik_input>  (321) 
W0NIMl0xW0NIXT1DKFtDSDNdKVtDQEBIXShbQ0BIXTJbQ0BASF0zTzIpW0NAQEhdKFtDSDJdW0NAQEhdNDUpW0NAQEhdM1tDQEhdMVtDQEhdNFtDSDJdW0NAQEhdKFtDQEBdNTZbQ0gzXSlbQ0gyXVtDQEBIXShbT0hdKVtDSDJdW0NIMl02

>  <s_epik_cmdline>  (321) 
J2VwaWtfcHl0aG9uJywgJy1waHQnLCAnMi4wJywgJy1waCcsICc3LjAnLCAnLXRuJywgJzgnLCAnLW1hJywgJzIwMCcsICctaW1hZScsICc8aW5maWxlLm1hZT4nLCAnLW9tYWUnLCAnPG91dGZpbGUubWFlPic=

>  <r_lp_tautomer_probability>  (321) 
1

>  <r_epik_Ionization_Penalty>  (321) 
3.30248e-06

>  <r_epik_Ionization_Penalty_Charging>  (321) 
0

>  <r_epik_Ionization_Penalty_Neutral>  (321) 
3.30248e-06

>  <r_epik_State_Penalty>  (321) 
-0

>  <r_epik_Charging_Adjusted_Penalty>  (321) 
0

>  <i_epik_Tot_Q>  (321) 
0

>  <i_epik_Tot_abs_Q>  (321) 
0

>  <s_lp_Force_Field>  (321) 
OPLS3e

>  <r_lp_Energy>  (321) 
53.1851

>  <b_lp_Chiralities_Consistent>  (321) 
1

>  <s_lp_Variant>  (321) 
89:0-2

>  <s_i_glide_gridfile>  (321) 
pfpi4k_grid

>  <i_i_glide_lignum>  (321) 
5

>  <i_i_glide_rotatable_bonds>  (321) 
1

>  <r_i_docking_score>  (321) 
-3.86352

>  <r_i_glide_ligand_efficiency>  (321) 
-0.167979

>  <r_i_glide_ligand_efficiency_sa>  (321) 
-0.477711

>  <r_i_glide_ligand_efficiency_ln>  (321) 
-0.934235

>  <r_i_glide_gscore>  (321) 
-3.86352

>  <r_i_glide_lipo>  (321) 
-0.532998

>  <r_i_glide_hbond>  (321) 
-0.32

>  <r_i_glide_metal>  (321) 
-0

>  <r_i_glide_rewards>  (321) 
-1.26503

>  <r_i_glide_evdw>  (321) 
-22.2243

>  <r_i_glide_ecoul>  (321) 
-4.22851

>  <r_i_glide_erotb>  (321) 
0

>  <r_i_glide_esite>  (321) 
0

>  <r_i_glide_emodel>  (321) 
-32.5469

>  <r_i_glide_energy>  (321) 
-26.4528

>  <r_i_glide_einternal>  (321) 
0.379473

>  <r_i_glide_intrahb_reward>  (321) 
-0

>  <i_i_glide_confnum>  (321) 
2

>  <i_i_glide_posenum>  (321) 
34

>  <r_i_glide_eff_state_penalty>  (321) 
0

>  <ligand_id>  (321) 
89

>  <original_smiles>  (321) 
CC1=CCC2C3CC4CC(O)CCC4(C)C3CC3C1C1OC1C23

>  <smiles>  (321) 
[H]OC1([H])C([H])([H])C([H])([H])C2(C([H])([H])[H])C([H])(C1([H])[H])C([H])([H])C1([H])C3([H])C([H])([H])C([H])=C(C([H])([H])[H])C4([H])C5([H])OC5([H])C3([H])C4([H])C([H])([H])C12[H]

$$$$
89:1:1
     RDKit          3D

 53 58  0  0  1  0  0  0  0  0999 V2000
    4.5125   -3.4543   -2.9298 C   0  0  0  0  0  0  0  0  0  0  0  0
    4.5307   -3.1173   -1.4498 C   0  0  0  0  0  0  0  0  0  0  0  0
    3.3821   -2.9515   -0.7560 C   0  0  0  0  0  0  0  0  0  0  0  0
    3.1853   -2.5507    0.7027 C   0  0  0  0  0  0  0  0  0  0  0  0
    4.0800   -3.1816    1.8189 C   0  0  1  0  0  0  0  0  0  0  0  0
    3.8122   -4.6592    2.2677 C   0  0  1  0  0  0  0  0  0  0  0  0
    2.4079   -5.2707    2.0765 C   0  0  0  0  0  0  0  0  0  0  0  0
    2.6167   -6.6330    1.4008 C   0  0  2  0  0  0  0  0  0  0  0  0
    1.5192   -7.6876    1.6773 C   0  0  0  0  0  0  0  0  0  0  0  0
    1.6035   -8.3115    3.0802 C   0  0  1  0  0  0  0  0  0  0  0  0
    0.6916   -9.3871    3.1610 O   0  0  0  0  0  0  0  0  0  0  0  0
    3.0195   -8.8016    3.4134 C   0  0  0  0  0  0  0  0  0  0  0  0
    4.0531   -7.6788    3.2095 C   0  0  0  0  0  0  0  0  0  0  0  0
    4.0460   -7.0746    1.7751 C   0  0  1  0  0  0  0  0  0  0  0  0
    4.6138   -8.1217    0.7837 C   0  0  0  0  0  0  0  0  0  0  0  0
    4.8199   -5.7227    1.7600 C   0  0  1  0  0  0  0  0  0  0  0  0
    5.4106   -5.3094    0.4004 C   0  0  0  0  0  0  0  0  0  0  0  0
    6.0663   -3.9052    0.4417 C   0  0  1  0  0  0  0  0  0  0  0  0
    5.9252   -3.0349   -0.8355 C   0  0  2  0  0  0  0  0  0  0  0  0
    6.1879   -1.6332   -0.3362 C   0  0  2  0  0  0  0  0  0  0  0  0
    7.2975   -1.4436    0.5573 O   0  0  0  0  0  0  0  0  0  0  0  0
    5.9905   -1.6032    1.1320 C   0  0  2  0  0  0  0  0  0  0  0  0
    5.5952   -2.9883    1.5927 C   0  0  1  0  0  0  0  0  0  0  0  0
    5.0394   -2.6969   -3.5089 H   0  0  0  0  0  0  0  0  0  0  0  0
    3.4908   -3.5102   -3.2995 H   0  0  0  0  0  0  0  0  0  0  0  0
    4.9867   -4.4192   -3.1081 H   0  0  0  0  0  0  0  0  0  0  0  0
    2.4572   -3.0175   -1.3046 H   0  0  0  0  0  0  0  0  0  0  0  0
    3.3046   -1.4673    0.7230 H   0  0  0  0  0  0  0  0  0  0  0  0
    2.1330   -2.6789    0.9404 H   0  0  0  0  0  0  0  0  0  0  0  0
    3.8347   -2.5828    2.6955 H   0  0  0  0  0  0  0  0  0  0  0  0
    3.9613   -4.6451    3.3487 H   0  0  0  0  0  0  0  0  0  0  0  0
    1.9356   -5.3883    3.0522 H   0  0  0  0  0  0  0  0  0  0  0  0
    1.7405   -4.6705    1.4684 H   0  0  0  0  0  0  0  0  0  0  0  0
    2.6063   -6.4278    0.3305 H   0  0  0  0  0  0  0  0  0  0  0  0
    0.5326   -7.2483    1.5329 H   0  0  0  0  0  0  0  0  0  0  0  0
    1.6031   -8.4789    0.9350 H   0  0  0  0  0  0  0  0  0  0  0  0
    1.3056   -7.5734    3.8234 H   0  0  0  0  0  0  0  0  0  0  0  0
    0.9497  -10.0556    2.5462 H   0  0  0  0  0  0  0  0  0  0  0  0
    3.0518   -9.1328    4.4512 H   0  0  0  0  0  0  0  0  0  0  0  0
    3.2821   -9.6739    2.8147 H   0  0  0  0  0  0  0  0  0  0  0  0
    3.8439   -6.8998    3.9424 H   0  0  0  0  0  0  0  0  0  0  0  0
    5.0496   -8.0518    3.4516 H   0  0  0  0  0  0  0  0  0  0  0  0
    5.6528   -8.3655    1.0055 H   0  0  0  0  0  0  0  0  0  0  0  0
    4.5704   -7.7720   -0.2456 H   0  0  0  0  0  0  0  0  0  0  0  0
    4.0513   -9.0539    0.8065 H   0  0  0  0  0  0  0  0  0  0  0  0
    5.6594   -5.7878    2.4541 H   0  0  0  0  0  0  0  0  0  0  0  0
    6.1778   -6.0200    0.1015 H   0  0  0  0  0  0  0  0  0  0  0  0
    4.6360   -5.3813   -0.3587 H   0  0  0  0  0  0  0  0  0  0  0  0
    7.1339   -4.0574    0.6070 H   0  0  0  0  0  0  0  0  0  0  0  0
    6.6782   -3.3031   -1.5784 H   0  0  0  0  0  0  0  0  0  0  0  0
    5.9081   -0.7763   -0.9502 H   0  0  0  0  0  0  0  0  0  0  0  0
    5.5753   -0.7263    1.6297 H   0  0  0  0  0  0  0  0  0  0  0  0
    6.1344   -3.2178    2.5108 H   0  0  0  0  0  0  0  0  0  0  0  0
  1  2  1  0
  1 24  1  0
  1 25  1  0
  1 26  1  0
  2 19  1  0
  2  3  2  0
  3  4  1  0
  3 27  1  0
  4  5  1  0
  4 28  1  0
  4 29  1  0
  5 23  1  0
  5  6  1  0
  5 30  1  1
  6 16  1  0
  6  7  1  0
  6 31  1  1
  7  8  1  0
  7 32  1  0
  7 33  1  0
  8 14  1  0
  8  9  1  0
  8 34  1  6
  9 10  1  0
  9 35  1  0
  9 36  1  0
 10 11  1  0
 10 12  1  0
 10 37  1  1
 11 38  1  0
 12 13  1  0
 12 39  1  0
 12 40  1  0
 13 14  1  0
 13 41  1  0
 13 42  1  0
 14 15  1  6
 14 16  1  0
 15 43  1  0
 15 44  1  0
 15 45  1  0
 16 17  1  0
 16 46  1  1
 17 18  1  0
 17 47  1  0
 17 48  1  0
 18 23  1  0
 18 19  1  0
 18 49  1  1
 19 20  1  0
 19 50  1  6
 20 22  1  0
 20 21  1  0
 20 51  1  6
 21 22  1  0
 22 23  1  0
 22 52  1  6
 23 53  1  1
M  END
>  <i_m_ct_stereo_status>  (322) 
1

>  <s_m_source_file>  (322) 
/var/tmp/pbs.5076255.sched01/tmp7b2cfgi2/13234zcpj2x.sdf

>  <i_m_source_file_index>  (322) 
5

>  <i_lp_mmshare_version>  (322) 
48012

>  <i_f3d_flags>  (322) 
0

>  <s_epik_input>  (322) 
W0NIMl0xW0NIXT1DKFtDSDNdKVtDQEBIXShbQ0BIXTJbQ0BASF0zTzIpW0NAQEhdKFtDSDJdW0NAQEhdNDUpW0NAQEhdM1tDQEhdMVtDQEhdNFtDSDJdW0NAQEhdKFtDQEBdNTZbQ0gzXSlbQ0gyXVtDQEBIXShbT0hdKVtDSDJdW0NIMl02

>  <s_epik_cmdline>  (322) 
J2VwaWtfcHl0aG9uJywgJy1waHQnLCAnMi4wJywgJy1waCcsICc3LjAnLCAnLXRuJywgJzgnLCAnLW1hJywgJzIwMCcsICctaW1hZScsICc8aW5maWxlLm1hZT4nLCAnLW9tYWUnLCAnPG91dGZpbGUubWFlPic=

>  <r_lp_tautomer_probability>  (322) 
1

>  <r_epik_Ionization_Penalty>  (322) 
3.30248e-06

>  <r_epik_Ionization_Penalty_Charging>  (322) 
0

>  <r_epik_Ionization_Penalty_Neutral>  (322) 
3.30248e-06

>  <r_epik_State_Penalty>  (322) 
-0

>  <r_epik_Charging_Adjusted_Penalty>  (322) 
0

>  <i_epik_Tot_Q>  (322) 
0

>  <i_epik_Tot_abs_Q>  (322) 
0

>  <s_lp_Force_Field>  (322) 
OPLS3e

>  <r_lp_Energy>  (322) 
53.1851

>  <b_lp_Chiralities_Consistent>  (322) 
1

>  <s_lp_Variant>  (322) 
89:0-2

>  <s_i_glide_gridfile>  (322) 
pfpi4k_grid

>  <i_i_glide_lignum>  (322) 
5

>  <i_i_glide_rotatable_bonds>  (322) 
1

>  <r_i_docking_score>  (322) 
-3.30693

>  <r_i_glide_ligand_efficiency>  (322) 
-0.14378

>  <r_i_glide_ligand_efficiency_sa>  (322) 
-0.40889

>  <r_i_glide_ligand_efficiency_ln>  (322) 
-0.799645

>  <r_i_glide_gscore>  (322) 
-3.30693

>  <r_i_glide_lipo>  (322) 
-0.595436

>  <r_i_glide_hbond>  (322) 
-0.00320076

>  <r_i_glide_metal>  (322) 
-0

>  <r_i_glide_rewards>  (322) 
-1.26503

>  <r_i_glide_evdw>  (322) 
-27.6543

>  <r_i_glide_ecoul>  (322) 
-0.403625

>  <r_i_glide_erotb>  (322) 
0

>  <r_i_glide_esite>  (322) 
0

>  <r_i_glide_emodel>  (322) 
-33.5063

>  <r_i_glide_energy>  (322) 
-28.0579

>  <r_i_glide_einternal>  (322) 
2.26629e-05

>  <r_i_glide_intrahb_reward>  (322) 
-0

>  <i_i_glide_confnum>  (322) 
2

>  <i_i_glide_posenum>  (322) 
1

>  <r_i_glide_eff_state_penalty>  (322) 
0

>  <ligand_id>  (322) 
89

>  <original_smiles>  (322) 
CC1=CCC2C3CC4CC(O)CCC4(C)C3CC3C1C1OC1C23

>  <smiles>  (322) 
[H]OC1([H])C([H])([H])C([H])([H])C2(C([H])([H])[H])C([H])(C1([H])[H])C([H])([H])C1([H])C3([H])C([H])([H])C([H])=C(C([H])([H])[H])C4([H])C5([H])OC5([H])C3([H])C4([H])C([H])([H])C12[H]

$$$$
89:1:2
     RDKit          3D

 53 58  0  0  1  0  0  0  0  0999 V2000
    4.4453   -3.4477   -2.8794 C   0  0  0  0  0  0  0  0  0  0  0  0
    4.4951   -3.1009   -1.4026 C   0  0  0  0  0  0  0  0  0  0  0  0
    3.3613   -2.9132   -0.6908 C   0  0  0  0  0  0  0  0  0  0  0  0
    3.1937   -2.4975    0.7682 C   0  0  0  0  0  0  0  0  0  0  0  0
    4.0993   -3.1317    1.8734 C   0  0  1  0  0  0  0  0  0  0  0  0
    3.8213   -4.6042    2.3376 C   0  0  1  0  0  0  0  0  0  0  0  0
    2.4065   -5.1970    2.1759 C   0  0  0  0  0  0  0  0  0  0  0  0
    2.5850   -6.5683    1.5085 C   0  0  2  0  0  0  0  0  0  0  0  0
    1.4797   -7.6051    1.8194 C   0  0  0  0  0  0  0  0  0  0  0  0
    1.5823   -8.2179    3.2266 C   0  0  1  0  0  0  0  0  0  0  0  0
    0.6724   -9.2969    3.3168 O   0  0  0  0  0  0  0  0  0  0  0  0
    2.9989   -8.7220    3.5351 C   0  0  0  0  0  0  0  0  0  0  0  0
    4.0420   -7.6150    3.3013 C   0  0  0  0  0  0  0  0  0  0  0  0
    4.0157   -7.0245    1.8631 C   0  0  1  0  0  0  0  0  0  0  0  0
    4.5498   -8.0868    0.8708 C   0  0  0  0  0  0  0  0  0  0  0  0
    4.8075   -5.6844    1.8221 C   0  0  1  0  0  0  0  0  0  0  0  0
    5.3799   -5.2878    0.4485 C   0  0  0  0  0  0  0  0  0  0  0  0
    6.0544   -3.8897    0.4681 C   0  0  1  0  0  0  0  0  0  0  0  0
    5.9015   -3.0283   -0.8129 C   0  0  2  0  0  0  0  0  0  0  0  0
    6.1890   -1.6257   -0.3306 C   0  0  2  0  0  0  0  0  0  0  0  0
    7.3177   -1.4450    0.5432 O   0  0  0  0  0  0  0  0  0  0  0  0
    6.0164   -1.5821    1.1424 C   0  0  2  0  0  0  0  0  0  0  0  0
    5.6142   -2.9583    1.6197 C   0  0  1  0  0  0  0  0  0  0  0  0
    4.9705   -2.7033   -3.4738 H   0  0  0  0  0  0  0  0  0  0  0  0
    3.4164   -3.4967   -3.2295 H   0  0  0  0  0  0  0  0  0  0  0  0
    4.9025   -4.4198   -3.0559 H   0  0  0  0  0  0  0  0  0  0  0  0
    2.4263   -2.9726   -1.2231 H   0  0  0  0  0  0  0  0  0  0  0  0
    3.3253   -1.4154    0.7762 H   0  0  0  0  0  0  0  0  0  0  0  0
    2.1444   -2.6117    1.0246 H   0  0  0  0  0  0  0  0  0  0  0  0
    3.8753   -2.5225    2.7498 H   0  0  0  0  0  0  0  0  0  0  0  0
    3.9887   -4.5817    3.4160 H   0  0  0  0  0  0  0  0  0  0  0  0
    1.9511   -5.3024    3.1596 H   0  0  0  0  0  0  0  0  0  0  0  0
    1.7349   -4.5945    1.5770 H   0  0  0  0  0  0  0  0  0  0  0  0
    2.5566   -6.3816    0.4346 H   0  0  0  0  0  0  0  0  0  0  0  0
    0.4962   -7.1544    1.6860 H   0  0  0  0  0  0  0  0  0  0  0  0
    1.5347   -8.4079    1.0836 H   0  0  0  0  0  0  0  0  0  0  0  0
    1.3026   -7.4723    3.9704 H   0  0  0  0  0  0  0  0  0  0  0  0
    0.7793   -9.7318    4.1463 H   0  0  0  0  0  0  0  0  0  0  0  0
    3.0500   -9.0474    4.5738 H   0  0  0  0  0  0  0  0  0  0  0  0
    3.2322   -9.6017    2.9345 H   0  0  0  0  0  0  0  0  0  0  0  0
    3.8554   -6.8272    4.0319 H   0  0  0  0  0  0  0  0  0  0  0  0
    5.0370   -8.0018    3.5286 H   0  0  0  0  0  0  0  0  0  0  0  0
    5.5902   -8.3421    1.0753 H   0  0  0  0  0  0  0  0  0  0  0  0
    4.4911   -7.7447   -0.1617 H   0  0  0  0  0  0  0  0  0  0  0  0
    3.9744   -9.0101    0.9112 H   0  0  0  0  0  0  0  0  0  0  0  0
    5.6575   -5.7542    2.5041 H   0  0  0  0  0  0  0  0  0  0  0  0
    6.1311   -6.0099    0.1343 H   0  0  0  0  0  0  0  0  0  0  0  0
    4.5882   -5.3536   -0.2933 H   0  0  0  0  0  0  0  0  0  0  0  0
    7.1224   -4.0542    0.6171 H   0  0  0  0  0  0  0  0  0  0  0  0
    6.6377   -3.3120   -1.5656 H   0  0  0  0  0  0  0  0  0  0  0  0
    5.9119   -0.7707   -0.9479 H   0  0  0  0  0  0  0  0  0  0  0  0
    5.6220   -0.6965    1.6399 H   0  0  0  0  0  0  0  0  0  0  0  0
    6.1642   -3.1879    2.5298 H   0  0  0  0  0  0  0  0  0  0  0  0
  1  2  1  0
  1 24  1  0
  1 25  1  0
  1 26  1  0
  2 19  1  0
  2  3  2  0
  3  4  1  0
  3 27  1  0
  4  5  1  0
  4 28  1  0
  4 29  1  0
  5 23  1  0
  5  6  1  0
  5 30  1  1
  6 16  1  0
  6  7  1  0
  6 31  1  1
  7  8  1  0
  7 32  1  0
  7 33  1  0
  8 14  1  0
  8  9  1  0
  8 34  1  6
  9 10  1  0
  9 35  1  0
  9 36  1  0
 10 11  1  0
 10 12  1  0
 10 37  1  1
 11 38  1  0
 12 13  1  0
 12 39  1  0
 12 40  1  0
 13 14  1  0
 13 41  1  0
 13 42  1  0
 14 15  1  6
 14 16  1  0
 15 43  1  0
 15 44  1  0
 15 45  1  0
 16 17  1  0
 16 46  1  1
 17 18  1  0
 17 47  1  0
 17 48  1  0
 18 23  1  0
 18 19  1  0
 18 49  1  1
 19 20  1  0
 19 50  1  6
 20 22  1  0
 20 21  1  0
 20 51  1  6
 21 22  1  0
 22 23  1  0
 22 52  1  6
 23 53  1  1
M  END
>  <i_m_ct_stereo_status>  (323) 
1

>  <s_m_source_file>  (323) 
/var/tmp/pbs.5076255.sched01/tmp7b2cfgi2/13234zcpj2x.sdf

>  <i_m_source_file_index>  (323) 
5

>  <i_lp_mmshare_version>  (323) 
48012

>  <i_f3d_flags>  (323) 
0

>  <s_epik_input>  (323) 
W0NIMl0xW0NIXT1DKFtDSDNdKVtDQEBIXShbQ0BIXTJbQ0BASF0zTzIpW0NAQEhdKFtDSDJdW0NAQEhdNDUpW0NAQEhdM1tDQEhdMVtDQEhdNFtDSDJdW0NAQEhdKFtDQEBdNTZbQ0gzXSlbQ0gyXVtDQEBIXShbT0hdKVtDSDJdW0NIMl02

>  <s_epik_cmdline>  (323) 
J2VwaWtfcHl0aG9uJywgJy1waHQnLCAnMi4wJywgJy1waCcsICc3LjAnLCAnLXRuJywgJzgnLCAnLW1hJywgJzIwMCcsICctaW1hZScsICc8aW5maWxlLm1hZT4nLCAnLW9tYWUnLCAnPG91dGZpbGUubWFlPic=

>  <r_lp_tautomer_probability>  (323) 
1

>  <r_epik_Ionization_Penalty>  (323) 
3.30248e-06

>  <r_epik_Ionization_Penalty_Charging>  (323) 
0

>  <r_epik_Ionization_Penalty_Neutral>  (323) 
3.30248e-06

>  <r_epik_State_Penalty>  (323) 
-0

>  <r_epik_Charging_Adjusted_Penalty>  (323) 
0

>  <i_epik_Tot_Q>  (323) 
0

>  <i_epik_Tot_abs_Q>  (323) 
0

>  <s_lp_Force_Field>  (323) 
OPLS3e

>  <r_lp_Energy>  (323) 
53.1851

>  <b_lp_Chiralities_Consistent>  (323) 
1

>  <s_lp_Variant>  (323) 
89:0-2

>  <s_i_glide_gridfile>  (323) 
pfpi4k_grid

>  <i_i_glide_lignum>  (323) 
5

>  <i_i_glide_rotatable_bonds>  (323) 
1

>  <r_i_docking_score>  (323) 
-3.21896

>  <r_i_glide_ligand_efficiency>  (323) 
-0.139955

>  <r_i_glide_ligand_efficiency_sa>  (323) 
-0.398013

>  <r_i_glide_ligand_efficiency_ln>  (323) 
-0.778374

>  <r_i_glide_gscore>  (323) 
-3.21896

>  <r_i_glide_lipo>  (323) 
-0.558413

>  <r_i_glide_hbond>  (323) 
-0.00658259

>  <r_i_glide_metal>  (323) 
-0

>  <r_i_glide_rewards>  (323) 
-1.26503

>  <r_i_glide_evdw>  (323) 
-27.2991

>  <r_i_glide_ecoul>  (323) 
-0.159824

>  <r_i_glide_erotb>  (323) 
0

>  <r_i_glide_esite>  (323) 
0

>  <r_i_glide_emodel>  (323) 
-32.5487

>  <r_i_glide_energy>  (323) 
-27.459

>  <r_i_glide_einternal>  (323) 
0.400745

>  <r_i_glide_intrahb_reward>  (323) 
-0

>  <i_i_glide_confnum>  (323) 
1

>  <i_i_glide_posenum>  (323) 
8

>  <r_i_glide_eff_state_penalty>  (323) 
0

>  <ligand_id>  (323) 
89

>  <original_smiles>  (323) 
CC1=CCC2C3CC4CC(O)CCC4(C)C3CC3C1C1OC1C23

>  <smiles>  (323) 
[H]OC1([H])C([H])([H])C([H])([H])C2(C([H])([H])[H])C([H])(C1([H])[H])C([H])([H])C1([H])C3([H])C([H])([H])C([H])=C(C([H])([H])[H])C4([H])C5([H])OC5([H])C3([H])C4([H])C([H])([H])C12[H]

$$$$
89:2:0
     RDKit          3D

 53 58  0  0  1  0  0  0  0  0999 V2000
    3.1929    0.6907    5.3045 C   0  0  0  0  0  0  0  0  0  0  0  0
    3.1199   -0.6515    4.5959 C   0  0  0  0  0  0  0  0  0  0  0  0
    1.9409   -1.0250    3.9893 C   0  0  0  0  0  0  0  0  0  0  0  0
    1.4748   -2.3019    3.2156 C   0  0  0  0  0  0  0  0  0  0  0  0
    2.6111   -3.2013    2.6639 C   0  0  2  0  0  0  0  0  0  0  0  0
    3.2312   -3.6955    1.3019 C   0  0  1  0  0  0  0  0  0  0  0  0
    2.6490   -3.1255   -0.0049 C   0  0  0  0  0  0  0  0  0  0  0  0
    3.6848   -2.1091   -0.5084 C   0  0  2  0  0  0  0  0  0  0  0  0
    3.5079   -1.6460   -1.9764 C   0  0  0  0  0  0  0  0  0  0  0  0
    3.8948   -2.7007   -3.0178 C   0  0  1  0  0  0  0  0  0  0  0  0
    3.8743   -2.1054   -4.3053 O   0  0  0  0  0  0  0  0  0  0  0  0
    5.2761   -3.3001   -2.7296 C   0  0  0  0  0  0  0  0  0  0  0  0
    5.3729   -3.8152   -1.2809 C   0  0  0  0  0  0  0  0  0  0  0  0
    5.0501   -2.7422   -0.1964 C   0  0  1  0  0  0  0  0  0  0  0  0
    6.1557   -1.6686   -0.1924 C   0  0  0  0  0  0  0  0  0  0  0  0
    4.8273   -3.4511    1.1813 C   0  0  1  0  0  0  0  0  0  0  0  0
    5.6153   -2.8844    2.4699 C   0  0  0  0  0  0  0  0  0  0  0  0
    4.5743   -2.3011    3.4084 C   0  0  2  0  0  0  0  0  0  0  0  0
    4.4469   -1.4693    4.7037 C   0  0  2  0  0  0  0  0  0  0  0  0
    4.1547   -2.4351    5.8282 C   0  0  2  0  0  0  0  0  0  0  0  0
    4.7246   -3.7469    5.8584 O   0  0  0  0  0  0  0  0  0  0  0  0
    3.4787   -3.5759    5.1579 C   0  0  2  0  0  0  0  0  0  0  0  0
    3.6759   -3.5001    3.6679 C   0  0  1  0  0  0  0  0  0  0  0  0
    3.4617    0.5636    6.3530 H   0  0  0  0  0  0  0  0  0  0  0  0
    2.2361    1.2105    5.2734 H   0  0  0  0  0  0  0  0  0  0  0  0
    3.9371    1.3345    4.8344 H   0  0  0  0  0  0  0  0  0  0  0  0
    1.1254   -0.3238    4.0768 H   0  0  0  0  0  0  0  0  0  0  0  0
    0.8641   -2.8902    3.8974 H   0  0  0  0  0  0  0  0  0  0  0  0
    0.7928   -1.9892    2.4244 H   0  0  0  0  0  0  0  0  0  0  0  0
    2.7408   -2.2634    2.1382 H   0  0  0  0  0  0  0  0  0  0  0  0
    3.0615   -4.7718    1.2810 H   0  0  0  0  0  0  0  0  0  0  0  0
    2.5099   -3.9276   -0.7329 H   0  0  0  0  0  0  0  0  0  0  0  0
    1.6870   -2.6572    0.1592 H   0  0  0  0  0  0  0  0  0  0  0  0
    3.5762   -1.2225    0.1207 H   0  0  0  0  0  0  0  0  0  0  0  0
    2.4787   -1.3556   -2.1627 H   0  0  0  0  0  0  0  0  0  0  0  0
    4.0983   -0.7426   -2.1330 H   0  0  0  0  0  0  0  0  0  0  0  0
    3.1557   -3.5013   -3.0152 H   0  0  0  0  0  0  0  0  0  0  0  0
    2.9986   -1.7800   -4.4683 H   0  0  0  0  0  0  0  0  0  0  0  0
    5.4561   -4.1216   -3.4236 H   0  0  0  0  0  0  0  0  0  0  0  0
    6.0616   -2.5708   -2.9166 H   0  0  0  0  0  0  0  0  0  0  0  0
    4.6868   -4.6587   -1.1867 H   0  0  0  0  0  0  0  0  0  0  0  0
    6.3652   -4.2261   -1.1045 H   0  0  0  0  0  0  0  0  0  0  0  0
    7.1343   -2.0963    0.0252 H   0  0  0  0  0  0  0  0  0  0  0  0
    5.9540   -0.8821    0.5346 H   0  0  0  0  0  0  0  0  0  0  0  0
    6.2135   -1.1761   -1.1583 H   0  0  0  0  0  0  0  0  0  0  0  0
    5.2529   -4.4473    1.0753 H   0  0  0  0  0  0  0  0  0  0  0  0
    6.1221   -3.7218    2.9535 H   0  0  0  0  0  0  0  0  0  0  0  0
    6.3901   -2.1508    2.2567 H   0  0  0  0  0  0  0  0  0  0  0  0
    4.3369   -1.4749    2.7287 H   0  0  0  0  0  0  0  0  0  0  0  0
    5.3159   -0.8401    4.9125 H   0  0  0  0  0  0  0  0  0  0  0  0
    3.8044   -2.0488    6.7882 H   0  0  0  0  0  0  0  0  0  0  0  0
    2.6071   -4.0758    5.5789 H   0  0  0  0  0  0  0  0  0  0  0  0
    4.1183   -4.4709    3.4268 H   0  0  0  0  0  0  0  0  0  0  0  0
  1  2  1  0
  1 24  1  0
  1 25  1  0
  1 26  1  0
  2 19  1  0
  2  3  2  0
  3  4  1  0
  3 27  1  0
  4  5  1  0
  4 28  1  0
  4 29  1  0
  5 23  1  0
  5  6  1  0
  5 30  1  1
  6 16  1  0
  6  7  1  0
  6 31  1  6
  7  8  1  0
  7 32  1  0
  7 33  1  0
  8 14  1  0
  8  9  1  0
  8 34  1  1
  9 10  1  0
  9 35  1  0
  9 36  1  0
 10 11  1  0
 10 12  1  0
 10 37  1  6
 11 38  1  0
 12 13  1  0
 12 39  1  0
 12 40  1  0
 13 14  1  0
 13 41  1  0
 13 42  1  0
 14 15  1  1
 14 16  1  0
 15 43  1  0
 15 44  1  0
 15 45  1  0
 16 17  1  0
 16 46  1  6
 17 18  1  0
 17 47  1  0
 17 48  1  0
 18 23  1  0
 18 19  1  0
 18 49  1  6
 19 20  1  0
 19 50  1  1
 20 22  1  0
 20 21  1  0
 20 51  1  1
 21 22  1  0
 22 23  1  0
 22 52  1  6
 23 53  1  6
M  END
>  <i_m_ct_stereo_status>  (324) 
1

>  <s_m_source_file>  (324) 
/var/tmp/pbs.5076255.sched01/tmp7b2cfgi2/13234zcpj2x.sdf

>  <i_m_source_file_index>  (324) 
6

>  <i_lp_mmshare_version>  (324) 
48012

>  <i_f3d_flags>  (324) 
0

>  <s_epik_input>  (324) 
W0NIMl0xW0NIXT1DKFtDSDNdKVtDQEBIXShbQ0BIXTJbQ0BASF0zTzIpW0NAQEhdKFtDSDJdW0NAQEhdNDUpW0NAQEhdM1tDQEhdMVtDQEhdNFtDSDJdW0NAQEhdKFtDQEBdNTZbQ0gzXSlbQ0gyXVtDQEBIXShbT0hdKVtDSDJdW0NIMl02

>  <s_epik_cmdline>  (324) 
J2VwaWtfcHl0aG9uJywgJy1waHQnLCAnMi4wJywgJy1waCcsICc3LjAnLCAnLXRuJywgJzgnLCAnLW1hJywgJzIwMCcsICctaW1hZScsICc8aW5maWxlLm1hZT4nLCAnLW9tYWUnLCAnPG91dGZpbGUubWFlPic=

>  <r_lp_tautomer_probability>  (324) 
1

>  <r_epik_Ionization_Penalty>  (324) 
3.30248e-06

>  <r_epik_Ionization_Penalty_Charging>  (324) 
0

>  <r_epik_Ionization_Penalty_Neutral>  (324) 
3.30248e-06

>  <r_epik_State_Penalty>  (324) 
-0

>  <r_epik_Charging_Adjusted_Penalty>  (324) 
0

>  <i_epik_Tot_Q>  (324) 
0

>  <i_epik_Tot_abs_Q>  (324) 
0

>  <s_lp_Force_Field>  (324) 
OPLS3e

>  <r_lp_Energy>  (324) 
147.169

>  <b_lp_Chiralities_Consistent>  (324) 
1

>  <s_lp_Variant>  (324) 
89:0-3

>  <s_i_glide_gridfile>  (324) 
pfpi4k_grid

>  <i_i_glide_lignum>  (324) 
6

>  <i_i_glide_rotatable_bonds>  (324) 
1

>  <r_i_docking_score>  (324) 
-3.82376

>  <r_i_glide_ligand_efficiency>  (324) 
-0.16625

>  <r_i_glide_ligand_efficiency_sa>  (324) 
-0.472794

>  <r_i_glide_ligand_efficiency_ln>  (324) 
-0.924619

>  <r_i_glide_gscore>  (324) 
-3.82376

>  <r_i_glide_lipo>  (324) 
-0.485204

>  <r_i_glide_hbond>  (324) 
-0.32

>  <r_i_glide_metal>  (324) 
-0

>  <r_i_glide_rewards>  (324) 
-1.26503

>  <r_i_glide_evdw>  (324) 
-20.4436

>  <r_i_glide_ecoul>  (324) 
-4.87559

>  <r_i_glide_erotb>  (324) 
0

>  <r_i_glide_esite>  (324) 
0

>  <r_i_glide_emodel>  (324) 
-30.7633

>  <r_i_glide_energy>  (324) 
-25.3192

>  <r_i_glide_einternal>  (324) 
0.324631

>  <r_i_glide_intrahb_reward>  (324) 
-0

>  <i_i_glide_confnum>  (324) 
2

>  <i_i_glide_posenum>  (324) 
13

>  <r_i_glide_eff_state_penalty>  (324) 
0

>  <ligand_id>  (324) 
89

>  <original_smiles>  (324) 
CC1=CCC2C3CC4CC(O)CCC4(C)C3CC3C1C1OC1C23

>  <smiles>  (324) 
[H]OC1([H])C([H])([H])C([H])([H])C2(C([H])([H])[H])C([H])(C1([H])[H])C([H])([H])C1([H])C3([H])C([H])([H])C([H])=C(C([H])([H])[H])C4([H])C5([H])OC5([H])C3([H])C4([H])C([H])([H])C12[H]

$$$$
89:2:1
     RDKit          3D

 53 58  0  0  1  0  0  0  0  0999 V2000
    5.6736   -3.9495    6.0078 C   0  0  0  0  0  0  0  0  0  0  0  0
    4.9256   -4.4728    4.7915 C   0  0  0  0  0  0  0  0  0  0  0  0
    3.6365   -4.0388    4.5617 C   0  0  0  0  0  0  0  0  0  0  0  0
    2.5583   -4.3642    3.4722 C   0  0  0  0  0  0  0  0  0  0  0  0
    3.1006   -5.0050    2.1712 C   0  0  2  0  0  0  0  0  0  0  0  0
    3.2634   -4.6900    0.6354 C   0  0  1  0  0  0  0  0  0  0  0  0
    2.8289   -3.2924    0.1492 C   0  0  0  0  0  0  0  0  0  0  0  0
    4.1418   -2.5410   -0.1046 C   0  0  2  0  0  0  0  0  0  0  0  0
    3.9918   -1.2457   -0.9358 C   0  0  0  0  0  0  0  0  0  0  0  0
    3.7373   -1.4902   -2.4360 C   0  0  1  0  0  0  0  0  0  0  0  0
    3.8596   -0.2743   -3.1495 O   0  0  0  0  0  0  0  0  0  0  0  0
    4.7373   -2.4931   -3.0248 C   0  0  0  0  0  0  0  0  0  0  0  0
    4.7846   -3.7862   -2.2106 C   0  0  0  0  0  0  0  0  0  0  0  0
    5.1168   -3.5811   -0.7027 C   0  0  1  0  0  0  0  0  0  0  0  0
    6.5801   -3.1056   -0.5558 C   0  0  0  0  0  0  0  0  0  0  0  0
    4.7782   -4.8937    0.0841 C   0  0  1  0  0  0  0  0  0  0  0  0
    5.8981   -5.5124    1.0788 C   0  0  0  0  0  0  0  0  0  0  0  0
    5.3403   -5.3609    2.4885 C   0  0  2  0  0  0  0  0  0  0  0  0
    5.7507   -5.5182    3.9688 C   0  0  2  0  0  0  0  0  0  0  0  0
    5.1989   -6.8373    4.4496 C   0  0  2  0  0  0  0  0  0  0  0  0
    5.1256   -7.9766    3.5874 O   0  0  0  0  0  0  0  0  0  0  0  0
    4.0107   -7.0691    3.5905 C   0  0  2  0  0  0  0  0  0  0  0  0
    4.0395   -6.1452    2.4027 C   0  0  1  0  0  0  0  0  0  0  0  0
    5.9850   -4.7675    6.6556 H   0  0  0  0  0  0  0  0  0  0  0  0
    5.0550   -3.2794    6.6013 H   0  0  0  0  0  0  0  0  0  0  0  0
    6.5605   -3.3989    5.7009 H   0  0  0  0  0  0  0  0  0  0  0  0
    3.2374   -3.3549    5.2915 H   0  0  0  0  0  0  0  0  0  0  0  0
    1.8431   -5.0478    3.9269 H   0  0  0  0  0  0  0  0  0  0  0  0
    1.9857   -3.4574    3.2642 H   0  0  0  0  0  0  0  0  0  0  0  0
    3.5737   -4.0301    2.2013 H   0  0  0  0  0  0  0  0  0  0  0  0
    2.6316   -5.4164    0.1242 H   0  0  0  0  0  0  0  0  0  0  0  0
    2.2645   -3.3911   -0.7783 H   0  0  0  0  0  0  0  0  0  0  0  0
    2.1925   -2.7614    0.8586 H   0  0  0  0  0  0  0  0  0  0  0  0
    4.5262   -2.2524    0.8759 H   0  0  0  0  0  0  0  0  0  0  0  0
    3.1800   -0.6604   -0.5170 H   0  0  0  0  0  0  0  0  0  0  0  0
    4.8939   -0.6455   -0.8139 H   0  0  0  0  0  0  0  0  0  0  0  0
    2.7217   -1.8694   -2.5744 H   0  0  0  0  0  0  0  0  0  0  0  0
    3.1673    0.3132   -2.8789 H   0  0  0  0  0  0  0  0  0  0  0  0
    4.4657   -2.7122   -4.0568 H   0  0  0  0  0  0  0  0  0  0  0  0
    5.7371   -2.0748   -3.0576 H   0  0  0  0  0  0  0  0  0  0  0  0
    3.8123   -4.2584   -2.3091 H   0  0  0  0  0  0  0  0  0  0  0  0
    5.4899   -4.4702   -2.6754 H   0  0  0  0  0  0  0  0  0  0  0  0
    7.2805   -3.8368   -0.9595 H   0  0  0  0  0  0  0  0  0  0  0  0
    6.8393   -2.9194    0.4866 H   0  0  0  0  0  0  0  0  0  0  0  0
    6.7555   -2.1710   -1.0830 H   0  0  0  0  0  0  0  0  0  0  0  0
    4.6943   -5.6755   -0.6719 H   0  0  0  0  0  0  0  0  0  0  0  0
    6.0454   -6.5724    0.8623 H   0  0  0  0  0  0  0  0  0  0  0  0
    6.8866   -5.0651    1.0074 H   0  0  0  0  0  0  0  0  0  0  0  0
    5.4137   -4.2682    2.4692 H   0  0  0  0  0  0  0  0  0  0  0  0
    6.8269   -5.4388    4.1402 H   0  0  0  0  0  0  0  0  0  0  0  0
    5.1862   -7.0591    5.5188 H   0  0  0  0  0  0  0  0  0  0  0  0
    3.0683   -7.4515    3.9771 H   0  0  0  0  0  0  0  0  0  0  0  0
    3.9694   -6.8281    1.5548 H   0  0  0  0  0  0  0  0  0  0  0  0
  1  2  1  0
  1 24  1  0
  1 25  1  0
  1 26  1  0
  2 19  1  0
  2  3  2  0
  3  4  1  0
  3 27  1  0
  4  5  1  0
  4 28  1  0
  4 29  1  0
  5 23  1  0
  5  6  1  0
  5 30  1  6
  6 16  1  0
  6  7  1  0
  6 31  1  6
  7  8  1  0
  7 32  1  0
  7 33  1  0
  8 14  1  0
  8  9  1  0
  8 34  1  1
  9 10  1  0
  9 35  1  0
  9 36  1  0
 10 11  1  0
 10 12  1  0
 10 37  1  1
 11 38  1  0
 12 13  1  0
 12 39  1  0
 12 40  1  0
 13 14  1  0
 13 41  1  0
 13 42  1  0
 14 15  1  6
 14 16  1  0
 15 43  1  0
 15 44  1  0
 15 45  1  0
 16 17  1  0
 16 46  1  6
 17 18  1  0
 17 47  1  0
 17 48  1  0
 18 23  1  0
 18 19  1  0
 18 49  1  1
 19 20  1  0
 19 50  1  6
 20 22  1  0
 20 21  1  0
 20 51  1  1
 21 22  1  0
 22 23  1  0
 22 52  1  1
 23 53  1  6
M  END
>  <i_m_ct_stereo_status>  (325) 
1

>  <s_m_source_file>  (325) 
/var/tmp/pbs.5076255.sched01/tmp7b2cfgi2/13234zcpj2x.sdf

>  <i_m_source_file_index>  (325) 
6

>  <i_lp_mmshare_version>  (325) 
48012

>  <i_f3d_flags>  (325) 
0

>  <s_epik_input>  (325) 
W0NIMl0xW0NIXT1DKFtDSDNdKVtDQEBIXShbQ0BIXTJbQ0BASF0zTzIpW0NAQEhdKFtDSDJdW0NAQEhdNDUpW0NAQEhdM1tDQEhdMVtDQEhdNFtDSDJdW0NAQEhdKFtDQEBdNTZbQ0gzXSlbQ0gyXVtDQEBIXShbT0hdKVtDSDJdW0NIMl02

>  <s_epik_cmdline>  (325) 
J2VwaWtfcHl0aG9uJywgJy1waHQnLCAnMi4wJywgJy1waCcsICc3LjAnLCAnLXRuJywgJzgnLCAnLW1hJywgJzIwMCcsICctaW1hZScsICc8aW5maWxlLm1hZT4nLCAnLW9tYWUnLCAnPG91dGZpbGUubWFlPic=

>  <r_lp_tautomer_probability>  (325) 
1

>  <r_epik_Ionization_Penalty>  (325) 
3.30248e-06

>  <r_epik_Ionization_Penalty_Charging>  (325) 
0

>  <r_epik_Ionization_Penalty_Neutral>  (325) 
3.30248e-06

>  <r_epik_State_Penalty>  (325) 
-0

>  <r_epik_Charging_Adjusted_Penalty>  (325) 
0

>  <i_epik_Tot_Q>  (325) 
0

>  <i_epik_Tot_abs_Q>  (325) 
0

>  <s_lp_Force_Field>  (325) 
OPLS3e

>  <r_lp_Energy>  (325) 
147.169

>  <b_lp_Chiralities_Consistent>  (325) 
1

>  <s_lp_Variant>  (325) 
89:0-3

>  <s_i_glide_gridfile>  (325) 
pfpi4k_grid

>  <i_i_glide_lignum>  (325) 
6

>  <i_i_glide_rotatable_bonds>  (325) 
1

>  <r_i_docking_score>  (325) 
-3.21079

>  <r_i_glide_ligand_efficiency>  (325) 
-0.1396

>  <r_i_glide_ligand_efficiency_sa>  (325) 
-0.397003

>  <r_i_glide_ligand_efficiency_ln>  (325) 
-0.776399

>  <r_i_glide_gscore>  (325) 
-3.21079

>  <r_i_glide_lipo>  (325) 
-0.362906

>  <r_i_glide_hbond>  (325) 
-0.0867251

>  <r_i_glide_metal>  (325) 
-0

>  <r_i_glide_rewards>  (325) 
-1.26503

>  <r_i_glide_evdw>  (325) 
-22.597

>  <r_i_glide_ecoul>  (325) 
-2.44186

>  <r_i_glide_erotb>  (325) 
0

>  <r_i_glide_esite>  (325) 
0

>  <r_i_glide_emodel>  (325) 
-29.5362

>  <r_i_glide_energy>  (325) 
-25.0389

>  <r_i_glide_einternal>  (325) 
0.356277

>  <r_i_glide_intrahb_reward>  (325) 
-0

>  <i_i_glide_confnum>  (325) 
1

>  <i_i_glide_posenum>  (325) 
5

>  <r_i_glide_eff_state_penalty>  (325) 
0

>  <ligand_id>  (325) 
89

>  <original_smiles>  (325) 
CC1=CCC2C3CC4CC(O)CCC4(C)C3CC3C1C1OC1C23

>  <smiles>  (325) 
[H]OC1([H])C([H])([H])C([H])([H])C2(C([H])([H])[H])C([H])(C1([H])[H])C([H])([H])C1([H])C3([H])C([H])([H])C([H])=C(C([H])([H])[H])C4([H])C5([H])OC5([H])C3([H])C4([H])C([H])([H])C12[H]

$$$$
89:3:0
     RDKit          3D

 53 58  0  0  1  0  0  0  0  0999 V2000
    2.6688    2.1577    4.0668 C   0  0  0  0  0  0  0  0  0  0  0  0
    2.7700    0.6839    3.7141 C   0  0  0  0  0  0  0  0  0  0  0  0
    1.7193    0.0504    3.1112 C   0  0  0  0  0  0  0  0  0  0  0  0
    1.4606   -1.4118    2.6493 C   0  0  0  0  0  0  0  0  0  0  0  0
    2.5016   -2.6047    2.7831 C   0  0  1  0  0  0  0  0  0  0  0  0
    3.3397   -3.1397    1.5248 C   0  0  1  0  0  0  0  0  0  0  0  0
    2.7063   -2.9842    0.1381 C   0  0  0  0  0  0  0  0  0  0  0  0
    3.5638   -1.9410   -0.5785 C   0  0  2  0  0  0  0  0  0  0  0  0
    3.3312   -1.8102   -2.1055 C   0  0  0  0  0  0  0  0  0  0  0  0
    3.8955   -2.9769   -2.9216 C   0  0  1  0  0  0  0  0  0  0  0  0
    3.8114   -2.6450   -4.2956 O   0  0  0  0  0  0  0  0  0  0  0  0
    5.3501   -3.2894   -2.5398 C   0  0  0  0  0  0  0  0  0  0  0  0
    5.5109   -3.4813   -1.0178 C   0  0  0  0  0  0  0  0  0  0  0  0
    5.0048   -2.2775   -0.1650 C   0  0  1  0  0  0  0  0  0  0  0  0
    5.9128   -1.0633   -0.3964 C   0  0  0  0  0  0  0  0  0  0  0  0
    4.8736   -2.6979    1.3371 C   0  0  1  0  0  0  0  0  0  0  0  0
    5.4892   -1.7399    2.4461 C   0  0  0  0  0  0  0  0  0  0  0  0
    4.2900   -1.1632    3.1497 C   0  0  2  0  0  0  0  0  0  0  0  0
    4.0994    0.0166    4.1166 C   0  0  2  0  0  0  0  0  0  0  0  0
    3.8167   -0.5719    5.4805 C   0  0  2  0  0  0  0  0  0  0  0  0
    4.5307   -1.7222    5.9554 O   0  0  0  0  0  0  0  0  0  0  0  0
    3.3103   -1.9529    5.2206 C   0  0  2  0  0  0  0  0  0  0  0  0
    3.5797   -2.3479    3.7967 C   0  0  1  0  0  0  0  0  0  0  0  0
    2.7981    2.3150    5.1368 H   0  0  0  0  0  0  0  0  0  0  0  0
    1.7013    2.5701    3.7843 H   0  0  0  0  0  0  0  0  0  0  0  0
    3.4292    2.7281    3.5379 H   0  0  0  0  0  0  0  0  0  0  0  0
    0.8573    0.6679    2.9155 H   0  0  0  0  0  0  0  0  0  0  0  0
    0.5913   -1.7092    3.2346 H   0  0  0  0  0  0  0  0  0  0  0  0
    1.0741   -1.3315    1.6403 H   0  0  0  0  0  0  0  0  0  0  0  0
    1.9140   -3.4567    3.1311 H   0  0  0  0  0  0  0  0  0  0  0  0
    3.3848   -4.2157    1.6939 H   0  0  0  0  0  0  0  0  0  0  0  0
    2.7324   -3.9336   -0.3958 H   0  0  0  0  0  0  0  0  0  0  0  0
    1.6766   -2.6651    0.1663 H   0  0  0  0  0  0  0  0  0  0  0  0
    3.2994   -0.9775   -0.1372 H   0  0  0  0  0  0  0  0  0  0  0  0
    2.2630   -1.7409   -2.3173 H   0  0  0  0  0  0  0  0  0  0  0  0
    3.7599   -0.8692   -2.4514 H   0  0  0  0  0  0  0  0  0  0  0  0
    3.2784   -3.8558   -2.7471 H   0  0  0  0  0  0  0  0  0  0  0  0
    2.8943   -2.5183   -4.5064 H   0  0  0  0  0  0  0  0  0  0  0  0
    5.6594   -4.1985   -3.0546 H   0  0  0  0  0  0  0  0  0  0  0  0
    6.0162   -2.5063   -2.8906 H   0  0  0  0  0  0  0  0  0  0  0  0
    4.9654   -4.3854   -0.7399 H   0  0  0  0  0  0  0  0  0  0  0  0
    6.5557   -3.6917   -0.7882 H   0  0  0  0  0  0  0  0  0  0  0  0
    6.9408   -1.2802   -0.0999 H   0  0  0  0  0  0  0  0  0  0  0  0
    5.5733   -0.1796    0.1418 H   0  0  0  0  0  0  0  0  0  0  0  0
    5.9110   -0.7899   -1.4486 H   0  0  0  0  0  0  0  0  0  0  0  0
    5.4666   -3.6063    1.4509 H   0  0  0  0  0  0  0  0  0  0  0  0
    6.0748   -2.3237    3.1527 H   0  0  0  0  0  0  0  0  0  0  0  0
    6.1567   -0.9567    2.0935 H   0  0  0  0  0  0  0  0  0  0  0  0
    3.8519   -0.7598    2.2311 H   0  0  0  0  0  0  0  0  0  0  0  0
    4.9338    0.7210    4.1291 H   0  0  0  0  0  0  0  0  0  0  0  0
    3.3923    0.0553    6.2646 H   0  0  0  0  0  0  0  0  0  0  0  0
    2.4878   -2.3956    5.7781 H   0  0  0  0  0  0  0  0  0  0  0  0
    4.2019   -3.2428    3.8690 H   0  0  0  0  0  0  0  0  0  0  0  0
  1  2  1  0
  1 24  1  0
  1 25  1  0
  1 26  1  0
  2 19  1  0
  2  3  2  0
  3  4  1  0
  3 27  1  0
  4  5  1  0
  4 28  1  0
  4 29  1  0
  5 23  1  0
  5  6  1  0
  5 30  1  1
  6 16  1  0
  6  7  1  0
  6 31  1  1
  7  8  1  0
  7 32  1  0
  7 33  1  0
  8 14  1  0
  8  9  1  0
  8 34  1  1
  9 10  1  0
  9 35  1  0
  9 36  1  0
 10 11  1  0
 10 12  1  0
 10 37  1  6
 11 38  1  0
 12 13  1  0
 12 39  1  0
 12 40  1  0
 13 14  1  0
 13 41  1  0
 13 42  1  0
 14 15  1  1
 14 16  1  0
 15 43  1  0
 15 44  1  0
 15 45  1  0
 16 17  1  0
 16 46  1  6
 17 18  1  0
 17 47  1  0
 17 48  1  0
 18 23  1  0
 18 19  1  0
 18 49  1  6
 19 20  1  0
 19 50  1  1
 20 22  1  0
 20 21  1  0
 20 51  1  1
 21 22  1  0
 22 23  1  0
 22 52  1  1
 23 53  1  1
M  END
>  <i_m_ct_stereo_status>  (326) 
1

>  <s_m_source_file>  (326) 
/var/tmp/pbs.5076255.sched01/tmp7b2cfgi2/13234zcpj2x.sdf

>  <i_m_source_file_index>  (326) 
7

>  <i_lp_mmshare_version>  (326) 
48012

>  <i_f3d_flags>  (326) 
0

>  <s_epik_input>  (326) 
W0NIMl0xW0NIXT1DKFtDSDNdKVtDQEBIXShbQ0BIXTJbQ0BASF0zTzIpW0NAQEhdKFtDSDJdW0NAQEhdNDUpW0NAQEhdM1tDQEhdMVtDQEhdNFtDSDJdW0NAQEhdKFtDQEBdNTZbQ0gzXSlbQ0gyXVtDQEBIXShbT0hdKVtDSDJdW0NIMl02

>  <s_epik_cmdline>  (326) 
J2VwaWtfcHl0aG9uJywgJy1waHQnLCAnMi4wJywgJy1waCcsICc3LjAnLCAnLXRuJywgJzgnLCAnLW1hJywgJzIwMCcsICctaW1hZScsICc8aW5maWxlLm1hZT4nLCAnLW9tYWUnLCAnPG91dGZpbGUubWFlPic=

>  <r_lp_tautomer_probability>  (326) 
1

>  <r_epik_Ionization_Penalty>  (326) 
3.30248e-06

>  <r_epik_Ionization_Penalty_Charging>  (326) 
0

>  <r_epik_Ionization_Penalty_Neutral>  (326) 
3.30248e-06

>  <r_epik_State_Penalty>  (326) 
-0

>  <r_epik_Charging_Adjusted_Penalty>  (326) 
0

>  <i_epik_Tot_Q>  (326) 
0

>  <i_epik_Tot_abs_Q>  (326) 
0

>  <s_lp_Force_Field>  (326) 
OPLS3e

>  <r_lp_Energy>  (326) 
95.4477

>  <b_lp_Chiralities_Consistent>  (326) 
1

>  <s_lp_Variant>  (326) 
89:0-4

>  <s_i_glide_gridfile>  (326) 
pfpi4k_grid

>  <i_i_glide_lignum>  (326) 
7

>  <i_i_glide_rotatable_bonds>  (326) 
1

>  <r_i_docking_score>  (326) 
-3.9708

>  <r_i_glide_ligand_efficiency>  (326) 
-0.172643

>  <r_i_glide_ligand_efficiency_sa>  (326) 
-0.490975

>  <r_i_glide_ligand_efficiency_ln>  (326) 
-0.960175

>  <r_i_glide_gscore>  (326) 
-3.9708

>  <r_i_glide_lipo>  (326) 
-0.473391

>  <r_i_glide_hbond>  (326) 
-0.327107

>  <r_i_glide_metal>  (326) 
-0

>  <r_i_glide_rewards>  (326) 
-1.26503

>  <r_i_glide_evdw>  (326) 
-22.2092

>  <r_i_glide_ecoul>  (326) 
-5.29872

>  <r_i_glide_erotb>  (326) 
0

>  <r_i_glide_esite>  (326) 
0

>  <r_i_glide_emodel>  (326) 
-33.952

>  <r_i_glide_energy>  (326) 
-27.5079

>  <r_i_glide_einternal>  (326) 
0.32515

>  <r_i_glide_intrahb_reward>  (326) 
-0

>  <i_i_glide_confnum>  (326) 
1

>  <i_i_glide_posenum>  (326) 
1

>  <r_i_glide_eff_state_penalty>  (326) 
0

>  <ligand_id>  (326) 
89

>  <original_smiles>  (326) 
CC1=CCC2C3CC4CC(O)CCC4(C)C3CC3C1C1OC1C23

>  <smiles>  (326) 
[H]OC1([H])C([H])([H])C([H])([H])C2(C([H])([H])[H])C([H])(C1([H])[H])C([H])([H])C1([H])C3([H])C([H])([H])C([H])=C(C([H])([H])[H])C4([H])C5([H])OC5([H])C3([H])C4([H])C([H])([H])C12[H]

$$$$
89:3:1
     RDKit          3D

 53 58  0  0  1  0  0  0  0  0999 V2000
    3.2536    1.1218    4.8156 C   0  0  0  0  0  0  0  0  0  0  0  0
    3.1315   -0.2556    4.1845 C   0  0  0  0  0  0  0  0  0  0  0  0
    2.0204   -0.5774    3.4573 C   0  0  0  0  0  0  0  0  0  0  0  0
    1.5535   -1.8611    2.7131 C   0  0  0  0  0  0  0  0  0  0  0  0
    2.3832   -3.2170    2.6328 C   0  0  1  0  0  0  0  0  0  0  0  0
    3.1802   -3.6348    1.3056 C   0  0  1  0  0  0  0  0  0  0  0  0
    2.6448   -3.1086   -0.0279 C   0  0  0  0  0  0  0  0  0  0  0  0
    3.6878   -2.1025   -0.5169 C   0  0  2  0  0  0  0  0  0  0  0  0
    3.5483   -1.6633   -1.9961 C   0  0  0  0  0  0  0  0  0  0  0  0
    3.9509   -2.7400   -3.0094 C   0  0  1  0  0  0  0  0  0  0  0  0
    3.9611   -2.1611   -4.3049 O   0  0  0  0  0  0  0  0  0  0  0  0
    5.3215   -3.3457   -2.6804 C   0  0  0  0  0  0  0  0  0  0  0  0
    5.3849   -3.8345   -1.2185 C   0  0  0  0  0  0  0  0  0  0  0  0
    5.0428   -2.7420   -0.1611 C   0  0  1  0  0  0  0  0  0  0  0  0
    6.1582   -1.6790   -0.1525 C   0  0  0  0  0  0  0  0  0  0  0  0
    4.7707   -3.4194    1.2228 C   0  0  1  0  0  0  0  0  0  0  0  0
    5.4674   -2.8137    2.5079 C   0  0  0  0  0  0  0  0  0  0  0  0
    4.3536   -2.1889    3.2980 C   0  0  2  0  0  0  0  0  0  0  0  0
    4.3145   -1.1964    4.4702 C   0  0  2  0  0  0  0  0  0  0  0  0
    3.8752   -1.9766    5.6896 C   0  0  2  0  0  0  0  0  0  0  0  0
    4.3783   -3.2927    5.9456 O   0  0  0  0  0  0  0  0  0  0  0  0
    3.1714   -3.1803    5.1630 C   0  0  2  0  0  0  0  0  0  0  0  0
    3.4381   -3.3421    3.6925 C   0  0  1  0  0  0  0  0  0  0  0  0
    3.3527    1.0498    5.8986 H   0  0  0  0  0  0  0  0  0  0  0  0
    2.3768    1.7335    4.6052 H   0  0  0  0  0  0  0  0  0  0  0  0
    4.1236    1.6450    4.4214 H   0  0  0  0  0  0  0  0  0  0  0  0
    1.2738    0.1961    3.3724 H   0  0  0  0  0  0  0  0  0  0  0  0
    0.6220   -2.1164    3.2156 H   0  0  0  0  0  0  0  0  0  0  0  0
    1.2345   -1.5257    1.7312 H   0  0  0  0  0  0  0  0  0  0  0  0
    1.6485   -4.0102    2.8006 H   0  0  0  0  0  0  0  0  0  0  0  0
    3.0468   -4.7181    1.2610 H   0  0  0  0  0  0  0  0  0  0  0  0
    2.5501   -3.9335   -0.7361 H   0  0  0  0  0  0  0  0  0  0  0  0
    1.6751   -2.6625    0.0661 H   0  0  0  0  0  0  0  0  0  0  0  0
    3.5633   -1.2078    0.0967 H   0  0  0  0  0  0  0  0  0  0  0  0
    2.5210   -1.3665   -2.1998 H   0  0  0  0  0  0  0  0  0  0  0  0
    4.1457   -0.7630   -2.1534 H   0  0  0  0  0  0  0  0  0  0  0  0
    3.2058   -3.5343   -3.0127 H   0  0  0  0  0  0  0  0  0  0  0  0
    3.0859   -1.8573   -4.4975 H   0  0  0  0  0  0  0  0  0  0  0  0
    5.5029   -4.1835   -3.3509 H   0  0  0  0  0  0  0  0  0  0  0  0
    6.1221   -2.6336   -2.8698 H   0  0  0  0  0  0  0  0  0  0  0  0
    4.6966   -4.6764   -1.1230 H   0  0  0  0  0  0  0  0  0  0  0  0
    6.3715   -4.2446   -1.0114 H   0  0  0  0  0  0  0  0  0  0  0  0
    7.1252   -2.1132    0.1104 H   0  0  0  0  0  0  0  0  0  0  0  0
    5.9421   -0.8661    0.5412 H   0  0  0  0  0  0  0  0  0  0  0  0
    6.2487   -1.2200   -1.1324 H   0  0  0  0  0  0  0  0  0  0  0  0
    5.2030   -4.4174    1.1666 H   0  0  0  0  0  0  0  0  0  0  0  0
    5.9128   -3.6196    3.0887 H   0  0  0  0  0  0  0  0  0  0  0  0
    6.2574   -2.0918    2.3237 H   0  0  0  0  0  0  0  0  0  0  0  0
    4.0266   -1.5515    2.4662 H   0  0  0  0  0  0  0  0  0  0  0  0
    5.2471   -0.6575    4.6323 H   0  0  0  0  0  0  0  0  0  0  0  0
    3.5148   -1.4408    6.5705 H   0  0  0  0  0  0  0  0  0  0  0  0
    2.2603   -3.5776    5.6097 H   0  0  0  0  0  0  0  0  0  0  0  0
    3.9040   -4.3253    3.5958 H   0  0  0  0  0  0  0  0  0  0  0  0
  1  2  1  0
  1 24  1  0
  1 25  1  0
  1 26  1  0
  2 19  1  0
  2  3  2  0
  3  4  1  0
  3 27  1  0
  4  5  1  0
  4 28  1  0
  4 29  1  0
  5 23  1  0
  5  6  1  0
  5 30  1  1
  6 16  1  0
  6  7  1  0
  6 31  1  6
  7  8  1  0
  7 32  1  0
  7 33  1  0
  8 14  1  0
  8  9  1  0
  8 34  1  1
  9 10  1  0
  9 35  1  0
  9 36  1  0
 10 11  1  0
 10 12  1  0
 10 37  1  6
 11 38  1  0
 12 13  1  0
 12 39  1  0
 12 40  1  0
 13 14  1  0
 13 41  1  0
 13 42  1  0
 14 15  1  1
 14 16  1  0
 15 43  1  0
 15 44  1  0
 15 45  1  0
 16 17  1  0
 16 46  1  6
 17 18  1  0
 17 47  1  0
 17 48  1  0
 18 23  1  0
 18 19  1  0
 18 49  1  6
 19 20  1  0
 19 50  1  1
 20 22  1  0
 20 21  1  0
 20 51  1  1
 21 22  1  0
 22 23  1  0
 22 52  1  1
 23 53  1  1
M  END
>  <i_m_ct_stereo_status>  (327) 
1

>  <s_m_source_file>  (327) 
/var/tmp/pbs.5076255.sched01/tmp7b2cfgi2/13234zcpj2x.sdf

>  <i_m_source_file_index>  (327) 
7

>  <i_lp_mmshare_version>  (327) 
48012

>  <i_f3d_flags>  (327) 
0

>  <s_epik_input>  (327) 
W0NIMl0xW0NIXT1DKFtDSDNdKVtDQEBIXShbQ0BIXTJbQ0BASF0zTzIpW0NAQEhdKFtDSDJdW0NAQEhdNDUpW0NAQEhdM1tDQEhdMVtDQEhdNFtDSDJdW0NAQEhdKFtDQEBdNTZbQ0gzXSlbQ0gyXVtDQEBIXShbT0hdKVtDSDJdW0NIMl02

>  <s_epik_cmdline>  (327) 
J2VwaWtfcHl0aG9uJywgJy1waHQnLCAnMi4wJywgJy1waCcsICc3LjAnLCAnLXRuJywgJzgnLCAnLW1hJywgJzIwMCcsICctaW1hZScsICc8aW5maWxlLm1hZT4nLCAnLW9tYWUnLCAnPG91dGZpbGUubWFlPic=

>  <r_lp_tautomer_probability>  (327) 
1

>  <r_epik_Ionization_Penalty>  (327) 
3.30248e-06

>  <r_epik_Ionization_Penalty_Charging>  (327) 
0

>  <r_epik_Ionization_Penalty_Neutral>  (327) 
3.30248e-06

>  <r_epik_State_Penalty>  (327) 
-0

>  <r_epik_Charging_Adjusted_Penalty>  (327) 
0

>  <i_epik_Tot_Q>  (327) 
0

>  <i_epik_Tot_abs_Q>  (327) 
0

>  <s_lp_Force_Field>  (327) 
OPLS3e

>  <r_lp_Energy>  (327) 
95.4477

>  <b_lp_Chiralities_Consistent>  (327) 
1

>  <s_lp_Variant>  (327) 
89:0-4

>  <s_i_glide_gridfile>  (327) 
pfpi4k_grid

>  <i_i_glide_lignum>  (327) 
7

>  <i_i_glide_rotatable_bonds>  (327) 
1

>  <r_i_docking_score>  (327) 
-3.84866

>  <r_i_glide_ligand_efficiency>  (327) 
-0.167333

>  <r_i_glide_ligand_efficiency_sa>  (327) 
-0.475873

>  <r_i_glide_ligand_efficiency_ln>  (327) 
-0.930641

>  <r_i_glide_gscore>  (327) 
-3.84866

>  <r_i_glide_lipo>  (327) 
-0.453778

>  <r_i_glide_hbond>  (327) 
-0.32

>  <r_i_glide_metal>  (327) 
-0

>  <r_i_glide_rewards>  (327) 
-1.26503

>  <r_i_glide_evdw>  (327) 
-21.6138

>  <r_i_glide_ecoul>  (327) 
-4.86107

>  <r_i_glide_erotb>  (327) 
0

>  <r_i_glide_esite>  (327) 
0

>  <r_i_glide_emodel>  (327) 
-32.7402

>  <r_i_glide_energy>  (327) 
-26.4748

>  <r_i_glide_einternal>  (327) 
0.328774

>  <r_i_glide_intrahb_reward>  (327) 
-0

>  <i_i_glide_confnum>  (327) 
1

>  <i_i_glide_posenum>  (327) 
37

>  <r_i_glide_eff_state_penalty>  (327) 
0

>  <ligand_id>  (327) 
89

>  <original_smiles>  (327) 
CC1=CCC2C3CC4CC(O)CCC4(C)C3CC3C1C1OC1C23

>  <smiles>  (327) 
[H]OC1([H])C([H])([H])C([H])([H])C2(C([H])([H])[H])C([H])(C1([H])[H])C([H])([H])C1([H])C3([H])C([H])([H])C([H])=C(C([H])([H])[H])C4([H])C5([H])OC5([H])C3([H])C4([H])C([H])([H])C12[H]

$$$$
89:3:2
     RDKit          3D

 53 58  0  0  1  0  0  0  0  0999 V2000
    2.2796    3.6589    3.1224 C   0  0  0  0  0  0  0  0  0  0  0  0
    2.2916    2.1490    3.2992 C   0  0  0  0  0  0  0  0  0  0  0  0
    1.3409    1.3763    2.6965 C   0  0  0  0  0  0  0  0  0  0  0  0
    1.0429   -0.1499    2.6881 C   0  0  0  0  0  0  0  0  0  0  0  0
    1.9057   -1.2480    3.4466 C   0  0  1  0  0  0  0  0  0  0  0  0
    2.9354   -2.1907    2.6619 C   0  0  1  0  0  0  0  0  0  0  0  0
    2.6242   -2.4935    1.1935 C   0  0  0  0  0  0  0  0  0  0  0  0
    3.7201   -1.7718    0.4053 C   0  0  2  0  0  0  0  0  0  0  0  0
    3.8243   -2.1694   -1.0848 C   0  0  0  0  0  0  0  0  0  0  0  0
    4.4420   -3.5572   -1.3085 C   0  0  1  0  0  0  0  0  0  0  0  0
    4.6901   -3.7402   -2.6884 O   0  0  0  0  0  0  0  0  0  0  0  0
    5.7466   -3.7531   -0.5251 C   0  0  0  0  0  0  0  0  0  0  0  0
    5.5602   -3.4227    0.9662 C   0  0  0  0  0  0  0  0  0  0  0  0
    5.0110   -1.9870    1.2268 C   0  0  1  0  0  0  0  0  0  0  0  0
    6.0884   -0.9598    0.8254 C   0  0  0  0  0  0  0  0  0  0  0  0
    4.5150   -1.8750    2.7109 C   0  0  1  0  0  0  0  0  0  0  0  0
    4.9758   -0.6183    3.5725 C   0  0  0  0  0  0  0  0  0  0  0  0
    3.7103    0.1849    3.7473 C   0  0  2  0  0  0  0  0  0  0  0  0
    3.4227    1.6275    4.2017 C   0  0  2  0  0  0  0  0  0  0  0  0
    2.7973    1.5410    5.5725 C   0  0  2  0  0  0  0  0  0  0  0  0
    3.2773    0.6102    6.5514 O   0  0  0  0  0  0  0  0  0  0  0  0
    2.2321    0.1655    5.6644 C   0  0  2  0  0  0  0  0  0  0  0  0
    2.7599   -0.6948    4.5519 C   0  0  1  0  0  0  0  0  0  0  0  0
    2.1880    4.1669    4.0805 H   0  0  0  0  0  0  0  0  0  0  0  0
    1.4446    3.9740    2.5002 H   0  0  0  0  0  0  0  0  0  0  0  0
    3.1944    3.9953    2.6379 H   0  0  0  0  0  0  0  0  0  0  0  0
    0.6122    1.9134    2.1102 H   0  0  0  0  0  0  0  0  0  0  0  0
    0.0424   -0.2108    3.1128 H   0  0  0  0  0  0  0  0  0  0  0  0
    0.8990   -0.4113    1.6468 H   0  0  0  0  0  0  0  0  0  0  0  0
    1.1744   -1.9206    3.9011 H   0  0  0  0  0  0  0  0  0  0  0  0
    2.8351   -3.1479    3.1744 H   0  0  0  0  0  0  0  0  0  0  0  0
    2.6843   -3.5664    1.0243 H   0  0  0  0  0  0  0  0  0  0  0  0
    1.6267   -2.2020    0.8817 H   0  0  0  0  0  0  0  0  0  0  0  0
    3.4734   -0.7085    0.4336 H   0  0  0  0  0  0  0  0  0  0  0  0
    2.8333   -2.1346   -1.5396 H   0  0  0  0  0  0  0  0  0  0  0  0
    4.4184   -1.4203   -1.6104 H   0  0  0  0  0  0  0  0  0  0  0  0
    3.7253   -4.3195   -1.0022 H   0  0  0  0  0  0  0  0  0  0  0  0
    4.3277   -4.5764   -2.9380 H   0  0  0  0  0  0  0  0  0  0  0  0
    6.0685   -4.7880   -0.6215 H   0  0  0  0  0  0  0  0  0  0  0  0
    6.5458   -3.1501   -0.9555 H   0  0  0  0  0  0  0  0  0  0  0  0
    4.8799   -4.1644    1.3866 H   0  0  0  0  0  0  0  0  0  0  0  0
    6.5055   -3.5674    1.4898 H   0  0  0  0  0  0  0  0  0  0  0  0
    6.9970   -1.0775    1.4176 H   0  0  0  0  0  0  0  0  0  0  0  0
    5.7295    0.0620    0.9454 H   0  0  0  0  0  0  0  0  0  0  0  0
    6.3677   -1.0556   -0.2211 H   0  0  0  0  0  0  0  0  0  0  0  0
    4.9709   -2.7074    3.2482 H   0  0  0  0  0  0  0  0  0  0  0  0
    5.3451   -0.9412    4.5462 H   0  0  0  0  0  0  0  0  0  0  0  0
    5.7726   -0.0133    3.1450 H   0  0  0  0  0  0  0  0  0  0  0  0
    3.5259    0.2664    2.6698 H   0  0  0  0  0  0  0  0  0  0  0  0
    4.2941    2.2796    4.1877 H   0  0  0  0  0  0  0  0  0  0  0  0
    2.2782    2.4093    5.9833 H   0  0  0  0  0  0  0  0  0  0  0  0
    1.2647   -0.0403    6.1189 H   0  0  0  0  0  0  0  0  0  0  0  0
    3.2619   -1.5266    5.0513 H   0  0  0  0  0  0  0  0  0  0  0  0
  1  2  1  0
  1 24  1  0
  1 25  1  0
  1 26  1  0
  2 19  1  0
  2  3  2  0
  3  4  1  0
  3 27  1  0
  4  5  1  0
  4 28  1  0
  4 29  1  0
  5 23  1  0
  5  6  1  0
  5 30  1  1
  6 16  1  0
  6  7  1  0
  6 31  1  1
  7  8  1  0
  7 32  1  0
  7 33  1  0
  8 14  1  0
  8  9  1  0
  8 34  1  6
  9 10  1  0
  9 35  1  0
  9 36  1  0
 10 11  1  0
 10 12  1  0
 10 37  1  1
 11 38  1  0
 12 13  1  0
 12 39  1  0
 12 40  1  0
 13 14  1  0
 13 41  1  0
 13 42  1  0
 14 15  1  6
 14 16  1  0
 15 43  1  0
 15 44  1  0
 15 45  1  0
 16 17  1  0
 16 46  1  1
 17 18  1  0
 17 47  1  0
 17 48  1  0
 18 23  1  0
 18 19  1  0
 18 49  1  6
 19 20  1  0
 19 50  1  1
 20 22  1  0
 20 21  1  0
 20 51  1  1
 21 22  1  0
 22 23  1  0
 22 52  1  1
 23 53  1  1
M  END
>  <i_m_ct_stereo_status>  (328) 
1

>  <s_m_source_file>  (328) 
/var/tmp/pbs.5076255.sched01/tmp7b2cfgi2/13234zcpj2x.sdf

>  <i_m_source_file_index>  (328) 
7

>  <i_lp_mmshare_version>  (328) 
48012

>  <i_f3d_flags>  (328) 
0

>  <s_epik_input>  (328) 
W0NIMl0xW0NIXT1DKFtDSDNdKVtDQEBIXShbQ0BIXTJbQ0BASF0zTzIpW0NAQEhdKFtDSDJdW0NAQEhdNDUpW0NAQEhdM1tDQEhdMVtDQEhdNFtDSDJdW0NAQEhdKFtDQEBdNTZbQ0gzXSlbQ0gyXVtDQEBIXShbT0hdKVtDSDJdW0NIMl02

>  <s_epik_cmdline>  (328) 
J2VwaWtfcHl0aG9uJywgJy1waHQnLCAnMi4wJywgJy1waCcsICc3LjAnLCAnLXRuJywgJzgnLCAnLW1hJywgJzIwMCcsICctaW1hZScsICc8aW5maWxlLm1hZT4nLCAnLW9tYWUnLCAnPG91dGZpbGUubWFlPic=

>  <r_lp_tautomer_probability>  (328) 
1

>  <r_epik_Ionization_Penalty>  (328) 
3.30248e-06

>  <r_epik_Ionization_Penalty_Charging>  (328) 
0

>  <r_epik_Ionization_Penalty_Neutral>  (328) 
3.30248e-06

>  <r_epik_State_Penalty>  (328) 
-0

>  <r_epik_Charging_Adjusted_Penalty>  (328) 
0

>  <i_epik_Tot_Q>  (328) 
0

>  <i_epik_Tot_abs_Q>  (328) 
0

>  <s_lp_Force_Field>  (328) 
OPLS3e

>  <r_lp_Energy>  (328) 
95.4477

>  <b_lp_Chiralities_Consistent>  (328) 
1

>  <s_lp_Variant>  (328) 
89:0-4

>  <s_i_glide_gridfile>  (328) 
pfpi4k_grid

>  <i_i_glide_lignum>  (328) 
7

>  <i_i_glide_rotatable_bonds>  (328) 
1

>  <r_i_docking_score>  (328) 
-3.73868

>  <r_i_glide_ligand_efficiency>  (328) 
-0.162551

>  <r_i_glide_ligand_efficiency_sa>  (328) 
-0.462274

>  <r_i_glide_ligand_efficiency_ln>  (328) 
-0.904046

>  <r_i_glide_gscore>  (328) 
-3.73868

>  <r_i_glide_lipo>  (328) 
-0.426152

>  <r_i_glide_hbond>  (328) 
-0.298548

>  <r_i_glide_metal>  (328) 
-0

>  <r_i_glide_rewards>  (328) 
-1.26503

>  <r_i_glide_evdw>  (328) 
-23.8992

>  <r_i_glide_ecoul>  (328) 
-3.69323

>  <r_i_glide_erotb>  (328) 
0

>  <r_i_glide_esite>  (328) 
0

>  <r_i_glide_emodel>  (328) 
-32.7484

>  <r_i_glide_energy>  (328) 
-27.5924

>  <r_i_glide_einternal>  (328) 
1.34039

>  <r_i_glide_intrahb_reward>  (328) 
-0

>  <i_i_glide_confnum>  (328) 
1

>  <i_i_glide_posenum>  (328) 
17

>  <r_i_glide_eff_state_penalty>  (328) 
0

>  <ligand_id>  (328) 
89

>  <original_smiles>  (328) 
CC1=CCC2C3CC4CC(O)CCC4(C)C3CC3C1C1OC1C23

>  <smiles>  (328) 
[H]OC1([H])C([H])([H])C([H])([H])C2(C([H])([H])[H])C([H])(C1([H])[H])C([H])([H])C1([H])C3([H])C([H])([H])C([H])=C(C([H])([H])[H])C4([H])C5([H])OC5([H])C3([H])C4([H])C([H])([H])C12[H]

$$$$
90:0:0
     RDKit          3D

 40 45  0  0  1  0  0  0  0  0999 V2000
    3.8712   -3.0175   -2.4623 C   0  0  0  0  0  0  0  0  0  0  0  0
    4.9406   -3.2720   -1.3907 C   0  0  2  0  0  0  0  0  0  0  0  0
    6.3074   -2.6391   -1.7769 C   0  0  0  0  0  0  0  0  0  0  0  0
    7.1124   -2.3006   -0.5410 C   0  0  1  0  0  0  0  0  0  0  0  0
    6.4216   -1.7093    0.6873 C   0  0  2  0  0  0  0  0  0  0  0  0
    6.8386   -3.1551    0.6496 C   0  0  1  0  0  0  0  0  0  0  0  0
    5.5056   -3.8098    0.8216 C   0  0  2  0  0  0  0  0  0  0  0  0
    5.4015   -3.8695    2.2376 O   0  0  0  0  0  0  0  0  0  0  0  0
    4.1356   -3.4466    2.6376 C   0  0  2  0  0  0  0  0  0  0  0  0
    4.0909   -3.6108    4.1699 C   0  0  0  0  0  0  0  0  0  0  0  0
    3.1533   -4.5115    2.0002 C   0  0  0  0  0  0  0  0  0  0  0  0
    1.9731   -4.5927    2.3463 O   0  0  0  0  0  0  0  0  0  0  0  0
    3.7276   -5.4891    0.8940 C   0  0  0  0  0  0  0  0  0  0  0  0
    5.1037   -5.0980    0.2011 C   0  0  1  0  0  0  0  0  0  0  0  0
    5.0121   -4.7011   -1.1895 O   0  0  0  0  0  0  0  0  0  0  0  0
    4.1558   -1.8884    2.1537 C   0  0  1  0  0  0  0  0  0  0  0  0
    2.7047   -1.3491    2.1248 C   0  0  0  0  0  0  0  0  0  0  0  0
    4.8653   -1.0516    3.1414 C   0  0  0  0  0  0  0  0  0  0  0  0
    5.4111   -0.3865    3.9150 N   0  0  0  0  0  0  0  0  0  0  0  0
    4.8773   -1.6294    0.7423 C   0  0  2  0  0  0  0  0  0  0  0  0
    4.5332   -2.8882    0.0239 C   0  0  1  0  0  0  0  0  0  0  0  0
    3.6750   -1.9513   -2.5930 H   0  0  0  0  0  0  0  0  0  0  0  0
    2.9307   -3.5036   -2.1949 H   0  0  0  0  0  0  0  0  0  0  0  0
    4.1863   -3.4287   -3.4234 H   0  0  0  0  0  0  0  0  0  0  0  0
    6.8815   -3.2873   -2.4425 H   0  0  0  0  0  0  0  0  0  0  0  0
    6.1383   -1.7057   -2.3131 H   0  0  0  0  0  0  0  0  0  0  0  0
    8.1501   -2.0241   -0.7088 H   0  0  0  0  0  0  0  0  0  0  0  0
    6.9925   -1.0313    1.3188 H   0  0  0  0  0  0  0  0  0  0  0  0
    7.6732   -3.4887    1.2642 H   0  0  0  0  0  0  0  0  0  0  0  0
    3.1921   -3.1638    4.5968 H   0  0  0  0  0  0  0  0  0  0  0  0
    4.9576   -3.1602    4.6532 H   0  0  0  0  0  0  0  0  0  0  0  0
    4.0980   -4.6666    4.4506 H   0  0  0  0  0  0  0  0  0  0  0  0
    3.8383   -6.4647    1.3653 H   0  0  0  0  0  0  0  0  0  0  0  0
    2.9679   -5.6138    0.1210 H   0  0  0  0  0  0  0  0  0  0  0  0
    5.8509   -5.8798    0.3407 H   0  0  0  0  0  0  0  0  0  0  0  0
    2.0739   -1.8525    1.3928 H   0  0  0  0  0  0  0  0  0  0  0  0
    2.6805   -0.2814    1.8936 H   0  0  0  0  0  0  0  0  0  0  0  0
    2.2298   -1.4751    3.0988 H   0  0  0  0  0  0  0  0  0  0  0  0
    4.5219   -0.7288    0.2324 H   0  0  0  0  0  0  0  0  0  0  0  0
    3.4552   -3.0405    0.0548 H   0  0  0  0  0  0  0  0  0  0  0  0
  2  1  1  6
  1 22  1  0
  1 23  1  0
  1 24  1  0
  2 15  1  0
  2 21  1  0
  2  3  1  0
  3  4  1  0
  3 25  1  0
  3 26  1  0
  4  6  1  0
  4  5  1  0
  4 27  1  6
  5 20  1  0
  5  6  1  0
  5 28  1  1
  6  7  1  0
  6 29  1  1
  7 14  1  0
  7 21  1  0
  7  8  1  1
  8  9  1  0
  9 10  1  1
  9 11  1  0
  9 16  1  0
 10 30  1  0
 10 31  1  0
 10 32  1  0
 11 12  2  0
 11 13  1  0
 13 14  1  0
 13 33  1  0
 13 34  1  0
 14 15  1  0
 14 35  1  6
 16 17  1  0
 16 18  1  1
 16 20  1  0
 17 36  1  0
 17 37  1  0
 17 38  1  0
 18 19  3  0
 20 21  1  0
 20 39  1  6
 21 40  1  6
M  END
>  <i_m_ct_stereo_status>  (329) 
1

>  <s_m_source_file>  (329) 
/var/tmp/pbs.5076255.sched01/tmp7b2cfgi2/13234zcpj2x.sdf

>  <i_m_source_file_index>  (329) 
8

>  <i_lp_mmshare_version>  (329) 
48012

>  <i_f3d_flags>  (329) 
0

>  <s_epik_input>  (329) 
W0NAQF0xMjNbQ0BIXTRbQ0BASF01W0NASF00W0NASF02W0NASF0zW0NAQF0oW0NIM10pKFtDSDJdNSlPW0NAQEhdMltDSDJdQyg9TylbQ0BdKE8xKShbQ0gzXSlbQ0BAXTYoW0NIM10pQyNO

>  <s_epik_cmdline>  (329) 
J2VwaWtfcHl0aG9uJywgJy1waHQnLCAnMi4wJywgJy1waCcsICc3LjAnLCAnLXRuJywgJzgnLCAnLW1hJywgJzIwMCcsICctaW1hZScsICc8aW5maWxlLm1hZT4nLCAnLW9tYWUnLCAnPG91dGZpbGUubWFlPic=

>  <r_lp_tautomer_probability>  (329) 
1

>  <r_epik_Ionization_Penalty>  (329) 
1.13534e-10

>  <r_epik_Ionization_Penalty_Charging>  (329) 
0

>  <r_epik_Ionization_Penalty_Neutral>  (329) 
1.13534e-10

>  <r_epik_State_Penalty>  (329) 
-0

>  <r_epik_Charging_Adjusted_Penalty>  (329) 
0

>  <i_epik_Tot_Q>  (329) 
0

>  <i_epik_Tot_abs_Q>  (329) 
0

>  <s_lp_Force_Field>  (329) 
OPLS3e

>  <r_lp_Energy>  (329) 
94.8573

>  <b_lp_Chiralities_Consistent>  (329) 
1

>  <s_lp_Variant>  (329) 
90:0-1

>  <s_i_glide_gridfile>  (329) 
pfpi4k_grid

>  <i_i_glide_lignum>  (329) 
8

>  <i_i_glide_rotatable_bonds>  (329) 
1

>  <r_i_docking_score>  (329) 
-3.10606

>  <r_i_glide_ligand_efficiency>  (329) 
-0.147908

>  <r_i_glide_ligand_efficiency_sa>  (329) 
-0.408066

>  <r_i_glide_ligand_efficiency_ln>  (329) 
-0.767968

>  <r_i_glide_gscore>  (329) 
-3.10606

>  <r_i_glide_lipo>  (329) 
-0.393515

>  <r_i_glide_hbond>  (329) 
0

>  <r_i_glide_metal>  (329) 
-0

>  <r_i_glide_rewards>  (329) 
-1.58285

>  <r_i_glide_evdw>  (329) 
-22.9878

>  <r_i_glide_ecoul>  (329) 
0.13129

>  <r_i_glide_erotb>  (329) 
0

>  <r_i_glide_esite>  (329) 
0

>  <r_i_glide_emodel>  (329) 
-27.2164

>  <r_i_glide_energy>  (329) 
-22.8565

>  <r_i_glide_einternal>  (329) 
0.454804

>  <r_i_glide_intrahb_reward>  (329) 
-0

>  <i_i_glide_confnum>  (329) 
1

>  <i_i_glide_posenum>  (329) 
8

>  <r_i_glide_eff_state_penalty>  (329) 
0

>  <ligand_id>  (329) 
90

>  <original_smiles>  (329) 
CC12CC3C4C3C35OC(C)(C(=O)CC3O1)C(C)(C#N)C4C25

>  <smiles>  (329) 
[H]C([H])([H])C12OC34C([H])(OC5(C([H])([H])[H])C([H])([H])C6([H])C([H])(C([H])(C53[H])C1(C#N)C([H])([H])[H])C64[H])C([H])([H])C2=O

$$$$
90:0:1
     RDKit          3D

 40 45  0  0  1  0  0  0  0  0999 V2000
    3.0213   -0.6872   -2.8532 C   0  0  0  0  0  0  0  0  0  0  0  0
    3.5028   -2.0812   -2.5198 C   0  0  2  0  0  0  0  0  0  0  0  0
    4.1498   -2.6881   -3.7768 C   0  0  0  0  0  0  0  0  0  0  0  0
    5.1998   -3.6608   -3.3623 C   0  0  1  0  0  0  0  0  0  0  0  0
    6.1507   -3.3660   -2.2012 C   0  0  2  0  0  0  0  0  0  0  0  0
    5.0046   -4.3129   -2.0308 C   0  0  1  0  0  0  0  0  0  0  0  0
    4.2318   -3.6601   -0.9653 C   0  0  2  0  0  0  0  0  0  0  0  0
    4.8299   -4.2322    0.1893 O   0  0  0  0  0  0  0  0  0  0  0  0
    5.1111   -3.2257    1.1004 C   0  0  2  0  0  0  0  0  0  0  0  0
    5.6779   -3.9160    2.3507 C   0  0  0  0  0  0  0  0  0  0  0  0
    3.6924   -2.6463    1.4843 C   0  0  0  0  0  0  0  0  0  0  0  0
    3.5367   -1.8855    2.4315 O   0  0  0  0  0  0  0  0  0  0  0  0
    2.4697   -3.0728    0.5799 C   0  0  0  0  0  0  0  0  0  0  0  0
    2.7533   -3.6813   -0.8608 C   0  0  1  0  0  0  0  0  0  0  0  0
    2.4103   -2.8940   -2.0306 O   0  0  0  0  0  0  0  0  0  0  0  0
    6.2043   -2.3481    0.2786 C   0  0  1  0  0  0  0  0  0  0  0  0
    6.2944   -0.9578    0.9268 C   0  0  0  0  0  0  0  0  0  0  0  0
    7.5459   -2.9641    0.3789 C   0  0  0  0  0  0  0  0  0  0  0  0
    8.6023   -3.4428    0.4593 N   0  0  0  0  0  0  0  0  0  0  0  0
    5.8907   -2.1671   -1.2847 C   0  0  2  0  0  0  0  0  0  0  0  0
    4.4022   -2.1541   -1.2876 C   0  0  1  0  0  0  0  0  0  0  0  0
    3.8265    0.0062   -3.0973 H   0  0  0  0  0  0  0  0  0  0  0  0
    2.4770   -0.3140   -1.9948 H   0  0  0  0  0  0  0  0  0  0  0  0
    2.3186   -0.7360   -3.6892 H   0  0  0  0  0  0  0  0  0  0  0  0
    3.4243   -3.1739   -4.4287 H   0  0  0  0  0  0  0  0  0  0  0  0
    4.6488   -1.9102   -4.3462 H   0  0  0  0  0  0  0  0  0  0  0  0
    5.5817   -4.2494   -4.1803 H   0  0  0  0  0  0  0  0  0  0  0  0
    7.1506   -3.7866   -2.2427 H   0  0  0  0  0  0  0  0  0  0  0  0
    5.1023   -5.3936   -1.9435 H   0  0  0  0  0  0  0  0  0  0  0  0
    6.0360   -3.1689    3.0601 H   0  0  0  0  0  0  0  0  0  0  0  0
    6.4957   -4.5961    2.1051 H   0  0  0  0  0  0  0  0  0  0  0  0
    4.9119   -4.5081    2.8575 H   0  0  0  0  0  0  0  0  0  0  0  0
    1.9059   -3.8052    1.1553 H   0  0  0  0  0  0  0  0  0  0  0  0
    1.8210   -2.2093    0.4823 H   0  0  0  0  0  0  0  0  0  0  0  0
    2.3245   -4.6772   -0.9374 H   0  0  0  0  0  0  0  0  0  0  0  0
    5.3716   -0.3759    0.8646 H   0  0  0  0  0  0  0  0  0  0  0  0
    7.0780   -0.3685    0.4580 H   0  0  0  0  0  0  0  0  0  0  0  0
    6.5621   -1.0409    1.9794 H   0  0  0  0  0  0  0  0  0  0  0  0
    6.3030   -1.2680   -1.7372 H   0  0  0  0  0  0  0  0  0  0  0  0
    4.0318   -1.3846   -0.6086 H   0  0  0  0  0  0  0  0  0  0  0  0
  2  1  1  6
  1 22  1  0
  1 23  1  0
  1 24  1  0
  2 15  1  0
  2 21  1  0
  2  3  1  0
  3  4  1  0
  3 25  1  0
  3 26  1  0
  4  6  1  0
  4  5  1  0
  4 27  1  6
  5 20  1  0
  5  6  1  0
  5 28  1  6
  6  7  1  0
  6 29  1  6
  7 14  1  0
  7 21  1  0
  7  8  1  1
  8  9  1  0
  9 10  1  1
  9 11  1  0
  9 16  1  0
 10 30  1  0
 10 31  1  0
 10 32  1  0
 11 12  2  0
 11 13  1  0
 13 14  1  0
 13 33  1  0
 13 34  1  0
 14 15  1  0
 14 35  1  6
 16 17  1  0
 16 18  1  6
 16 20  1  0
 17 36  1  0
 17 37  1  0
 17 38  1  0
 18 19  3  0
 20 21  1  0
 20 39  1  6
 21 40  1  1
M  END
>  <i_m_ct_stereo_status>  (330) 
1

>  <s_m_source_file>  (330) 
/var/tmp/pbs.5076255.sched01/tmp7b2cfgi2/13234zcpj2x.sdf

>  <i_m_source_file_index>  (330) 
8

>  <i_lp_mmshare_version>  (330) 
48012

>  <i_f3d_flags>  (330) 
0

>  <s_epik_input>  (330) 
W0NAQF0xMjNbQ0BIXTRbQ0BASF01W0NASF00W0NASF02W0NASF0zW0NAQF0oW0NIM10pKFtDSDJdNSlPW0NAQEhdMltDSDJdQyg9TylbQ0BdKE8xKShbQ0gzXSlbQ0BAXTYoW0NIM10pQyNO

>  <s_epik_cmdline>  (330) 
J2VwaWtfcHl0aG9uJywgJy1waHQnLCAnMi4wJywgJy1waCcsICc3LjAnLCAnLXRuJywgJzgnLCAnLW1hJywgJzIwMCcsICctaW1hZScsICc8aW5maWxlLm1hZT4nLCAnLW9tYWUnLCAnPG91dGZpbGUubWFlPic=

>  <r_lp_tautomer_probability>  (330) 
1

>  <r_epik_Ionization_Penalty>  (330) 
1.13534e-10

>  <r_epik_Ionization_Penalty_Charging>  (330) 
0

>  <r_epik_Ionization_Penalty_Neutral>  (330) 
1.13534e-10

>  <r_epik_State_Penalty>  (330) 
-0

>  <r_epik_Charging_Adjusted_Penalty>  (330) 
0

>  <i_epik_Tot_Q>  (330) 
0

>  <i_epik_Tot_abs_Q>  (330) 
0

>  <s_lp_Force_Field>  (330) 
OPLS3e

>  <r_lp_Energy>  (330) 
94.8573

>  <b_lp_Chiralities_Consistent>  (330) 
1

>  <s_lp_Variant>  (330) 
90:0-1

>  <s_i_glide_gridfile>  (330) 
pfpi4k_grid

>  <i_i_glide_lignum>  (330) 
8

>  <i_i_glide_rotatable_bonds>  (330) 
1

>  <r_i_docking_score>  (330) 
-3.09574

>  <r_i_glide_ligand_efficiency>  (330) 
-0.147416

>  <r_i_glide_ligand_efficiency_sa>  (330) 
-0.406711

>  <r_i_glide_ligand_efficiency_ln>  (330) 
-0.765416

>  <r_i_glide_gscore>  (330) 
-3.09574

>  <r_i_glide_lipo>  (330) 
-0.713165

>  <r_i_glide_hbond>  (330) 
0

>  <r_i_glide_metal>  (330) 
-0

>  <r_i_glide_rewards>  (330) 
-1.71525

>  <r_i_glide_evdw>  (330) 
-14.7178

>  <r_i_glide_ecoul>  (330) 
0.480853

>  <r_i_glide_erotb>  (330) 
0

>  <r_i_glide_esite>  (330) 
-0.00356732

>  <r_i_glide_emodel>  (330) 
-18.4517

>  <r_i_glide_energy>  (330) 
-14.2369

>  <r_i_glide_einternal>  (330) 
0.455979

>  <r_i_glide_intrahb_reward>  (330) 
-0

>  <i_i_glide_confnum>  (330) 
2

>  <i_i_glide_posenum>  (330) 
21

>  <r_i_glide_eff_state_penalty>  (330) 
0

>  <ligand_id>  (330) 
90

>  <original_smiles>  (330) 
CC12CC3C4C3C35OC(C)(C(=O)CC3O1)C(C)(C#N)C4C25

>  <smiles>  (330) 
[H]C([H])([H])C12OC34C([H])(OC5(C([H])([H])[H])C([H])([H])C6([H])C([H])(C([H])(C53[H])C1(C#N)C([H])([H])[H])C64[H])C([H])([H])C2=O

$$$$
90:0:2
     RDKit          3D

 40 45  0  0  1  0  0  0  0  0999 V2000
    2.8964   -3.1170   -1.7143 C   0  0  0  0  0  0  0  0  0  0  0  0
    4.0940   -2.9085   -0.7773 C   0  0  2  0  0  0  0  0  0  0  0  0
    4.9669   -1.7002   -1.2182 C   0  0  0  0  0  0  0  0  0  0  0  0
    5.6916   -1.0996   -0.0305 C   0  0  1  0  0  0  0  0  0  0  0  0
    4.9789   -0.9517    1.3110 C   0  0  2  0  0  0  0  0  0  0  0  0
    5.9848   -2.0505    1.0817 C   0  0  1  0  0  0  0  0  0  0  0  0
    5.1117   -3.2466    1.3065 C   0  0  2  0  0  0  0  0  0  0  0  0
    5.2278   -3.4199    2.7138 O   0  0  0  0  0  0  0  0  0  0  0  0
    3.9693   -3.6252    3.2731 C   0  0  2  0  0  0  0  0  0  0  0  0
    4.1974   -3.8709    4.7787 C   0  0  0  0  0  0  0  0  0  0  0  0
    3.4715   -4.9795    2.6223 C   0  0  0  0  0  0  0  0  0  0  0  0
    2.4770   -5.5683    3.0433 O   0  0  0  0  0  0  0  0  0  0  0  0
    4.2762   -5.5449    1.3762 C   0  0  0  0  0  0  0  0  0  0  0  0
    5.2441   -4.5467    0.5987 C   0  0  1  0  0  0  0  0  0  0  0  0
    4.8297   -4.1575   -0.7375 O   0  0  0  0  0  0  0  0  0  0  0  0
    3.2396   -2.2018    2.9561 C   0  0  1  0  0  0  0  0  0  0  0  0
    1.7111   -2.3661    3.1316 C   0  0  0  0  0  0  0  0  0  0  0  0
    3.6435   -1.1887    3.9527 C   0  0  0  0  0  0  0  0  0  0  0  0
    3.9498   -0.3934    4.7360 N   0  0  0  0  0  0  0  0  0  0  0  0
    3.5801   -1.5817    1.5149 C   0  0  2  0  0  0  0  0  0  0  0  0
    3.7396   -2.8221    0.7019 C   0  0  1  0  0  0  0  0  0  0  0  0
    2.2299   -2.2528   -1.7294 H   0  0  0  0  0  0  0  0  0  0  0  0
    2.3012   -3.9786   -1.4072 H   0  0  0  0  0  0  0  0  0  0  0  0
    3.2268   -3.2944   -2.7392 H   0  0  0  0  0  0  0  0  0  0  0  0
    5.6776   -1.9890   -1.9947 H   0  0  0  0  0  0  0  0  0  0  0  0
    4.3404   -0.9112   -1.6383 H   0  0  0  0  0  0  0  0  0  0  0  0
    6.4520   -0.3627   -0.2613 H   0  0  0  0  0  0  0  0  0  0  0  0
    5.2626   -0.1195    1.9498 H   0  0  0  0  0  0  0  0  0  0  0  0
    6.9518   -2.0047    1.5757 H   0  0  0  0  0  0  0  0  0  0  0  0
    3.2566   -3.8953    5.3307 H   0  0  0  0  0  0  0  0  0  0  0  0
    4.8309   -3.1036    5.2241 H   0  0  0  0  0  0  0  0  0  0  0  0
    4.7036   -4.8230    4.9503 H   0  0  0  0  0  0  0  0  0  0  0  0
    4.8622   -6.3898    1.7372 H   0  0  0  0  0  0  0  0  0  0  0  0
    3.5545   -5.9617    0.6720 H   0  0  0  0  0  0  0  0  0  0  0  0
    6.2692   -4.9177    0.5967 H   0  0  0  0  0  0  0  0  0  0  0  0
    1.2829   -3.0753    2.4272 H   0  0  0  0  0  0  0  0  0  0  0  0
    1.1867   -1.4162    3.0016 H   0  0  0  0  0  0  0  0  0  0  0  0
    1.4715   -2.7358    4.1288 H   0  0  0  0  0  0  0  0  0  0  0  0
    2.8032   -0.9134    1.1305 H   0  0  0  0  0  0  0  0  0  0  0  0
    2.8521   -3.4424    0.8154 H   0  0  0  0  0  0  0  0  0  0  0  0
  2  1  1  6
  1 22  1  0
  1 23  1  0
  1 24  1  0
  2 15  1  0
  2 21  1  0
  2  3  1  0
  3  4  1  0
  3 25  1  0
  3 26  1  0
  4  6  1  0
  4  5  1  0
  4 27  1  6
  5 20  1  0
  5  6  1  0
  5 28  1  1
  6  7  1  0
  6 29  1  1
  7 14  1  0
  7 21  1  0
  7  8  1  1
  8  9  1  0
  9 10  1  1
  9 11  1  0
  9 16  1  0
 10 30  1  0
 10 31  1  0
 10 32  1  0
 11 12  2  0
 11 13  1  0
 13 14  1  0
 13 33  1  0
 13 34  1  0
 14 15  1  0
 14 35  1  6
 16 17  1  0
 16 18  1  1
 16 20  1  0
 17 36  1  0
 17 37  1  0
 17 38  1  0
 18 19  3  0
 20 21  1  0
 20 39  1  6
 21 40  1  6
M  END
>  <i_m_ct_stereo_status>  (331) 
1

>  <s_m_source_file>  (331) 
/var/tmp/pbs.5076255.sched01/tmp7b2cfgi2/13234zcpj2x.sdf

>  <i_m_source_file_index>  (331) 
8

>  <i_lp_mmshare_version>  (331) 
48012

>  <i_f3d_flags>  (331) 
0

>  <s_epik_input>  (331) 
W0NAQF0xMjNbQ0BIXTRbQ0BASF01W0NASF00W0NASF02W0NASF0zW0NAQF0oW0NIM10pKFtDSDJdNSlPW0NAQEhdMltDSDJdQyg9TylbQ0BdKE8xKShbQ0gzXSlbQ0BAXTYoW0NIM10pQyNO

>  <s_epik_cmdline>  (331) 
J2VwaWtfcHl0aG9uJywgJy1waHQnLCAnMi4wJywgJy1waCcsICc3LjAnLCAnLXRuJywgJzgnLCAnLW1hJywgJzIwMCcsICctaW1hZScsICc8aW5maWxlLm1hZT4nLCAnLW9tYWUnLCAnPG91dGZpbGUubWFlPic=

>  <r_lp_tautomer_probability>  (331) 
1

>  <r_epik_Ionization_Penalty>  (331) 
1.13534e-10

>  <r_epik_Ionization_Penalty_Charging>  (331) 
0

>  <r_epik_Ionization_Penalty_Neutral>  (331) 
1.13534e-10

>  <r_epik_State_Penalty>  (331) 
-0

>  <r_epik_Charging_Adjusted_Penalty>  (331) 
0

>  <i_epik_Tot_Q>  (331) 
0

>  <i_epik_Tot_abs_Q>  (331) 
0

>  <s_lp_Force_Field>  (331) 
OPLS3e

>  <r_lp_Energy>  (331) 
94.8573

>  <b_lp_Chiralities_Consistent>  (331) 
1

>  <s_lp_Variant>  (331) 
90:0-1

>  <s_i_glide_gridfile>  (331) 
pfpi4k_grid

>  <i_i_glide_lignum>  (331) 
8

>  <i_i_glide_rotatable_bonds>  (331) 
1

>  <r_i_docking_score>  (331) 
-2.97011

>  <r_i_glide_ligand_efficiency>  (331) 
-0.141434

>  <r_i_glide_ligand_efficiency_sa>  (331) 
-0.390205

>  <r_i_glide_ligand_efficiency_ln>  (331) 
-0.734353

>  <r_i_glide_gscore>  (331) 
-2.97011

>  <r_i_glide_lipo>  (331) 
-0.417291

>  <r_i_glide_hbond>  (331) 
0

>  <r_i_glide_metal>  (331) 
-0

>  <r_i_glide_rewards>  (331) 
-1.46532

>  <r_i_glide_evdw>  (331) 
-19.3378

>  <r_i_glide_ecoul>  (331) 
-0.804019

>  <r_i_glide_erotb>  (331) 
0

>  <r_i_glide_esite>  (331) 
0

>  <r_i_glide_emodel>  (331) 
-24.2893

>  <r_i_glide_energy>  (331) 
-20.1419

>  <r_i_glide_einternal>  (331) 
0.454696

>  <r_i_glide_intrahb_reward>  (331) 
-0

>  <i_i_glide_confnum>  (331) 
1

>  <i_i_glide_posenum>  (331) 
1

>  <r_i_glide_eff_state_penalty>  (331) 
0

>  <ligand_id>  (331) 
90

>  <original_smiles>  (331) 
CC12CC3C4C3C35OC(C)(C(=O)CC3O1)C(C)(C#N)C4C25

>  <smiles>  (331) 
[H]C([H])([H])C12OC34C([H])(OC5(C([H])([H])[H])C([H])([H])C6([H])C([H])(C([H])(C53[H])C1(C#N)C([H])([H])[H])C64[H])C([H])([H])C2=O

$$$$
91:0:0
     RDKit          3D

 68 74  0  0  1  0  0  0  0  0999 V2000
    1.0123  -10.1116    5.3282 C   0  0  0  0  0  0  0  0  0  0  0  0
    0.9660   -9.4543    3.9242 C   0  0  0  0  0  0  0  0  0  0  0  0
    1.0387  -10.6209    2.9126 C   0  0  0  0  0  0  0  0  0  0  0  0
   -0.4129   -8.7571    3.6478 C   0  0  0  0  0  0  0  0  0  0  0  0
   -0.6546   -7.3433    4.2381 C   0  0  0  0  0  0  0  0  0  0  0  0
    0.5328   -6.3527    4.1054 C   0  0  1  0  0  0  0  0  0  0  0  0
    0.2168   -5.1521    4.7843 O   0  0  0  0  0  0  0  0  0  0  0  0
    1.8603   -6.9779    4.6144 C   0  0  1  0  0  0  0  0  0  0  0  0
    1.5044   -7.3542    5.9350 O   0  0  0  0  0  0  0  0  0  0  0  0
    2.0994   -8.3875    3.6866 C   0  0  1  0  0  0  0  0  0  0  0  0
    3.5796   -8.8652    2.9713 C   0  0  1  0  0  0  0  0  0  0  0  0
    3.3412   -9.3713    1.6716 O   0  0  0  0  0  0  0  0  0  0  0  0
    5.0119   -7.9666    2.8485 C   0  0  2  0  0  0  0  0  0  0  0  0
    6.0573   -8.8880    3.1188 O   0  0  0  0  0  0  0  0  0  0  0  0
    4.8593   -7.1152    3.9504 C   0  0  2  0  0  0  0  0  0  0  0  0
    4.6780   -7.7376    5.3428 C   0  0  0  0  0  0  0  0  0  0  0  0
    4.0468   -6.5557    5.9809 C   0  0  0  0  0  0  0  0  0  0  0  0
    3.1385   -5.9583    4.8393 C   0  0  2  0  0  0  0  0  0  0  0  0
    3.6819   -4.4712    4.6531 C   0  0  1  0  0  0  0  0  0  0  0  0
    3.6415   -3.7711    5.8805 O   0  0  0  0  0  0  0  0  0  0  0  0
    5.2683   -4.3626    4.0508 C   0  0  0  0  0  0  0  0  0  0  0  0
    5.8285   -5.0305    2.5781 C   0  0  2  0  0  0  0  0  0  0  0  0
    5.2751   -3.9672    1.6399 C   0  0  0  0  0  0  0  0  0  0  0  0
    5.9627   -3.2731    0.8895 O   0  0  0  0  0  0  0  0  0  0  0  0
    3.7600   -3.8568    1.7703 C   0  0  0  0  0  0  0  0  0  0  0  0
    3.2711   -5.2984    2.0569 C   0  0  1  0  0  0  0  0  0  0  0  0
    2.2362   -5.9475    1.2680 O   0  0  0  0  0  0  0  0  0  0  0  0
    3.4940   -5.8622    0.6282 C   0  0  2  0  0  0  0  0  0  0  0  0
    4.7230   -6.7344    0.6220 C   0  0  0  0  0  0  0  0  0  0  0  0
    5.5907   -6.6687    1.9225 C   0  0  2  0  0  0  0  0  0  0  0  0
    7.0274   -7.0145    1.4325 C   0  0  0  0  0  0  0  0  0  0  0  0
    3.6515   -6.1459    3.4722 C   0  0  1  0  0  0  0  0  0  0  0  0
    0.6093  -11.1265    5.3164 H   0  0  0  0  0  0  0  0  0  0  0  0
    0.4092   -9.5834    6.0674 H   0  0  0  0  0  0  0  0  0  0  0  0
    2.0341  -10.1846    5.7051 H   0  0  0  0  0  0  0  0  0  0  0  0
    0.9752  -10.2581    1.8865 H   0  0  0  0  0  0  0  0  0  0  0  0
    0.2158  -11.3203    3.0461 H   0  0  0  0  0  0  0  0  0  0  0  0
    1.9576  -11.1997    3.0180 H   0  0  0  0  0  0  0  0  0  0  0  0
   -0.5513   -8.6677    2.5687 H   0  0  0  0  0  0  0  0  0  0  0  0
   -1.2184   -9.4139    3.9761 H   0  0  0  0  0  0  0  0  0  0  0  0
   -1.5279   -6.9122    3.7488 H   0  0  0  0  0  0  0  0  0  0  0  0
   -0.9524   -7.4419    5.2812 H   0  0  0  0  0  0  0  0  0  0  0  0
    0.6314   -6.0860    3.0562 H   0  0  0  0  0  0  0  0  0  0  0  0
    0.9722   -4.5850    4.7601 H   0  0  0  0  0  0  0  0  0  0  0  0
    0.8775   -8.0570    5.8720 H   0  0  0  0  0  0  0  0  0  0  0  0
    1.6752   -8.0569    2.7359 H   0  0  0  0  0  0  0  0  0  0  0  0
    3.8362   -9.7520    3.5519 H   0  0  0  0  0  0  0  0  0  0  0  0
    3.8175  -10.1846    1.5608 H   0  0  0  0  0  0  0  0  0  0  0  0
    5.7611   -9.4845    3.7869 H   0  0  0  0  0  0  0  0  0  0  0  0
    5.8413   -6.6979    4.1791 H   0  0  0  0  0  0  0  0  0  0  0  0
    4.0245   -8.6050    5.4254 H   0  0  0  0  0  0  0  0  0  0  0  0
    5.6283   -7.9937    5.8192 H   0  0  0  0  0  0  0  0  0  0  0  0
    3.5483   -6.8059    6.9181 H   0  0  0  0  0  0  0  0  0  0  0  0
    4.8515   -5.8924    6.2968 H   0  0  0  0  0  0  0  0  0  0  0  0
    2.9251   -3.8984    4.1311 H   0  0  0  0  0  0  0  0  0  0  0  0
    4.2231   -4.1948    6.4930 H   0  0  0  0  0  0  0  0  0  0  0  0
    5.4915   -3.2942    4.0275 H   0  0  0  0  0  0  0  0  0  0  0  0
    5.9551   -4.6999    4.8260 H   0  0  0  0  0  0  0  0  0  0  0  0
    6.9061   -4.8651    2.5799 H   0  0  0  0  0  0  0  0  0  0  0  0
    3.4683   -3.0986    2.4862 H   0  0  0  0  0  0  0  0  0  0  0  0
    3.3485   -3.5013    0.8261 H   0  0  0  0  0  0  0  0  0  0  0  0
    3.4083   -5.2594   -0.2767 H   0  0  0  0  0  0  0  0  0  0  0  0
    4.4827   -7.7458    0.3053 H   0  0  0  0  0  0  0  0  0  0  0  0
    5.3248   -6.3468   -0.2025 H   0  0  0  0  0  0  0  0  0  0  0  0
    7.4059   -6.2542    0.7477 H   0  0  0  0  0  0  0  0  0  0  0  0
    7.0594   -7.9706    0.9037 H   0  0  0  0  0  0  0  0  0  0  0  0
    7.7312   -7.0706    2.2638 H   0  0  0  0  0  0  0  0  0  0  0  0
    3.0975   -6.7199    2.8698 H   0  0  0  0  0  0  0  0  0  0  0  0
  1  2  1  0
  1 33  1  0
  1 34  1  0
  1 35  1  0
  2 10  1  0
  2  3  1  0
  2  4  1  0
  3 36  1  0
  3 37  1  0
  3 38  1  0
  4  5  1  0
  4 39  1  0
  4 40  1  0
  5  6  1  0
  5 41  1  0
  5 42  1  0
  6  7  1  0
  6  8  1  0
  6 43  1  6
  7 44  1  0
  8 18  1  0
  8  9  1  1
  8 10  1  0
  9 45  1  0
 10 11  1  0
 10 46  1  6
 11 12  1  0
 11 13  1  0
 11 47  1  1
 12 48  1  0
 13 30  1  0
 13 14  1  1
 13 15  1  0
 14 49  1  0
 15 32  1  0
 15 16  1  0
 15 50  1  1
 16 17  1  0
 16 51  1  0
 16 52  1  0
 18 17  1  1
 17 53  1  0
 17 54  1  0
 18 32  1  0
 18 19  1  0
 19 20  1  0
 19 21  1  0
 19 55  1  6
 20 56  1  0
 21 22  1  0
 21 57  1  0
 21 58  1  0
 22 30  1  0
 22 23  1  0
 22 59  1  1
 23 24  2  0
 23 25  1  0
 25 26  1  0
 25 60  1  0
 25 61  1  0
 26 28  1  0
 26 27  1  1
 26 32  1  0
 27 28  1  0
 28 29  1  0
 28 62  1  6
 29 30  1  0
 29 63  1  0
 29 64  1  0
 30 31  1  6
 31 65  1  0
 31 66  1  0
 31 67  1  0
 32 68  1  6
M  END
>  <i_m_ct_stereo_status>  (332) 
1

>  <s_m_source_file>  (332) 
/var/tmp/pbs.5076255.sched01/tmp7b2cfgi2/13234zcpj2x.sdf

>  <i_m_source_file_index>  (332) 
9

>  <i_lp_mmshare_version>  (332) 
48012

>  <i_f3d_flags>  (332) 
0

>  <s_epik_input>  (332) 
W09IXVtDQEBIXTFbQ0gyXVtDSDJdQyhbQ0gzXSkoW0NIM10pW0NAQEhdKFtDQF0xKFtDQF0yMzQpW09IXSlbQ0BASF0oW09IXSlbQ0BdNShbT0hdKVtDQEhdKFtDSDJdW0NIMl0yKVtDQEBIXTRbQ0BdNjdbQ0BIXShPNylbQ0gyXVtDQEBdNShbQ0gzXSlbQ0BASF0oQyg9TylbQ0gyXTYpW0NIMl1bQ0BASF0zW09IXQ==

>  <s_epik_cmdline>  (332) 
J2VwaWtfcHl0aG9uJywgJy1waHQnLCAnMi4wJywgJy1waCcsICc3LjAnLCAnLXRuJywgJzgnLCAnLW1hJywgJzIwMCcsICctaW1hZScsICc8aW5maWxlLm1hZT4nLCAnLW9tYWUnLCAnPG91dGZpbGUubWFlPic=

>  <r_lp_tautomer_probability>  (332) 
1

>  <r_epik_Ionization_Penalty>  (332) 
2.29128e-06

>  <r_epik_Ionization_Penalty_Charging>  (332) 
0

>  <r_epik_Ionization_Penalty_Neutral>  (332) 
2.29128e-06

>  <r_epik_State_Penalty>  (332) 
-0

>  <r_epik_Charging_Adjusted_Penalty>  (332) 
0

>  <i_epik_Tot_Q>  (332) 
0

>  <i_epik_Tot_abs_Q>  (332) 
0

>  <s_lp_Force_Field>  (332) 
OPLS3e

>  <r_lp_Energy>  (332) 
431.538

>  <b_lp_Chiralities_Consistent>  (332) 
1

>  <s_lp_Variant>  (332) 
91:0-1

>  <s_i_glide_gridfile>  (332) 
pfpi4k_grid

>  <i_i_glide_lignum>  (332) 
9

>  <i_i_glide_rotatable_bonds>  (332) 
5

>  <r_i_docking_score>  (332) 
-2.67877

>  <r_i_glide_ligand_efficiency>  (332) 
-0.0837116

>  <r_i_glide_ligand_efficiency_sa>  (332) 
-0.265768

>  <r_i_glide_ligand_efficiency_ln>  (332) 
-0.59985

>  <r_i_glide_gscore>  (332) 
-2.67877

>  <r_i_glide_lipo>  (332) 
-0.445327

>  <r_i_glide_hbond>  (332) 
0

>  <r_i_glide_metal>  (332) 
-0

>  <r_i_glide_rewards>  (332) 
-0.405279

>  <r_i_glide_evdw>  (332) 
-27.3594

>  <r_i_glide_ecoul>  (332) 
-3.06798

>  <r_i_glide_erotb>  (332) 
0

>  <r_i_glide_esite>  (332) 
0

>  <r_i_glide_emodel>  (332) 
-35.02

>  <r_i_glide_energy>  (332) 
-30.4274

>  <r_i_glide_einternal>  (332) 
1.58484

>  <r_i_glide_intrahb_reward>  (332) 
-0

>  <i_i_glide_confnum>  (332) 
1

>  <i_i_glide_posenum>  (332) 
16

>  <r_i_glide_eff_state_penalty>  (332) 
0

>  <ligand_id>  (332) 
91

>  <original_smiles>  (332) 
CC1(C)CCC(O)C2(O)C1C(O)C1(O)C3CCC24C(O)CC2C(=O)CC5(OC5CC21C)C34

>  <smiles>  (332) 
[H]OC1([H])C2([H])C(O[H])(C([H])(O[H])C([H])([H])C([H])([H])C2(C([H])([H])[H])C([H])([H])[H])C23C([H])([H])C([H])([H])C4([H])C2([H])C25OC2([H])C([H])([H])C(C([H])([H])[H])(C([H])(C(=O)C5([H])[H])C([H])([H])C3([H])O[H])C14O[H]

$$$$
91:0:1
     RDKit          3D

 68 74  0  0  1  0  0  0  0  0999 V2000
    1.6181   -4.4844    7.4101 C   0  0  0  0  0  0  0  0  0  0  0  0
    1.2140   -4.4592    5.9140 C   0  0  0  0  0  0  0  0  0  0  0  0
    0.9322   -5.9398    5.5423 C   0  0  0  0  0  0  0  0  0  0  0  0
   -0.1398   -3.7199    5.6911 C   0  0  0  0  0  0  0  0  0  0  0  0
   -0.1503   -2.1717    5.6321 C   0  0  0  0  0  0  0  0  0  0  0  0
    0.9869   -1.5445    4.7810 C   0  0  1  0  0  0  0  0  0  0  0  0
    0.9266   -0.1382    4.8992 O   0  0  0  0  0  0  0  0  0  0  0  0
    2.3729   -2.1090    5.1908 C   0  0  1  0  0  0  0  0  0  0  0  0
    2.3739   -1.8333    6.5856 O   0  0  0  0  0  0  0  0  0  0  0  0
    2.2797   -3.7933    4.9669 C   0  0  1  0  0  0  0  0  0  0  0  0
    3.4715   -4.7610    4.2187 C   0  0  1  0  0  0  0  0  0  0  0  0
    2.8668   -5.7154    3.3714 O   0  0  0  0  0  0  0  0  0  0  0  0
    4.8399   -4.2521    3.3733 C   0  0  2  0  0  0  0  0  0  0  0  0
    5.8561   -5.1505    3.7707 O   0  0  0  0  0  0  0  0  0  0  0  0
    5.0321   -3.0113    3.9829 C   0  0  2  0  0  0  0  0  0  0  0  0
    5.2343   -2.9621    5.5108 C   0  0  0  0  0  0  0  0  0  0  0  0
    4.8694   -1.5319    5.6867 C   0  0  0  0  0  0  0  0  0  0  0  0
    3.7083   -1.3168    4.6400 C   0  0  2  0  0  0  0  0  0  0  0  0
    4.2431   -0.1649    3.6905 C   0  0  1  0  0  0  0  0  0  0  0  0
    4.5896    0.9671    4.4574 O   0  0  0  0  0  0  0  0  0  0  0  0
    5.5931   -0.5876    2.7505 C   0  0  0  0  0  0  0  0  0  0  0  0
    5.7038   -1.8835    1.6470 C   0  0  2  0  0  0  0  0  0  0  0  0
    4.9671   -1.2348    0.4816 C   0  0  0  0  0  0  0  0  0  0  0  0
    5.4548   -1.0566   -0.6342 O   0  0  0  0  0  0  0  0  0  0  0  0
    3.5693   -0.8098    0.9039 C   0  0  0  0  0  0  0  0  0  0  0  0
    3.1351   -1.9035    1.9015 C   0  0  1  0  0  0  0  0  0  0  0  0
    1.9000   -2.6468    1.7774 O   0  0  0  0  0  0  0  0  0  0  0  0
    2.9161   -3.0384    0.8724 C   0  0  2  0  0  0  0  0  0  0  0  0
    4.0275   -4.0355    0.9569 C   0  0  0  0  0  0  0  0  0  0  0  0
    5.2070   -3.5704    1.8662 C   0  0  2  0  0  0  0  0  0  0  0  0
    6.4230   -4.3331    1.2585 C   0  0  0  0  0  0  0  0  0  0  0  0
    3.8137   -2.1338    3.4217 C   0  0  1  0  0  0  0  0  0  0  0  0
    1.1742   -5.3219    7.9505 H   0  0  0  0  0  0  0  0  0  0  0  0
    1.2830   -3.5895    7.9364 H   0  0  0  0  0  0  0  0  0  0  0  0
    2.7003   -4.5593    7.5270 H   0  0  0  0  0  0  0  0  0  0  0  0
    0.6036   -6.0360    4.5042 H   0  0  0  0  0  0  0  0  0  0  0  0
    0.1358   -6.3746    6.1511 H   0  0  0  0  0  0  0  0  0  0  0  0
    1.8135   -6.5727    5.6682 H   0  0  0  0  0  0  0  0  0  0  0  0
   -0.5051   -4.0598    4.7294 H   0  0  0  0  0  0  0  0  0  0  0  0
   -0.8707   -4.0486    6.4358 H   0  0  0  0  0  0  0  0  0  0  0  0
   -1.1022   -1.8543    5.2030 H   0  0  0  0  0  0  0  0  0  0  0  0
   -0.1452   -1.7654    6.6417 H   0  0  0  0  0  0  0  0  0  0  0  0
    0.7939   -1.7667    3.7351 H   0  0  0  0  0  0  0  0  0  0  0  0
    1.5630    0.2453    4.3207 H   0  0  0  0  0  0  0  0  0  0  0  0
    3.1754   -2.1641    6.9563 H   0  0  0  0  0  0  0  0  0  0  0  0
    1.6201   -3.8255    4.0986 H   0  0  0  0  0  0  0  0  0  0  0  0
    3.8368   -5.3664    5.0483 H   0  0  0  0  0  0  0  0  0  0  0  0
    3.5184   -6.3677    3.1679 H   0  0  0  0  0  0  0  0  0  0  0  0
    5.8092   -5.2778    4.7048 H   0  0  0  0  0  0  0  0  0  0  0  0
    6.0447   -2.6956    3.7722 H   0  0  0  0  0  0  0  0  0  0  0  0
    4.6005   -3.5965    6.1268 H   0  0  0  0  0  0  0  0  0  0  0  0
    6.2709   -3.1503    5.8092 H   0  0  0  0  0  0  0  0  0  0  0  0
    4.6552   -1.2660    6.7223 H   0  0  0  0  0  0  0  0  0  0  0  0
    5.7607   -0.9398    5.4665 H   0  0  0  0  0  0  0  0  0  0  0  0
    3.3995    0.2592    3.1616 H   0  0  0  0  0  0  0  0  0  0  0  0
    4.6563    1.7156    3.8827 H   0  0  0  0  0  0  0  0  0  0  0  0
    5.8325    0.3117    2.1928 H   0  0  0  0  0  0  0  0  0  0  0  0
    6.4625   -0.6500    3.3982 H   0  0  0  0  0  0  0  0  0  0  0  0
    6.7469   -1.9048    1.3330 H   0  0  0  0  0  0  0  0  0  0  0  0
    3.5127    0.2095    1.2503 H   0  0  0  0  0  0  0  0  0  0  0  0
    2.9127   -0.8266    0.0314 H   0  0  0  0  0  0  0  0  0  0  0  0
    2.5736   -2.8605   -0.1547 H   0  0  0  0  0  0  0  0  0  0  0  0
    3.6416   -5.0212    1.1949 H   0  0  0  0  0  0  0  0  0  0  0  0
    4.3847   -4.1460   -0.0660 H   0  0  0  0  0  0  0  0  0  0  0  0
    6.6332   -4.0021    0.2389 H   0  0  0  0  0  0  0  0  0  0  0  0
    6.2569   -5.4142    1.2105 H   0  0  0  0  0  0  0  0  0  0  0  0
    7.3353   -4.1669    1.8277 H   0  0  0  0  0  0  0  0  0  0  0  0
    3.0837   -2.8048    3.2979 H   0  0  0  0  0  0  0  0  0  0  0  0
  1  2  1  0
  1 33  1  0
  1 34  1  0
  1 35  1  0
  2 10  1  0
  2  3  1  0
  2  4  1  0
  3 36  1  0
  3 37  1  0
  3 38  1  0
  4  5  1  0
  4 39  1  0
  4 40  1  0
  5  6  1  0
  5 41  1  0
  5 42  1  0
  6  7  1  0
  6  8  1  0
  6 43  1  6
  7 44  1  0
  8 18  1  0
  8  9  1  1
  8 10  1  0
  9 45  1  0
 10 11  1  0
 10 46  1  6
 11 12  1  0
 11 13  1  0
 11 47  1  1
 12 48  1  0
 13 30  1  0
 13 14  1  1
 13 15  1  0
 14 49  1  0
 15 32  1  0
 15 16  1  0
 15 50  1  6
 16 17  1  0
 16 51  1  0
 16 52  1  0
 18 17  1  1
 17 53  1  0
 17 54  1  0
 18 32  1  0
 18 19  1  0
 19 20  1  0
 19 21  1  0
 19 55  1  6
 20 56  1  0
 21 22  1  0
 21 57  1  0
 21 58  1  0
 22 30  1  0
 22 23  1  0
 22 59  1  6
 23 24  2  0
 23 25  1  0
 25 26  1  0
 25 60  1  0
 25 61  1  0
 26 28  1  0
 26 27  1  1
 26 32  1  0
 27 28  1  0
 28 29  1  0
 28 62  1  6
 29 30  1  0
 29 63  1  0
 29 64  1  0
 30 31  1  6
 31 65  1  0
 31 66  1  0
 31 67  1  0
 32 68  1  1
M  END
>  <i_m_ct_stereo_status>  (333) 
1

>  <s_m_source_file>  (333) 
/var/tmp/pbs.5076255.sched01/tmp7b2cfgi2/13234zcpj2x.sdf

>  <i_m_source_file_index>  (333) 
9

>  <i_lp_mmshare_version>  (333) 
48012

>  <i_f3d_flags>  (333) 
0

>  <s_epik_input>  (333) 
W09IXVtDQEBIXTFbQ0gyXVtDSDJdQyhbQ0gzXSkoW0NIM10pW0NAQEhdKFtDQF0xKFtDQF0yMzQpW09IXSlbQ0BASF0oW09IXSlbQ0BdNShbT0hdKVtDQEhdKFtDSDJdW0NIMl0yKVtDQEBIXTRbQ0BdNjdbQ0BIXShPNylbQ0gyXVtDQEBdNShbQ0gzXSlbQ0BASF0oQyg9TylbQ0gyXTYpW0NIMl1bQ0BASF0zW09IXQ==

>  <s_epik_cmdline>  (333) 
J2VwaWtfcHl0aG9uJywgJy1waHQnLCAnMi4wJywgJy1waCcsICc3LjAnLCAnLXRuJywgJzgnLCAnLW1hJywgJzIwMCcsICctaW1hZScsICc8aW5maWxlLm1hZT4nLCAnLW9tYWUnLCAnPG91dGZpbGUubWFlPic=

>  <r_lp_tautomer_probability>  (333) 
1

>  <r_epik_Ionization_Penalty>  (333) 
2.29128e-06

>  <r_epik_Ionization_Penalty_Charging>  (333) 
0

>  <r_epik_Ionization_Penalty_Neutral>  (333) 
2.29128e-06

>  <r_epik_State_Penalty>  (333) 
-0

>  <r_epik_Charging_Adjusted_Penalty>  (333) 
0

>  <i_epik_Tot_Q>  (333) 
0

>  <i_epik_Tot_abs_Q>  (333) 
0

>  <s_lp_Force_Field>  (333) 
OPLS3e

>  <r_lp_Energy>  (333) 
431.538

>  <b_lp_Chiralities_Consistent>  (333) 
1

>  <s_lp_Variant>  (333) 
91:0-1

>  <s_i_glide_gridfile>  (333) 
pfpi4k_grid

>  <i_i_glide_lignum>  (333) 
9

>  <i_i_glide_rotatable_bonds>  (333) 
5

>  <r_i_docking_score>  (333) 
-2.33323

>  <r_i_glide_ligand_efficiency>  (333) 
-0.0729134

>  <r_i_glide_ligand_efficiency_sa>  (333) 
-0.231486

>  <r_i_glide_ligand_efficiency_ln>  (333) 
-0.522474

>  <r_i_glide_gscore>  (333) 
-2.33323

>  <r_i_glide_lipo>  (333) 
-0.471755

>  <r_i_glide_hbond>  (333) 
-0.168623

>  <r_i_glide_metal>  (333) 
-0

>  <r_i_glide_rewards>  (333) 
-0.436634

>  <r_i_glide_evdw>  (333) 
-20.7507

>  <r_i_glide_ecoul>  (333) 
-1.45787

>  <r_i_glide_erotb>  (333) 
0

>  <r_i_glide_esite>  (333) 
0

>  <r_i_glide_emodel>  (333) 
-26.2866

>  <r_i_glide_energy>  (333) 
-22.2086

>  <r_i_glide_einternal>  (333) 
1.13883

>  <r_i_glide_intrahb_reward>  (333) 
-0

>  <i_i_glide_confnum>  (333) 
1

>  <i_i_glide_posenum>  (333) 
2

>  <r_i_glide_eff_state_penalty>  (333) 
0

>  <ligand_id>  (333) 
91

>  <original_smiles>  (333) 
CC1(C)CCC(O)C2(O)C1C(O)C1(O)C3CCC24C(O)CC2C(=O)CC5(OC5CC21C)C34

>  <smiles>  (333) 
[H]OC1([H])C2([H])C(O[H])(C([H])(O[H])C([H])([H])C([H])([H])C2(C([H])([H])[H])C([H])([H])[H])C23C([H])([H])C([H])([H])C4([H])C2([H])C25OC2([H])C([H])([H])C(C([H])([H])[H])(C([H])(C(=O)C5([H])[H])C([H])([H])C3([H])O[H])C14O[H]

$$$$
91:0:2
     RDKit          3D

 68 74  0  0  1  0  0  0  0  0999 V2000
    1.1739   -3.9502    7.7920 C   0  0  0  0  0  0  0  0  0  0  0  0
    0.7660   -3.9030    6.2974 C   0  0  0  0  0  0  0  0  0  0  0  0
    0.3686   -5.3506    5.9183 C   0  0  0  0  0  0  0  0  0  0  0  0
   -0.5298   -3.0456    6.0832 C   0  0  0  0  0  0  0  0  0  0  0  0
   -0.3998   -1.5013    6.0158 C   0  0  0  0  0  0  0  0  0  0  0  0
    0.7941   -0.9705    5.1767 C   0  0  1  0  0  0  0  0  0  0  0  0
    0.8842    0.4334    5.3305 O   0  0  0  0  0  0  0  0  0  0  0  0
    2.1234   -1.6575    5.5864 C   0  0  1  0  0  0  0  0  0  0  0  0
    2.1540   -1.3734    6.9779 O   0  0  0  0  0  0  0  0  0  0  0  0
    1.8868   -3.3241    5.3519 C   0  0  1  0  0  0  0  0  0  0  0  0
    3.0018   -4.3818    4.5992 C   0  0  1  0  0  0  0  0  0  0  0  0
    2.3126   -5.2741    3.7460 O   0  0  0  0  0  0  0  0  0  0  0  0
    4.4208   -3.9822    3.7612 C   0  0  2  0  0  0  0  0  0  0  0  0
    5.3761   -4.9517    4.1646 O   0  0  0  0  0  0  0  0  0  0  0  0
    4.7282   -2.7608    4.3704 C   0  0  2  0  0  0  0  0  0  0  0  0
    4.9193   -2.7274    5.8927 C   0  0  0  0  0  0  0  0  0  0  0  0
    4.6634   -1.2768    6.0679 C   0  0  0  0  0  0  0  0  0  0  0  0
    3.5187   -0.9740    5.0271 C   0  0  2  0  0  0  0  0  0  0  0  0
    4.1394    0.1451    4.0776 C   0  0  1  0  0  0  0  0  0  0  0  0
    4.5636    1.2529    4.8467 O   0  0  0  0  0  0  0  0  0  0  0  0
    5.4577   -0.3750    3.1356 C   0  0  0  0  0  0  0  0  0  0  0  0
    5.4580   -1.6843    2.0303 C   0  0  2  0  0  0  0  0  0  0  0  0
    4.7742   -0.9728    0.8725 C   0  0  0  0  0  0  0  0  0  0  0  0
    5.2735   -0.8295   -0.2454 O   0  0  0  0  0  0  0  0  0  0  0  0
    3.4016   -0.4518    1.2894 C   0  0  0  0  0  0  0  0  0  0  0  0
    2.8642   -1.5012    2.2972 C   0  0  1  0  0  0  0  0  0  0  0  0
    1.5719   -2.1458    2.1482 O   0  0  0  0  0  0  0  0  0  0  0  0
    2.5653   -2.6151    1.2589 C   0  0  2  0  0  0  0  0  0  0  0  0
    3.6031   -3.6978    1.3488 C   0  0  0  0  0  0  0  0  0  0  0  0
    4.8329   -3.3405    2.2443 C   0  0  2  0  0  0  0  0  0  0  0  0
    5.9717   -4.1999    1.6211 C   0  0  0  0  0  0  0  0  0  0  0  0
    3.5588   -1.7951    3.8098 C   0  0  1  0  0  0  0  0  0  0  0  0
    0.6676   -4.7506    8.3332 H   0  0  0  0  0  0  0  0  0  0  0  0
    0.9181   -3.0317    8.3202 H   0  0  0  0  0  0  0  0  0  0  0  0
    2.2468   -4.1129    7.9040 H   0  0  0  0  0  0  0  0  0  0  0  0
    0.0329   -5.4140    4.8820 H   0  0  0  0  0  0  0  0  0  0  0  0
   -0.4559   -5.7164    6.5327 H   0  0  0  0  0  0  0  0  0  0  0  0
    1.1991   -6.0465    6.0487 H   0  0  0  0  0  0  0  0  0  0  0  0
   -0.9734   -3.3371    5.1345 H   0  0  0  0  0  0  0  0  0  0  0  0
   -1.2714   -3.3118    6.8374 H   0  0  0  0  0  0  0  0  0  0  0  0
   -1.3204   -1.1012    5.5893 H   0  0  0  0  0  0  0  0  0  0  0  0
   -0.3592   -1.1008    7.0277 H   0  0  0  0  0  0  0  0  0  0  0  0
    0.5802   -1.1567    4.1253 H   0  0  0  0  0  0  0  0  0  0  0  0
    1.4970    0.7702    4.6958 H   0  0  0  0  0  0  0  0  0  0  0  0
    2.1897   -0.4327    7.0651 H   0  0  0  0  0  0  0  0  0  0  0  0
    1.2283   -3.2922    4.4818 H   0  0  0  0  0  0  0  0  0  0  0  0
    3.3248   -5.0113    5.4284 H   0  0  0  0  0  0  0  0  0  0  0  0
    2.8809   -6.0059    3.5730 H   0  0  0  0  0  0  0  0  0  0  0  0
    5.1901   -5.7588    3.7129 H   0  0  0  0  0  0  0  0  0  0  0  0
    5.7732   -2.5432    4.1510 H   0  0  0  0  0  0  0  0  0  0  0  0
    4.2271   -3.3096    6.4979 H   0  0  0  0  0  0  0  0  0  0  0  0
    5.9313   -3.0064    6.1951 H   0  0  0  0  0  0  0  0  0  0  0  0
    4.4598   -1.0146    7.1056 H   0  0  0  0  0  0  0  0  0  0  0  0
    5.5960   -0.7518    5.8581 H   0  0  0  0  0  0  0  0  0  0  0  0
    3.3285    0.6333    3.5477 H   0  0  0  0  0  0  0  0  0  0  0  0
    4.6650    1.9968    4.2710 H   0  0  0  0  0  0  0  0  0  0  0  0
    5.7993    0.5042    2.5930 H   0  0  0  0  0  0  0  0  0  0  0  0
    6.2927   -0.5293    3.8081 H   0  0  0  0  0  0  0  0  0  0  0  0
    6.4962   -1.7924    1.7174 H   0  0  0  0  0  0  0  0  0  0  0  0
    3.4403    0.5733    1.6377 H   0  0  0  0  0  0  0  0  0  0  0  0
    2.7503   -0.4073    0.4172 H   0  0  0  0  0  0  0  0  0  0  0  0
    2.2592   -2.4122    0.2327 H   0  0  0  0  0  0  0  0  0  0  0  0
    3.1453   -4.6554    1.5793 H   0  0  0  0  0  0  0  0  0  0  0  0
    3.9501   -3.8320    0.3208 H   0  0  0  0  0  0  0  0  0  0  0  0
    6.1990   -3.8768    0.6042 H   0  0  0  0  0  0  0  0  0  0  0  0
    5.7112   -5.2600    1.5748 H   0  0  0  0  0  0  0  0  0  0  0  0
    6.9002   -4.1134    2.1766 H   0  0  0  0  0  0  0  0  0  0  0  0
    2.7775   -2.3995    3.6787 H   0  0  0  0  0  0  0  0  0  0  0  0
  1  2  1  0
  1 33  1  0
  1 34  1  0
  1 35  1  0
  2 10  1  0
  2  3  1  0
  2  4  1  0
  3 36  1  0
  3 37  1  0
  3 38  1  0
  4  5  1  0
  4 39  1  0
  4 40  1  0
  5  6  1  0
  5 41  1  0
  5 42  1  0
  6  7  1  0
  6  8  1  0
  6 43  1  6
  7 44  1  0
  8 18  1  0
  8  9  1  1
  8 10  1  0
  9 45  1  0
 10 11  1  0
 10 46  1  6
 11 12  1  0
 11 13  1  0
 11 47  1  1
 12 48  1  0
 13 30  1  0
 13 14  1  1
 13 15  1  0
 14 49  1  0
 15 32  1  0
 15 16  1  0
 15 50  1  6
 16 17  1  0
 16 51  1  0
 16 52  1  0
 18 17  1  1
 17 53  1  0
 17 54  1  0
 18 32  1  0
 18 19  1  0
 19 20  1  0
 19 21  1  0
 19 55  1  6
 20 56  1  0
 21 22  1  0
 21 57  1  0
 21 58  1  0
 22 30  1  0
 22 23  1  0
 22 59  1  6
 23 24  2  0
 23 25  1  0
 25 26  1  0
 25 60  1  0
 25 61  1  0
 26 28  1  0
 26 27  1  1
 26 32  1  0
 27 28  1  0
 28 29  1  0
 28 62  1  6
 29 30  1  0
 29 63  1  0
 29 64  1  0
 30 31  1  6
 31 65  1  0
 31 66  1  0
 31 67  1  0
 32 68  1  1
M  END
>  <i_m_ct_stereo_status>  (334) 
1

>  <s_m_source_file>  (334) 
/var/tmp/pbs.5076255.sched01/tmp7b2cfgi2/13234zcpj2x.sdf

>  <i_m_source_file_index>  (334) 
9

>  <i_lp_mmshare_version>  (334) 
48012

>  <i_f3d_flags>  (334) 
0

>  <s_epik_input>  (334) 
W09IXVtDQEBIXTFbQ0gyXVtDSDJdQyhbQ0gzXSkoW0NIM10pW0NAQEhdKFtDQF0xKFtDQF0yMzQpW09IXSlbQ0BASF0oW09IXSlbQ0BdNShbT0hdKVtDQEhdKFtDSDJdW0NIMl0yKVtDQEBIXTRbQ0BdNjdbQ0BIXShPNylbQ0gyXVtDQEBdNShbQ0gzXSlbQ0BASF0oQyg9TylbQ0gyXTYpW0NIMl1bQ0BASF0zW09IXQ==

>  <s_epik_cmdline>  (334) 
J2VwaWtfcHl0aG9uJywgJy1waHQnLCAnMi4wJywgJy1waCcsICc3LjAnLCAnLXRuJywgJzgnLCAnLW1hJywgJzIwMCcsICctaW1hZScsICc8aW5maWxlLm1hZT4nLCAnLW9tYWUnLCAnPG91dGZpbGUubWFlPic=

>  <r_lp_tautomer_probability>  (334) 
1

>  <r_epik_Ionization_Penalty>  (334) 
2.29128e-06

>  <r_epik_Ionization_Penalty_Charging>  (334) 
0

>  <r_epik_Ionization_Penalty_Neutral>  (334) 
2.29128e-06

>  <r_epik_State_Penalty>  (334) 
-0

>  <r_epik_Charging_Adjusted_Penalty>  (334) 
0

>  <i_epik_Tot_Q>  (334) 
0

>  <i_epik_Tot_abs_Q>  (334) 
0

>  <s_lp_Force_Field>  (334) 
OPLS3e

>  <r_lp_Energy>  (334) 
431.538

>  <b_lp_Chiralities_Consistent>  (334) 
1

>  <s_lp_Variant>  (334) 
91:0-1

>  <s_i_glide_gridfile>  (334) 
pfpi4k_grid

>  <i_i_glide_lignum>  (334) 
9

>  <i_i_glide_rotatable_bonds>  (334) 
5

>  <r_i_docking_score>  (334) 
-2.00541

>  <r_i_glide_ligand_efficiency>  (334) 
-0.062669

>  <r_i_glide_ligand_efficiency_sa>  (334) 
-0.198962

>  <r_i_glide_ligand_efficiency_ln>  (334) 
-0.449066

>  <r_i_glide_gscore>  (334) 
-2.00541

>  <r_i_glide_lipo>  (334) 
-0.394349

>  <r_i_glide_hbond>  (334) 
0

>  <r_i_glide_metal>  (334) 
-0

>  <r_i_glide_rewards>  (334) 
-0.464505

>  <r_i_glide_evdw>  (334) 
-21.6395

>  <r_i_glide_ecoul>  (334) 
-0.430537

>  <r_i_glide_erotb>  (334) 
0

>  <r_i_glide_esite>  (334) 
0

>  <r_i_glide_emodel>  (334) 
-25.4574

>  <r_i_glide_energy>  (334) 
-22.07

>  <r_i_glide_einternal>  (334) 
1.21804

>  <r_i_glide_intrahb_reward>  (334) 
-0

>  <i_i_glide_confnum>  (334) 
1

>  <i_i_glide_posenum>  (334) 
12

>  <r_i_glide_eff_state_penalty>  (334) 
0

>  <ligand_id>  (334) 
91

>  <original_smiles>  (334) 
CC1(C)CCC(O)C2(O)C1C(O)C1(O)C3CCC24C(O)CC2C(=O)CC5(OC5CC21C)C34

>  <smiles>  (334) 
[H]OC1([H])C2([H])C(O[H])(C([H])(O[H])C([H])([H])C([H])([H])C2(C([H])([H])[H])C([H])([H])[H])C23C([H])([H])C([H])([H])C4([H])C2([H])C25OC2([H])C([H])([H])C(C([H])([H])[H])(C([H])(C(=O)C5([H])[H])C([H])([H])C3([H])O[H])C14O[H]

$$$$
92:0:0
     RDKit          3D

 50 54  0  0  1  0  0  0  0  0999 V2000
    1.7227   -6.3095    1.3649 C   0  0  0  0  0  0  0  0  0  0  0  0
    3.1598   -6.3288    0.8815 C   0  0  0  0  0  0  0  0  0  0  0  0
    4.0036   -5.2778    0.8229 C   0  0  0  0  0  0  0  0  0  0  0  0
    5.4309   -5.4046    0.2842 C   0  0  0  0  0  0  0  0  0  0  0  0
    5.8003   -4.0919   -0.3404 N   0  0  1  0  0  0  0  0  0  0  0  0
    4.9849   -4.0640   -1.5864 C   0  0  0  0  0  0  0  0  0  0  0  0
    3.8746   -3.0244   -1.4546 C   0  0  2  0  0  0  0  0  0  0  0  0
    2.8427   -3.0250   -2.6238 C   0  0  0  0  0  0  0  0  0  0  0  0
    3.4163   -2.5033   -3.9541 C   0  0  0  0  0  0  0  0  0  0  0  0
    4.0428   -1.1052   -3.8640 C   0  0  0  0  0  0  0  0  0  0  0  0
    4.1766   -0.6444   -2.4160 C   0  0  0  0  0  0  0  0  0  0  0  0
    4.7635   -1.7560   -1.5228 C   0  0  1  0  0  0  0  0  0  0  0  0
    4.9089   -1.5762   -0.0313 C   0  0  1  0  0  0  0  0  0  0  0  0
    3.4002   -1.5971    0.3480 C   0  0  0  0  0  0  0  0  0  0  0  0
    3.1260   -3.0281   -0.0218 C   0  0  2  0  0  0  0  0  0  0  0  0
    3.6695   -3.8515    1.2563 C   0  0  2  0  0  0  0  0  0  0  0  0
    4.9758   -3.2201    1.9153 C   0  0  0  0  0  0  0  0  0  0  0  0
    4.7907   -1.9993    2.8934 C   0  0  0  0  0  0  0  0  0  0  0  0
    5.7543   -4.2094    2.8399 C   0  0  0  0  0  0  0  0  0  0  0  0
    5.7143   -2.8406    0.5866 C   0  0  1  0  0  0  0  0  0  0  0  0
    1.0772   -6.7341    0.5941 H   0  0  0  0  0  0  0  0  0  0  0  0
    1.3769   -5.3045    1.5965 H   0  0  0  0  0  0  0  0  0  0  0  0
    1.6243   -6.9212    2.2629 H   0  0  0  0  0  0  0  0  0  0  0  0
    3.5265   -7.2914    0.5612 H   0  0  0  0  0  0  0  0  0  0  0  0
    6.1672   -5.7279    1.0121 H   0  0  0  0  0  0  0  0  0  0  0  0
    5.4549   -6.2378   -0.4172 H   0  0  0  0  0  0  0  0  0  0  0  0
    5.6280   -3.8722   -2.4542 H   0  0  0  0  0  0  0  0  0  0  0  0
    4.5957   -5.0436   -1.8325 H   0  0  0  0  0  0  0  0  0  0  0  0
    2.4181   -4.0089   -2.7934 H   0  0  0  0  0  0  0  0  0  0  0  0
    1.9824   -2.4034   -2.3444 H   0  0  0  0  0  0  0  0  0  0  0  0
    4.1479   -3.2102   -4.3417 H   0  0  0  0  0  0  0  0  0  0  0  0
    2.6129   -2.4726   -4.6826 H   0  0  0  0  0  0  0  0  0  0  0  0
    5.0039   -1.1084   -4.3427 H   0  0  0  0  0  0  0  0  0  0  0  0
    3.4341   -0.3778   -4.4027 H   0  0  0  0  0  0  0  0  0  0  0  0
    4.8082    0.2394   -2.3733 H   0  0  0  0  0  0  0  0  0  0  0  0
    3.1710   -0.3404   -2.1374 H   0  0  0  0  0  0  0  0  0  0  0  0
    5.7657   -1.8978   -1.9329 H   0  0  0  0  0  0  0  0  0  0  0  0
    5.3756   -0.6208    0.2227 H   0  0  0  0  0  0  0  0  0  0  0  0
    3.0771   -1.3719    1.3600 H   0  0  0  0  0  0  0  0  0  0  0  0
    2.8056   -0.9040   -0.2324 H   0  0  0  0  0  0  0  0  0  0  0  0
    2.0590   -3.2235   -0.1409 H   0  0  0  0  0  0  0  0  0  0  0  0
    2.9015   -3.8812    2.0329 H   0  0  0  0  0  0  0  0  0  0  0  0
    5.6035   -1.8875    3.6123 H   0  0  0  0  0  0  0  0  0  0  0  0
    3.8631   -2.1097    3.4650 H   0  0  0  0  0  0  0  0  0  0  0  0
    4.7924   -1.0148    2.4265 H   0  0  0  0  0  0  0  0  0  0  0  0
    6.7803   -4.3057    2.4810 H   0  0  0  0  0  0  0  0  0  0  0  0
    5.3267   -5.2028    2.9354 H   0  0  0  0  0  0  0  0  0  0  0  0
    5.8136   -3.8989    3.8769 H   0  0  0  0  0  0  0  0  0  0  0  0
    6.7385   -2.5276    0.8015 H   0  0  0  0  0  0  0  0  0  0  0  0
    6.7561   -4.1569   -0.6482 H   0  0  0  0  0  0  0  0  0  0  0  0
  1  2  1  0
  1 21  1  0
  1 22  1  0
  1 23  1  0
  2  3  2  3
  2 24  1  0
  3 16  1  0
  3  4  1  0
  4  5  1  0
  4 25  1  0
  4 26  1  0
  5 20  1  0
  5  6  1  0
  5 50  1  6
  7  6  1  6
  6 27  1  0
  6 28  1  0
  7 12  1  0
  7 15  1  0
  7  8  1  0
  8  9  1  0
  8 29  1  0
  8 30  1  0
  9 10  1  0
  9 31  1  0
  9 32  1  0
 10 11  1  0
 10 33  1  0
 10 34  1  0
 11 12  1  0
 11 35  1  0
 11 36  1  0
 12 13  1  0
 12 37  1  6
 13 20  1  0
 13 14  1  0
 13 38  1  6
 14 15  1  0
 14 39  1  0
 14 40  1  0
 15 16  1  0
 15 41  1  6
 16 17  1  0
 16 42  1  1
 17 18  1  0
 17 19  1  0
 17 20  1  0
 18 43  1  0
 18 44  1  0
 18 45  1  0
 19 46  1  0
 19 47  1  0
 19 48  1  0
 20 49  1  1
M  CHG  1   5   1
M  END
>  <i_m_ct_stereo_status>  (335) 
1

>  <s_m_source_file>  (335) 
/var/tmp/pbs.5076255.sched01/tmp7b2cfgi2/13234zcpj2x.sdf

>  <i_m_source_file_index>  (335) 
10

>  <i_lp_mmshare_version>  (335) 
48012

>  <i_f3d_flags>  (335) 
0

>  <s_epik_input>  (335) 
W0NIMl0xW0NAQEhdMltDQEhdKEMzKFtDSDNdKVtDSDNdKUMoPVtDSF1cW0NIM10pXFtDSDJdTihbQ0gyXTQpW0NASF0zW0NASF0xW0NAQEhdKFtDQF0yNDUpW0NIMl1bQ0gyXVtDSDJdW0NIMl01

>  <s_epik_cmdline>  (335) 
J2VwaWtfcHl0aG9uJywgJy1waHQnLCAnMi4wJywgJy1waCcsICc3LjAnLCAnLXRuJywgJzgnLCAnLW1hJywgJzIwMCcsICctaW1hZScsICc8aW5maWxlLm1hZT4nLCAnLW9tYWUnLCAnPG91dGZpbGUubWFlPic=

>  <r_lp_tautomer_probability>  (335) 
1

>  <r_epik_Ionization_Penalty>  (335) 
0.000207306

>  <r_epik_Ionization_Penalty_Charging>  (335) 
0.000207306

>  <r_epik_Ionization_Penalty_Neutral>  (335) 
0

>  <r_epik_State_Penalty>  (335) 
-0

>  <r_epik_Charging_Adjusted_Penalty>  (335) 
0.000207306

>  <i_epik_Tot_Q>  (335) 
1

>  <i_epik_Tot_abs_Q>  (335) 
1

>  <s_lp_Force_Field>  (335) 
OPLS3e

>  <r_lp_Energy>  (335) 
135.459

>  <b_lp_Chiralities_Consistent>  (335) 
1

>  <s_lp_Variant>  (335) 
92:0-1

>  <s_i_glide_gridfile>  (335) 
pfpi4k_grid

>  <i_i_glide_lignum>  (335) 
10

>  <i_i_glide_rotatable_bonds>  (335) 
0

>  <r_i_docking_score>  (335) 
-3.47601

>  <r_i_glide_ligand_efficiency>  (335) 
-0.1738

>  <r_i_glide_ligand_efficiency_sa>  (335) 
-0.471767

>  <r_i_glide_ligand_efficiency_ln>  (335) 
-0.86993

>  <r_i_glide_gscore>  (335) 
-3.47601

>  <r_i_glide_lipo>  (335) 
-0.568973

>  <r_i_glide_hbond>  (335) 
0

>  <r_i_glide_metal>  (335) 
-0

>  <r_i_glide_rewards>  (335) 
-1.55149

>  <r_i_glide_evdw>  (335) 
-20.4934

>  <r_i_glide_ecoul>  (335) 
-2.20583

>  <r_i_glide_erotb>  (335) 
0

>  <r_i_glide_esite>  (335) 
0

>  <r_i_glide_emodel>  (335) 
-25.7701

>  <r_i_glide_energy>  (335) 
-22.6992

>  <r_i_glide_einternal>  (335) 
0

>  <r_i_glide_intrahb_reward>  (335) 
-0

>  <i_i_glide_confnum>  (335) 
2

>  <i_i_glide_posenum>  (335) 
23

>  <r_i_glide_eff_state_penalty>  (335) 
0

>  <ligand_id>  (335) 
92

>  <original_smiles>  (335) 
CC=C1CN2CC34CCCCC3C3CC4C1C(C)(C)C32

>  <smiles>  (335) 
[H]C(=C1C2([H])C3([H])C([H])([H])C4([H])C5([H])C([H])([H])C([H])([H])C([H])([H])C([H])([H])C35C([H])([H])[N+]([H])(C1([H])[H])C4([H])C2(C([H])([H])[H])C([H])([H])[H])C([H])([H])[H]

$$$$
94:0:0
     RDKit          3D

 16 16  0  0  1  0  0  0  0  0999 V2000
   -7.9406   -4.2709   -4.7348 C   0  0  0  0  0  0  0  0  0  0  0  0
   -7.4429   -5.4821   -5.3932 N   0  0  0  0  0  0  0  0  0  0  0  0
   -7.9598   -5.9258   -6.5458 C   0  0  0  0  0  0  0  0  0  0  0  0
   -7.2042   -7.4011   -7.0721 S   0  0  0  0  0  0  0  0  0  0  0  0
   -6.1443   -7.3550   -5.6944 C   0  0  0  0  0  0  0  0  0  0  0  0
   -5.0967   -8.3946   -5.4848 C   0  0  0  0  0  0  0  0  0  0  0  0
   -3.8627   -7.8227   -5.1224 O   0  0  0  0  0  0  0  0  0  0  0  0
   -6.4170   -6.2723   -4.8922 C   0  0  0  0  0  0  0  0  0  0  0  0
   -8.8380   -3.8933   -5.2323 H   0  0  0  0  0  0  0  0  0  0  0  0
   -7.1611   -3.5089   -4.7484 H   0  0  0  0  0  0  0  0  0  0  0  0
   -8.1805   -4.5102   -3.6999 H   0  0  0  0  0  0  0  0  0  0  0  0
   -8.7629   -5.4481   -7.0761 H   0  0  0  0  0  0  0  0  0  0  0  0
   -5.3993   -9.0810   -4.6973 H   0  0  0  0  0  0  0  0  0  0  0  0
   -4.9598   -8.9998   -6.3835 H   0  0  0  0  0  0  0  0  0  0  0  0
   -3.2908   -8.5047   -4.7813 H   0  0  0  0  0  0  0  0  0  0  0  0
   -5.9426   -5.9821   -3.9681 H   0  0  0  0  0  0  0  0  0  0  0  0
  1  2  1  0
  1  9  1  0
  1 10  1  0
  1 11  1  0
  2  8  1  0
  2  3  2  0
  3  4  1  0
  3 12  1  0
  4  5  1  0
  5  6  1  0
  5  8  2  0
  6  7  1  0
  6 13  1  0
  6 14  1  0
  7 15  1  0
  8 16  1  0
M  CHG  1   2   1
M  END
>  <i_m_ct_stereo_status>  (336) 
1

>  <s_m_source_file>  (336) 
/var/tmp/pbs.5076255.sched01/tmp7b2cfgi2/13234zcpj2x.sdf

>  <i_m_source_file_index>  (336) 
12

>  <i_lp_mmshare_version>  (336) 
48012

>  <i_f3d_flags>  (336) 
0

>  <s_epik_input>  (336) 
W0NIM11bbitdMVtjSF1zYyhbY0hdMSlbQ0gyXVtPSF0=

>  <s_epik_cmdline>  (336) 
J2VwaWtfcHl0aG9uJywgJy1waHQnLCAnMi4wJywgJy1waCcsICc3LjAnLCAnLXRuJywgJzgnLCAnLW1hJywgJzIwMCcsICctaW1hZScsICc8aW5maWxlLm1hZT4nLCAnLW9tYWUnLCAnPG91dGZpbGUubWFlPic=

>  <r_lp_tautomer_probability>  (336) 
1

>  <r_epik_Ionization_Penalty>  (336) 
0.00018742

>  <r_epik_Ionization_Penalty_Charging>  (336) 
0

>  <r_epik_Ionization_Penalty_Neutral>  (336) 
0.00018742

>  <r_epik_State_Penalty>  (336) 
-0

>  <r_epik_Charging_Adjusted_Penalty>  (336) 
0

>  <i_epik_Tot_Q>  (336) 
1

>  <i_epik_Tot_abs_Q>  (336) 
1

>  <s_lp_Force_Field>  (336) 
OPLS3e

>  <r_lp_Energy>  (336) 
4.83795

>  <b_lp_Chiralities_Consistent>  (336) 
1

>  <s_lp_Variant>  (336) 
94:0-1

>  <s_i_glide_gridfile>  (336) 
pfpi4k_grid

>  <i_i_glide_lignum>  (336) 
12

>  <i_i_glide_rotatable_bonds>  (336) 
2

>  <r_i_docking_score>  (336) 
-5.1157

>  <r_i_glide_ligand_efficiency>  (336) 
-0.639462

>  <r_i_glide_ligand_efficiency_sa>  (336) 
-1.27892

>  <r_i_glide_ligand_efficiency_ln>  (336) 
-1.66124

>  <r_i_glide_gscore>  (336) 
-5.1157

>  <r_i_glide_lipo>  (336) 
-1.68973

>  <r_i_glide_hbond>  (336) 
-0.228843

>  <r_i_glide_metal>  (336) 
-0

>  <r_i_glide_rewards>  (336) 
-2.68794

>  <r_i_glide_evdw>  (336) 
-14.9773

>  <r_i_glide_ecoul>  (336) 
-3.85235

>  <r_i_glide_erotb>  (336) 
0.817535

>  <r_i_glide_esite>  (336) 
0

>  <r_i_glide_emodel>  (336) 
-26.0846

>  <r_i_glide_energy>  (336) 
-18.8296

>  <r_i_glide_einternal>  (336) 
0.284701

>  <r_i_glide_intrahb_reward>  (336) 
-0

>  <i_i_glide_confnum>  (336) 
4

>  <i_i_glide_posenum>  (336) 
9

>  <r_i_glide_eff_state_penalty>  (336) 
0

>  <ligand_id>  (336) 
94

>  <original_smiles>  (336) 
C[n+]1csc(CO)c1

>  <smiles>  (336) 
[H]OC([H])([H])c1sc([H])[n+](C([H])([H])[H])c1[H]

$$$$
94:0:1
     RDKit          3D

 16 16  0  0  1  0  0  0  0  0999 V2000
   -9.2641   -4.8840   -7.2434 C   0  0  0  0  0  0  0  0  0  0  0  0
   -8.1972   -5.1734   -6.2821 N   0  0  0  0  0  0  0  0  0  0  0  0
   -7.8893   -4.3179   -5.2988 C   0  0  0  0  0  0  0  0  0  0  0  0
   -6.5849   -4.9062   -4.3190 S   0  0  0  0  0  0  0  0  0  0  0  0
   -6.4889   -6.3488   -5.2932 C   0  0  0  0  0  0  0  0  0  0  0  0
   -5.4886   -7.4175   -5.0029 C   0  0  0  0  0  0  0  0  0  0  0  0
   -4.2145   -7.1101   -5.5152 O   0  0  0  0  0  0  0  0  0  0  0  0
   -7.4243   -6.3278   -6.2950 C   0  0  0  0  0  0  0  0  0  0  0  0
   -9.6329   -3.8639   -7.1167 H   0  0  0  0  0  0  0  0  0  0  0  0
  -10.0826   -5.5879   -7.0909 H   0  0  0  0  0  0  0  0  0  0  0  0
   -8.8709   -5.0031   -8.2537 H   0  0  0  0  0  0  0  0  0  0  0  0
   -8.3852   -3.3810   -5.1222 H   0  0  0  0  0  0  0  0  0  0  0  0
   -5.3916   -7.5722   -3.9275 H   0  0  0  0  0  0  0  0  0  0  0  0
   -5.8205   -8.3608   -5.4363 H   0  0  0  0  0  0  0  0  0  0  0  0
   -3.6353   -7.8364   -5.3257 H   0  0  0  0  0  0  0  0  0  0  0  0
   -7.6201   -7.0693   -7.0557 H   0  0  0  0  0  0  0  0  0  0  0  0
  1  2  1  0
  1  9  1  0
  1 10  1  0
  1 11  1  0
  2  8  1  0
  2  3  2  0
  3  4  1  0
  3 12  1  0
  4  5  1  0
  5  6  1  0
  5  8  2  0
  6  7  1  0
  6 13  1  0
  6 14  1  0
  7 15  1  0
  8 16  1  0
M  CHG  1   2   1
M  END
>  <i_m_ct_stereo_status>  (337) 
1

>  <s_m_source_file>  (337) 
/var/tmp/pbs.5076255.sched01/tmp7b2cfgi2/13234zcpj2x.sdf

>  <i_m_source_file_index>  (337) 
12

>  <i_lp_mmshare_version>  (337) 
48012

>  <i_f3d_flags>  (337) 
0

>  <s_epik_input>  (337) 
W0NIM11bbitdMVtjSF1zYyhbY0hdMSlbQ0gyXVtPSF0=

>  <s_epik_cmdline>  (337) 
J2VwaWtfcHl0aG9uJywgJy1waHQnLCAnMi4wJywgJy1waCcsICc3LjAnLCAnLXRuJywgJzgnLCAnLW1hJywgJzIwMCcsICctaW1hZScsICc8aW5maWxlLm1hZT4nLCAnLW9tYWUnLCAnPG91dGZpbGUubWFlPic=

>  <r_lp_tautomer_probability>  (337) 
1

>  <r_epik_Ionization_Penalty>  (337) 
0.00018742

>  <r_epik_Ionization_Penalty_Charging>  (337) 
0

>  <r_epik_Ionization_Penalty_Neutral>  (337) 
0.00018742

>  <r_epik_State_Penalty>  (337) 
-0

>  <r_epik_Charging_Adjusted_Penalty>  (337) 
0

>  <i_epik_Tot_Q>  (337) 
1

>  <i_epik_Tot_abs_Q>  (337) 
1

>  <s_lp_Force_Field>  (337) 
OPLS3e

>  <r_lp_Energy>  (337) 
4.83795

>  <b_lp_Chiralities_Consistent>  (337) 
1

>  <s_lp_Variant>  (337) 
94:0-1

>  <s_i_glide_gridfile>  (337) 
pfpi4k_grid

>  <i_i_glide_lignum>  (337) 
12

>  <i_i_glide_rotatable_bonds>  (337) 
2

>  <r_i_docking_score>  (337) 
-5.08044

>  <r_i_glide_ligand_efficiency>  (337) 
-0.635055

>  <r_i_glide_ligand_efficiency_sa>  (337) 
-1.27011

>  <r_i_glide_ligand_efficiency_ln>  (337) 
-1.64979

>  <r_i_glide_gscore>  (337) 
-5.08044

>  <r_i_glide_lipo>  (337) 
-1.72693

>  <r_i_glide_hbond>  (337) 
-0.156982

>  <r_i_glide_metal>  (337) 
-0

>  <r_i_glide_rewards>  (337) 
-2.64946

>  <r_i_glide_evdw>  (337) 
-17.2841

>  <r_i_glide_ecoul>  (337) 
-3.33603

>  <r_i_glide_erotb>  (337) 
0.817535

>  <r_i_glide_esite>  (337) 
0

>  <r_i_glide_emodel>  (337) 
-28.0396

>  <r_i_glide_energy>  (337) 
-20.6202

>  <r_i_glide_einternal>  (337) 
0.00135881

>  <r_i_glide_intrahb_reward>  (337) 
-0

>  <i_i_glide_confnum>  (337) 
3

>  <i_i_glide_posenum>  (337) 
32

>  <r_i_glide_eff_state_penalty>  (337) 
0

>  <ligand_id>  (337) 
94

>  <original_smiles>  (337) 
C[n+]1csc(CO)c1

>  <smiles>  (337) 
[H]OC([H])([H])c1sc([H])[n+](C([H])([H])[H])c1[H]

$$$$
94:0:2
     RDKit          3D

 16 16  0  0  1  0  0  0  0  0999 V2000
   -7.8010   -4.5744   -4.9594 C   0  0  0  0  0  0  0  0  0  0  0  0
   -7.1518   -5.8058   -5.4258 N   0  0  0  0  0  0  0  0  0  0  0  0
   -7.5236   -6.4203   -6.5575 C   0  0  0  0  0  0  0  0  0  0  0  0
   -6.5882   -7.8560   -6.8482 S   0  0  0  0  0  0  0  0  0  0  0  0
   -5.6797   -7.5823   -5.3819 C   0  0  0  0  0  0  0  0  0  0  0  0
   -4.5980   -8.5271   -4.9426 C   0  0  0  0  0  0  0  0  0  0  0  0
   -4.7137   -9.8120   -5.5169 O   0  0  0  0  0  0  0  0  0  0  0  0
   -6.1140   -6.4412   -4.7492 C   0  0  0  0  0  0  0  0  0  0  0  0
   -8.6667   -4.3364   -5.5816 H   0  0  0  0  0  0  0  0  0  0  0  0
   -7.0824   -3.7556   -5.0083 H   0  0  0  0  0  0  0  0  0  0  0  0
   -8.1291   -4.7008   -3.9261 H   0  0  0  0  0  0  0  0  0  0  0  0
   -8.3090   -6.0803   -7.2096 H   0  0  0  0  0  0  0  0  0  0  0  0
   -3.6190   -8.1172   -5.1893 H   0  0  0  0  0  0  0  0  0  0  0  0
   -4.6227   -8.6539   -3.8622 H   0  0  0  0  0  0  0  0  0  0  0  0
   -4.1644  -10.4060   -5.0204 H   0  0  0  0  0  0  0  0  0  0  0  0
   -5.7833   -6.0039   -3.8225 H   0  0  0  0  0  0  0  0  0  0  0  0
  1  2  1  0
  1  9  1  0
  1 10  1  0
  1 11  1  0
  2  8  1  0
  2  3  2  0
  3  4  1  0
  3 12  1  0
  4  5  1  0
  5  6  1  0
  5  8  2  0
  6  7  1  0
  6 13  1  0
  6 14  1  0
  7 15  1  0
  8 16  1  0
M  CHG  1   2   1
M  END
>  <i_m_ct_stereo_status>  (338) 
1

>  <s_m_source_file>  (338) 
/var/tmp/pbs.5076255.sched01/tmp7b2cfgi2/13234zcpj2x.sdf

>  <i_m_source_file_index>  (338) 
12

>  <i_lp_mmshare_version>  (338) 
48012

>  <i_f3d_flags>  (338) 
0

>  <s_epik_input>  (338) 
W0NIM11bbitdMVtjSF1zYyhbY0hdMSlbQ0gyXVtPSF0=

>  <s_epik_cmdline>  (338) 
J2VwaWtfcHl0aG9uJywgJy1waHQnLCAnMi4wJywgJy1waCcsICc3LjAnLCAnLXRuJywgJzgnLCAnLW1hJywgJzIwMCcsICctaW1hZScsICc8aW5maWxlLm1hZT4nLCAnLW9tYWUnLCAnPG91dGZpbGUubWFlPic=

>  <r_lp_tautomer_probability>  (338) 
1

>  <r_epik_Ionization_Penalty>  (338) 
0.00018742

>  <r_epik_Ionization_Penalty_Charging>  (338) 
0

>  <r_epik_Ionization_Penalty_Neutral>  (338) 
0.00018742

>  <r_epik_State_Penalty>  (338) 
-0

>  <r_epik_Charging_Adjusted_Penalty>  (338) 
0

>  <i_epik_Tot_Q>  (338) 
1

>  <i_epik_Tot_abs_Q>  (338) 
1

>  <s_lp_Force_Field>  (338) 
OPLS3e

>  <r_lp_Energy>  (338) 
4.83795

>  <b_lp_Chiralities_Consistent>  (338) 
1

>  <s_lp_Variant>  (338) 
94:0-1

>  <s_i_glide_gridfile>  (338) 
pfpi4k_grid

>  <i_i_glide_lignum>  (338) 
12

>  <i_i_glide_rotatable_bonds>  (338) 
2

>  <r_i_docking_score>  (338) 
-4.63326

>  <r_i_glide_ligand_efficiency>  (338) 
-0.579157

>  <r_i_glide_ligand_efficiency_sa>  (338) 
-1.15831

>  <r_i_glide_ligand_efficiency_ln>  (338) 
-1.50458

>  <r_i_glide_gscore>  (338) 
-4.63326

>  <r_i_glide_lipo>  (338) 
-1.52769

>  <r_i_glide_hbond>  (338) 
0

>  <r_i_glide_metal>  (338) 
-0

>  <r_i_glide_rewards>  (338) 
-2.67178

>  <r_i_glide_evdw>  (338) 
-17.1335

>  <r_i_glide_ecoul>  (338) 
-2.63097

>  <r_i_glide_erotb>  (338) 
0.817535

>  <r_i_glide_esite>  (338) 
0

>  <r_i_glide_emodel>  (338) 
-26.0567

>  <r_i_glide_energy>  (338) 
-19.7645

>  <r_i_glide_einternal>  (338) 
0.795147

>  <r_i_glide_intrahb_reward>  (338) 
-0

>  <i_i_glide_confnum>  (338) 
1

>  <i_i_glide_posenum>  (338) 
3

>  <r_i_glide_eff_state_penalty>  (338) 
0

>  <ligand_id>  (338) 
94

>  <original_smiles>  (338) 
C[n+]1csc(CO)c1

>  <smiles>  (338) 
[H]OC([H])([H])c1sc([H])[n+](C([H])([H])[H])c1[H]

$$$$
95:0:0
     RDKit          3D

 99108  0  0  1  0  0  0  0  0999 V2000
    4.4963   -7.0919    1.7130 C   0  0  0  0  0  0  0  0  0  0  0  0
    4.6213   -6.7667    3.2204 C   0  0  0  0  0  0  0  0  0  0  0  0
    4.2263   -8.0287    4.0207 C   0  0  0  0  0  0  0  0  0  0  0  0
    6.0777   -6.3708    3.6055 C   0  0  1  0  0  0  0  0  0  0  0  0
    6.6930   -5.5926    2.5921 O   0  0  0  0  0  0  0  0  0  0  0  0
    5.9802   -5.4986    4.8845 C   0  0  0  0  0  0  0  0  0  0  0  0
    4.5011   -5.0745    5.0012 C   0  0  2  0  0  0  0  0  0  0  0  0
    3.9092   -5.4567    3.6564 C   0  0  2  0  0  0  0  0  0  0  0  0
    2.3609   -5.3713    3.7556 C   0  0  2  0  0  0  0  0  0  0  0  0
    1.7273   -6.2583    4.7329 N   0  0  0  0  0  0  0  0  0  0  0  0
    0.6408   -6.9293    4.1928 C   0  0  0  0  0  0  0  0  0  0  0  0
   -0.2659   -7.7785    4.8461 C   0  0  0  0  0  0  0  0  0  0  0  0
   -1.2931   -8.3556    4.0761 C   0  0  0  0  0  0  0  0  0  0  0  0
   -1.4000   -8.1022    2.6885 C   0  0  0  0  0  0  0  0  0  0  0  0
   -0.4838   -7.2410    2.0490 C   0  0  0  0  0  0  0  0  0  0  0  0
    0.5236   -6.6593    2.8351 C   0  0  0  0  0  0  0  0  0  0  0  0
    1.5892   -5.7360    2.4668 C   0  0  0  0  0  0  0  0  0  0  0  0
    1.8210   -5.2914    1.3408 O   0  0  0  0  0  0  0  0  0  0  0  0
    2.0545   -4.0388    4.0150 O   0  0  0  0  0  0  0  0  0  0  0  0
    2.6087   -3.3814    5.1715 C   0  0  2  0  0  0  0  0  0  0  0  0
    2.2026   -1.8793    4.9976 C   0  0  1  0  0  0  0  0  0  0  0  0
    2.5979   -1.0570    6.2471 C   0  0  1  0  0  0  0  0  0  0  0  0
    3.8566   -0.4907    5.8007 O   0  0  0  0  0  0  0  0  0  0  0  0
    4.2647   -1.0848    4.5314 C   0  0  1  0  0  0  0  0  0  0  0  0
    5.3901   -0.2941    3.8009 C   0  0  0  0  0  0  0  0  0  0  0  0
    4.9197   -2.5124    4.7224 C   0  0  0  0  0  0  0  0  0  0  0  0
    4.1322   -3.6240    5.4511 C   0  0  2  0  0  0  0  0  0  0  0  0
    4.4908   -3.5997    6.9746 C   0  0  0  0  0  0  0  0  0  0  0  0
    2.8637   -1.0820    3.8211 C   0  0  1  0  0  0  0  0  0  0  0  0
    2.8803   -1.8491    2.4684 C   0  0  0  0  0  0  0  0  0  0  0  0
    2.2738    0.4091    3.4554 C   0  0  2  0  0  0  0  0  0  0  0  0
    3.0097    1.6556    4.0224 C   0  0  0  0  0  0  0  0  0  0  0  0
    2.4104    2.1907    5.3078 C   0  0  0  0  0  0  0  0  0  0  0  0
    0.8844    1.9493    5.4401 C   0  0  1  0  0  0  0  0  0  0  0  0
    0.3531    3.0639    6.3778 C   0  0  0  0  0  0  0  0  0  0  0  0
    0.2818    2.1121    3.9838 C   0  0  1  0  0  0  0  0  0  0  0  0
   -1.2414    2.4530    3.8966 C   0  0  0  0  0  0  0  0  0  0  0  0
    0.7707    3.2615    3.2923 O   0  0  0  0  0  0  0  0  0  0  0  0
    0.7109    0.7889    3.2547 C   0  0  2  0  0  0  0  0  0  0  0  0
   -0.3303   -0.2558    3.6947 C   0  0  0  0  0  0  0  0  0  0  0  0
   -0.4471   -0.4028    5.2029 C   0  0  2  0  0  0  0  0  0  0  0  0
   -0.9354    0.5287    6.1739 O   0  0  0  0  0  0  0  0  0  0  0  0
    0.4899    0.5217    5.9956 C   0  0  2  0  0  0  0  0  0  0  0  0
    1.4320   -0.2546    6.9871 C   0  0  0  0  0  0  0  0  0  0  0  0
    0.6143   -1.3789    7.7121 C   0  0  0  0  0  0  0  0  0  0  0  0
    1.9059    0.5724    8.2146 C   0  0  0  0  0  0  0  0  0  0  0  0
    5.2403   -7.8251    1.4026 H   0  0  0  0  0  0  0  0  0  0  0  0
    4.6226   -6.2101    1.0853 H   0  0  0  0  0  0  0  0  0  0  0  0
    3.5244   -7.5207    1.4776 H   0  0  0  0  0  0  0  0  0  0  0  0
    4.3111   -7.8967    5.0987 H   0  0  0  0  0  0  0  0  0  0  0  0
    4.8683   -8.8713    3.7554 H   0  0  0  0  0  0  0  0  0  0  0  0
    3.2063   -8.3405    3.8013 H   0  0  0  0  0  0  0  0  0  0  0  0
    6.7097   -7.2474    3.7656 H   0  0  0  0  0  0  0  0  0  0  0  0
    7.5988   -5.4556    2.8298 H   0  0  0  0  0  0  0  0  0  0  0  0
    6.2599   -6.0957    5.7564 H   0  0  0  0  0  0  0  0  0  0  0  0
    6.6642   -4.6515    4.8693 H   0  0  0  0  0  0  0  0  0  0  0  0
    4.0711   -5.7426    5.7491 H   0  0  0  0  0  0  0  0  0  0  0  0
    4.2156   -4.7131    2.9226 H   0  0  0  0  0  0  0  0  0  0  0  0
    2.0124   -6.2834    5.6980 H   0  0  0  0  0  0  0  0  0  0  0  0
   -0.1701   -7.9878    5.9014 H   0  0  0  0  0  0  0  0  0  0  0  0
   -1.9904   -9.0343    4.5385 H   0  0  0  0  0  0  0  0  0  0  0  0
   -2.1755   -8.5855    2.1161 H   0  0  0  0  0  0  0  0  0  0  0  0
   -0.5493   -7.0507    0.9868 H   0  0  0  0  0  0  0  0  0  0  0  0
    2.0475   -3.7866    6.0141 H   0  0  0  0  0  0  0  0  0  0  0  0
    1.1556   -2.0140    4.8487 H   0  0  0  0  0  0  0  0  0  0  0  0
    2.8969   -1.7345    7.0327 H   0  0  0  0  0  0  0  0  0  0  0  0
    5.0280    0.2183    2.9121 H   0  0  0  0  0  0  0  0  0  0  0  0
    6.1901   -0.9299    3.4224 H   0  0  0  0  0  0  0  0  0  0  0  0
    5.8703    0.4268    4.4640 H   0  0  0  0  0  0  0  0  0  0  0  0
    5.2129   -2.8913    3.7453 H   0  0  0  0  0  0  0  0  0  0  0  0
    5.8582   -2.3803    5.2548 H   0  0  0  0  0  0  0  0  0  0  0  0
    4.7648   -2.6097    7.3437 H   0  0  0  0  0  0  0  0  0  0  0  0
    5.3531   -4.2268    7.2043 H   0  0  0  0  0  0  0  0  0  0  0  0
    3.6733   -3.9751    7.5922 H   0  0  0  0  0  0  0  0  0  0  0  0
    3.3978   -1.3037    1.6799 H   0  0  0  0  0  0  0  0  0  0  0  0
    1.8688   -2.0473    2.1157 H   0  0  0  0  0  0  0  0  0  0  0  0
    3.3937   -2.7988    2.5038 H   0  0  0  0  0  0  0  0  0  0  0  0
    2.6175    0.5132    2.4277 H   0  0  0  0  0  0  0  0  0  0  0  0
    4.0704    1.6072    4.1803 H   0  0  0  0  0  0  0  0  0  0  0  0
    2.9782    2.4315    3.2568 H   0  0  0  0  0  0  0  0  0  0  0  0
    2.9930    1.7882    6.1186 H   0  0  0  0  0  0  0  0  0  0  0  0
    2.6246    3.2614    5.3343 H   0  0  0  0  0  0  0  0  0  0  0  0
   -0.7193    2.9925    6.5600 H   0  0  0  0  0  0  0  0  0  0  0  0
    0.5354    4.0461    5.9355 H   0  0  0  0  0  0  0  0  0  0  0  0
    0.8554    3.0547    7.3461 H   0  0  0  0  0  0  0  0  0  0  0  0
   -1.9073    1.7803    4.4327 H   0  0  0  0  0  0  0  0  0  0  0  0
   -1.5754    2.4504    2.8578 H   0  0  0  0  0  0  0  0  0  0  0  0
   -1.4475    3.4477    4.2914 H   0  0  0  0  0  0  0  0  0  0  0  0
    0.4008    3.3174    2.4146 H   0  0  0  0  0  0  0  0  0  0  0  0
    0.5537    0.9284    2.1823 H   0  0  0  0  0  0  0  0  0  0  0  0
   -1.3179   -0.0486    3.2821 H   0  0  0  0  0  0  0  0  0  0  0  0
   -0.0585   -1.2219    3.2729 H   0  0  0  0  0  0  0  0  0  0  0  0
   -0.7668   -1.3973    5.5004 H   0  0  0  0  0  0  0  0  0  0  0  0
   -0.2957   -0.9840    8.1622 H   0  0  0  0  0  0  0  0  0  0  0  0
    1.1766   -1.8383    8.5298 H   0  0  0  0  0  0  0  0  0  0  0  0
    0.3416   -2.2207    7.0739 H   0  0  0  0  0  0  0  0  0  0  0  0
    1.0551    0.9980    8.7495 H   0  0  0  0  0  0  0  0  0  0  0  0
    2.5868    1.3884    8.0121 H   0  0  0  0  0  0  0  0  0  0  0  0
    2.4369   -0.0612    8.9285 H   0  0  0  0  0  0  0  0  0  0  0  0
  1  2  1  0
  1 47  1  0
  1 48  1  0
  1 49  1  0
  2  8  1  0
  2  3  1  0
  2  4  1  0
  3 50  1  0
  3 51  1  0
  3 52  1  0
  4  5  1  0
  4  6  1  0
  4 53  1  1
  5 54  1  0
  6  7  1  0
  6 55  1  0
  6 56  1  0
  7 27  1  0
  7  8  1  0
  7 57  1  1
  8  9  1  0
  8 58  1  6
  9 17  1  0
  9 10  1  0
  9 19  1  1
 10 11  1  0
 10 59  1  0
 11 16  2  0
 11 12  1  0
 12 13  2  0
 12 60  1  0
 13 14  1  0
 13 61  1  0
 14 15  2  0
 14 62  1  0
 15 16  1  0
 15 63  1  0
 16 17  1  0
 17 18  2  0
 19 20  1  0
 20 27  1  0
 20 21  1  0
 20 64  1  1
 21 29  1  0
 21 22  1  0
 21 65  1  6
 22 44  1  0
 22 23  1  0
 22 66  1  1
 23 24  1  0
 24 25  1  6
 24 26  1  0
 24 29  1  0
 25 67  1  0
 25 68  1  0
 25 69  1  0
 26 27  1  0
 26 70  1  0
 26 71  1  0
 27 28  1  1
 28 72  1  0
 28 73  1  0
 28 74  1  0
 29 30  1  6
 29 31  1  0
 30 75  1  0
 30 76  1  0
 30 77  1  0
 31 39  1  0
 31 32  1  0
 31 78  1  6
 32 33  1  0
 32 79  1  0
 32 80  1  0
 33 34  1  0
 33 81  1  0
 33 82  1  0
 34 43  1  0
 34 35  1  1
 34 36  1  0
 35 83  1  0
 35 84  1  0
 35 85  1  0
 36 37  1  0
 36 38  1  6
 36 39  1  0
 37 86  1  0
 37 87  1  0
 37 88  1  0
 38 89  1  0
 39 40  1  0
 39 90  1  6
 40 41  1  0
 40 91  1  0
 40 92  1  0
 41 43  1  0
 41 42  1  0
 41 93  1  6
 43 42  1  1
 43 44  1  0
 44 45  1  0
 44 46  1  0
 45 94  1  0
 45 95  1  0
 45 96  1  0
 46 97  1  0
 46 98  1  0
 46 99  1  0
M  END
>  <i_m_ct_stereo_status>  (339) 
1

>  <s_m_source_file>  (339) 
/var/tmp/pbs.5076255.sched01/tmp7b2cfgi2/13234zcpj2x.sdf

>  <i_m_source_file_index>  (339) 
13

>  <i_lp_mmshare_version>  (339) 
48012

>  <i_f3d_flags>  (339) 
0

>  <s_epik_input>  (339) 
W2NIXTFbY0hdW2NIXVtjSF1jKEMyPU8pYzFbTkhdW0NAQF0yM1tDQEhdNFtDQEBIXShbQ0gyXVtDQEhdKFtPSF0pQzQoW0NIM10pW0NIM10pW0NAXTUoW0NIM10pW0NASF0oTzMpW0NASF02W0NASF03T1tDQEBdKFtDSDNdKShbQ0gyXTUpW0NAXTYoW0NIM10pW0NASF04W0NAQEhdOVtDQF0oW0NIM10pKFtPSF0pW0NAXShbQ0gzXSkoW0NIMl1bQ0gyXTgpQzEoW0NAQEhdKE8xKVtDSDJdOSlDNyhbQ0gzXSlbQ0gzXQ==

>  <s_epik_cmdline>  (339) 
J2VwaWtfcHl0aG9uJywgJy1waHQnLCAnMi4wJywgJy1waCcsICc3LjAnLCAnLXRuJywgJzgnLCAnLW1hJywgJzIwMCcsICctaW1hZScsICc8aW5maWxlLm1hZT4nLCAnLW9tYWUnLCAnPG91dGZpbGUubWFlPic=

>  <r_lp_tautomer_probability>  (339) 
1

>  <r_epik_Ionization_Penalty>  (339) 
2.39632e-06

>  <r_epik_Ionization_Penalty_Charging>  (339) 
0

>  <r_epik_Ionization_Penalty_Neutral>  (339) 
2.39632e-06

>  <r_epik_State_Penalty>  (339) 
-0

>  <r_epik_Charging_Adjusted_Penalty>  (339) 
0

>  <i_epik_Tot_Q>  (339) 
0

>  <i_epik_Tot_abs_Q>  (339) 
0

>  <s_lp_Force_Field>  (339) 
OPLS3e

>  <r_lp_Energy>  (339) 
185.241

>  <b_lp_Chiralities_Consistent>  (339) 
1

>  <s_lp_Variant>  (339) 
95:0-1

>  <s_i_glide_gridfile>  (339) 
pfpi4k_grid

>  <i_i_glide_lignum>  (339) 
13

>  <i_i_glide_rotatable_bonds>  (339) 
2

>  <r_i_docking_score>  (339) 
-2.78375

>  <r_i_glide_ligand_efficiency>  (339) 
-0.0605163

>  <r_i_glide_ligand_efficiency_sa>  (339) 
-0.216833

>  <r_i_glide_ligand_efficiency_ln>  (339) 
-0.576508

>  <r_i_glide_gscore>  (339) 
-2.78375

>  <r_i_glide_lipo>  (339) 
-0.211107

>  <r_i_glide_hbond>  (339) 
-0.234334

>  <r_i_glide_metal>  (339) 
-0

>  <r_i_glide_rewards>  (339) 
0

>  <r_i_glide_evdw>  (339) 
-33.3151

>  <r_i_glide_ecoul>  (339) 
-4.23114

>  <r_i_glide_erotb>  (339) 
0

>  <r_i_glide_esite>  (339) 
-0.0378849

>  <r_i_glide_emodel>  (339) 
-43.8657

>  <r_i_glide_energy>  (339) 
-37.5462

>  <r_i_glide_einternal>  (339) 
0.362593

>  <r_i_glide_intrahb_reward>  (339) 
-0

>  <i_i_glide_confnum>  (339) 
2

>  <i_i_glide_posenum>  (339) 
34

>  <r_i_glide_eff_state_penalty>  (339) 
0

>  <ligand_id>  (339) 
95

>  <original_smiles>  (339) 
CC1(C)C(O)CC2C1C1(Nc3ccccc3C1=O)OC1C3C4OC(C)(CC21C)C3(C)C1CCC2(C)C(C)(O)C1CC1OC12C4(C)C

>  <smiles>  (339) 
[H]OC1([H])C([H])([H])C2([H])C([H])(C3(OC4([H])C5([H])C6([H])OC(C([H])([H])[H])(C([H])([H])C42C([H])([H])[H])C5(C([H])([H])[H])C2([H])C([H])([H])C([H])([H])C4(C([H])([H])[H])C(O[H])(C([H])([H])[H])C2([H])C([H])([H])C2([H])OC24C6(C([H])([H])[H])C([H])([H])[H])C(=O)c2c([H])c([H])c([H])c([H])c2N3[H])C1(C([H])([H])[H])C([H])([H])[H]

$$$$
95:0:1
     RDKit          3D

 99108  0  0  1  0  0  0  0  0999 V2000
    4.4506   -7.3023    1.1530 C   0  0  0  0  0  0  0  0  0  0  0  0
    4.6196   -7.0475    2.6699 C   0  0  0  0  0  0  0  0  0  0  0  0
    4.2233   -8.3383    3.4228 C   0  0  0  0  0  0  0  0  0  0  0  0
    6.0924   -6.6953    3.0323 C   0  0  1  0  0  0  0  0  0  0  0  0
    6.7060   -5.8833    2.0439 O   0  0  0  0  0  0  0  0  0  0  0  0
    6.0497   -5.8793    4.3502 C   0  0  0  0  0  0  0  0  0  0  0  0
    4.5811   -5.4343    4.5273 C   0  0  2  0  0  0  0  0  0  0  0  0
    3.9458   -5.7458    3.1851 C   0  0  2  0  0  0  0  0  0  0  0  0
    2.4075   -5.6388    3.3344 C   0  0  2  0  0  0  0  0  0  0  0  0
    1.7830   -6.5568    4.2902 N   0  0  0  0  0  0  0  0  0  0  0  0
    0.6713   -7.1853    3.7553 C   0  0  0  0  0  0  0  0  0  0  0  0
   -0.2333   -8.0474    4.3950 C   0  0  0  0  0  0  0  0  0  0  0  0
   -1.2898   -8.5705    3.6282 C   0  0  0  0  0  0  0  0  0  0  0  0
   -1.4183   -8.2575    2.2555 C   0  0  0  0  0  0  0  0  0  0  0  0
   -0.5053   -7.3841    1.6339 C   0  0  0  0  0  0  0  0  0  0  0  0
    0.5280   -6.8515    2.4155 C   0  0  0  0  0  0  0  0  0  0  0  0
    1.6028   -5.9404    2.0504 C   0  0  0  0  0  0  0  0  0  0  0  0
    1.8239   -5.4756    0.9315 O   0  0  0  0  0  0  0  0  0  0  0  0
    2.1293   -4.3141    3.6542 O   0  0  0  0  0  0  0  0  0  0  0  0
    2.7237   -3.7196    4.8253 C   0  0  2  0  0  0  0  0  0  0  0  0
    2.3411   -2.2049    4.7316 C   0  0  1  0  0  0  0  0  0  0  0  0
    2.7853   -1.4463    6.0058 C   0  0  1  0  0  0  0  0  0  0  0  0
    4.0400   -0.8826    5.5495 O   0  0  0  0  0  0  0  0  0  0  0  0
    4.3958   -1.4242    4.2420 C   0  0  1  0  0  0  0  0  0  0  0  0
    5.5001   -0.6147    3.5085 C   0  0  0  0  0  0  0  0  0  0  0  0
    5.0286   -2.8706    4.3477 C   0  0  0  0  0  0  0  0  0  0  0  0
    4.2478   -4.0005    5.0502 C   0  0  2  0  0  0  0  0  0  0  0  0
    4.6525   -4.0512    6.5617 C   0  0  0  0  0  0  0  0  0  0  0  0
    2.9811   -1.3664    3.5727 C   0  0  1  0  0  0  0  0  0  0  0  0
    2.9525   -2.0706    2.1859 C   0  0  0  0  0  0  0  0  0  0  0  0
    2.4154    0.1507    3.2922 C   0  0  2  0  0  0  0  0  0  0  0  0
    3.1876    1.3565    3.8947 C   0  0  0  0  0  0  0  0  0  0  0  0
    2.6365    1.8453    5.2177 C   0  0  0  0  0  0  0  0  0  0  0  0
    1.1121    1.6238    5.3842 C   0  0  1  0  0  0  0  0  0  0  0  0
    0.6270    2.7035    6.3826 C   0  0  0  0  0  0  0  0  0  0  0  0
    0.4736    1.8633    3.9556 C   0  0  1  0  0  0  0  0  0  0  0  0
   -1.0448    2.2328    3.9215 C   0  0  0  0  0  0  0  0  0  0  0  0
    0.9638    3.0334    3.3022 O   0  0  0  0  0  0  0  0  0  0  0  0
    0.8586    0.5684    3.1590 C   0  0  2  0  0  0  0  0  0  0  0  0
   -0.1812   -0.4775    3.5914 C   0  0  0  0  0  0  0  0  0  0  0  0
   -0.2649   -0.6889    5.0888 C   0  0  2  0  0  0  0  0  0  0  0  0
   -0.7139    0.2074    6.1091 O   0  0  0  0  0  0  0  0  0  0  0  0
    0.7051    0.1817    5.8893 C   0  0  2  0  0  0  0  0  0  0  0  0
    1.6576   -0.6567    6.8147 C   0  0  0  0  0  0  0  0  0  0  0  0
    0.8334   -1.7976    7.5088 C   0  0  0  0  0  0  0  0  0  0  0  0
    2.1808    0.1051    8.0621 C   0  0  0  0  0  0  0  0  0  0  0  0
    5.1719   -8.0356    0.7934 H   0  0  0  0  0  0  0  0  0  0  0  0
    4.5759   -6.3978    0.5589 H   0  0  0  0  0  0  0  0  0  0  0  0
    3.4659   -7.7050    0.9253 H   0  0  0  0  0  0  0  0  0  0  0  0
    4.3419   -8.2564    4.5030 H   0  0  0  0  0  0  0  0  0  0  0  0
    4.8443   -9.1777    3.1017 H   0  0  0  0  0  0  0  0  0  0  0  0
    3.1922   -8.6243    3.2195 H   0  0  0  0  0  0  0  0  0  0  0  0
    6.7136   -7.5878    3.1314 H   0  0  0  0  0  0  0  0  0  0  0  0
    6.2000   -5.0892    1.9533 H   0  0  0  0  0  0  0  0  0  0  0  0
    6.3418   -6.5228    5.1857 H   0  0  0  0  0  0  0  0  0  0  0  0
    6.7567   -5.0517    4.3395 H   0  0  0  0  0  0  0  0  0  0  0  0
    4.1606   -6.1285    5.2567 H   0  0  0  0  0  0  0  0  0  0  0  0
    4.2411   -4.9752    2.4763 H   0  0  0  0  0  0  0  0  0  0  0  0
    2.0951   -6.6362    5.2447 H   0  0  0  0  0  0  0  0  0  0  0  0
   -0.1183   -8.3056    5.4385 H   0  0  0  0  0  0  0  0  0  0  0  0
   -2.0036   -9.2333    4.0786 H   0  0  0  0  0  0  0  0  0  0  0  0
   -2.2205   -8.6981    1.6832 H   0  0  0  0  0  0  0  0  0  0  0  0
   -0.5766   -7.1420    0.5806 H   0  0  0  0  0  0  0  0  0  0  0  0
    2.1786   -4.1533    5.6637 H   0  0  0  0  0  0  0  0  0  0  0  0
    1.2893   -2.3176    4.6080 H   0  0  0  0  0  0  0  0  0  0  0  0
    3.0934   -2.1643    6.7504 H   0  0  0  0  0  0  0  0  0  0  0  0
    5.1297   -0.0462    2.6580 H   0  0  0  0  0  0  0  0  0  0  0  0
    6.2506   -1.2573    3.0595 H   0  0  0  0  0  0  0  0  0  0  0  0
    6.0319    0.0536    4.1897 H   0  0  0  0  0  0  0  0  0  0  0  0
    5.2958   -3.2102    3.3486 H   0  0  0  0  0  0  0  0  0  0  0  0
    5.9787   -2.7792    4.8668 H   0  0  0  0  0  0  0  0  0  0  0  0
    4.9551   -3.0842    6.9674 H   0  0  0  0  0  0  0  0  0  0  0  0
    5.5096   -4.7032    6.7376 H   0  0  0  0  0  0  0  0  0  0  0  0
    3.8464   -4.4409    7.1857 H   0  0  0  0  0  0  0  0  0  0  0  0
    3.4601   -1.4988    1.4096 H   0  0  0  0  0  0  0  0  0  0  0  0
    1.9293   -2.2346    1.8515 H   0  0  0  0  0  0  0  0  0  0  0  0
    3.4491   -3.0291    2.1641 H   0  0  0  0  0  0  0  0  0  0  0  0
    2.7335    0.2942    2.2607 H   0  0  0  0  0  0  0  0  0  0  0  0
    4.2501    1.2856    4.0270 H   0  0  0  0  0  0  0  0  0  0  0  0
    3.1516    2.1643    3.1633 H   0  0  0  0  0  0  0  0  0  0  0  0
    3.2335    1.3935    5.9906 H   0  0  0  0  0  0  0  0  0  0  0  0
    2.8722    2.9100    5.2845 H   0  0  0  0  0  0  0  0  0  0  0  0
   -0.4419    2.6415    6.5894 H   0  0  0  0  0  0  0  0  0  0  0  0
    0.8151    3.7008    5.9772 H   0  0  0  0  0  0  0  0  0  0  0  0
    1.1554    2.6407    7.3349 H   0  0  0  0  0  0  0  0  0  0  0  0
   -1.7089    1.5488    4.4448 H   0  0  0  0  0  0  0  0  0  0  0  0
   -1.4057    2.2822    2.8927 H   0  0  0  0  0  0  0  0  0  0  0  0
   -1.2219    3.2125    4.3641 H   0  0  0  0  0  0  0  0  0  0  0  0
    0.5728    3.1273    2.4395 H   0  0  0  0  0  0  0  0  0  0  0  0
    0.6722    0.7518    2.0981 H   0  0  0  0  0  0  0  0  0  0  0  0
   -1.1738   -0.2381    3.2176 H   0  0  0  0  0  0  0  0  0  0  0  0
    0.0814   -1.4214    3.1153 H   0  0  0  0  0  0  0  0  0  0  0  0
   -0.5978   -1.6899    5.3470 H   0  0  0  0  0  0  0  0  0  0  0  0
   -0.0656   -1.4160    7.9957 H   0  0  0  0  0  0  0  0  0  0  0  0
    1.4098   -2.3025    8.2892 H   0  0  0  0  0  0  0  0  0  0  0  0
    0.5353   -2.6070    6.8403 H   0  0  0  0  0  0  0  0  0  0  0  0
    1.3526    0.5212    8.6383 H   0  0  0  0  0  0  0  0  0  0  0  0
    2.8708    0.9170    7.8745 H   0  0  0  0  0  0  0  0  0  0  0  0
    2.7194   -0.5704    8.7304 H   0  0  0  0  0  0  0  0  0  0  0  0
  1  2  1  0
  1 47  1  0
  1 48  1  0
  1 49  1  0
  2  8  1  0
  2  3  1  0
  2  4  1  0
  3 50  1  0
  3 51  1  0
  3 52  1  0
  4  5  1  0
  4  6  1  0
  4 53  1  1
  5 54  1  0
  6  7  1  0
  6 55  1  0
  6 56  1  0
  7 27  1  0
  7  8  1  0
  7 57  1  1
  8  9  1  0
  8 58  1  6
  9 17  1  0
  9 10  1  0
  9 19  1  1
 10 11  1  0
 10 59  1  0
 11 16  2  0
 11 12  1  0
 12 13  2  0
 12 60  1  0
 13 14  1  0
 13 61  1  0
 14 15  2  0
 14 62  1  0
 15 16  1  0
 15 63  1  0
 16 17  1  0
 17 18  2  0
 19 20  1  0
 20 27  1  0
 20 21  1  0
 20 64  1  1
 21 29  1  0
 21 22  1  0
 21 65  1  6
 22 44  1  0
 22 23  1  0
 22 66  1  1
 23 24  1  0
 24 25  1  6
 24 26  1  0
 24 29  1  0
 25 67  1  0
 25 68  1  0
 25 69  1  0
 26 27  1  0
 26 70  1  0
 26 71  1  0
 27 28  1  1
 28 72  1  0
 28 73  1  0
 28 74  1  0
 29 30  1  6
 29 31  1  0
 30 75  1  0
 30 76  1  0
 30 77  1  0
 31 39  1  0
 31 32  1  0
 31 78  1  6
 32 33  1  0
 32 79  1  0
 32 80  1  0
 33 34  1  0
 33 81  1  0
 33 82  1  0
 34 43  1  0
 34 35  1  1
 34 36  1  0
 35 83  1  0
 35 84  1  0
 35 85  1  0
 36 37  1  0
 36 38  1  6
 36 39  1  0
 37 86  1  0
 37 87  1  0
 37 88  1  0
 38 89  1  0
 39 40  1  0
 39 90  1  6
 40 41  1  0
 40 91  1  0
 40 92  1  0
 41 43  1  0
 41 42  1  0
 41 93  1  6
 43 42  1  1
 43 44  1  0
 44 45  1  0
 44 46  1  0
 45 94  1  0
 45 95  1  0
 45 96  1  0
 46 97  1  0
 46 98  1  0
 46 99  1  0
M  END
>  <i_m_ct_stereo_status>  (340) 
1

>  <s_m_source_file>  (340) 
/var/tmp/pbs.5076255.sched01/tmp7b2cfgi2/13234zcpj2x.sdf

>  <i_m_source_file_index>  (340) 
13

>  <i_lp_mmshare_version>  (340) 
48012

>  <i_f3d_flags>  (340) 
0

>  <s_epik_input>  (340) 
W2NIXTFbY0hdW2NIXVtjSF1jKEMyPU8pYzFbTkhdW0NAQF0yM1tDQEhdNFtDQEBIXShbQ0gyXVtDQEhdKFtPSF0pQzQoW0NIM10pW0NIM10pW0NAXTUoW0NIM10pW0NASF0oTzMpW0NASF02W0NASF03T1tDQEBdKFtDSDNdKShbQ0gyXTUpW0NAXTYoW0NIM10pW0NASF04W0NAQEhdOVtDQF0oW0NIM10pKFtPSF0pW0NAXShbQ0gzXSkoW0NIMl1bQ0gyXTgpQzEoW0NAQEhdKE8xKVtDSDJdOSlDNyhbQ0gzXSlbQ0gzXQ==

>  <s_epik_cmdline>  (340) 
J2VwaWtfcHl0aG9uJywgJy1waHQnLCAnMi4wJywgJy1waCcsICc3LjAnLCAnLXRuJywgJzgnLCAnLW1hJywgJzIwMCcsICctaW1hZScsICc8aW5maWxlLm1hZT4nLCAnLW9tYWUnLCAnPG91dGZpbGUubWFlPic=

>  <r_lp_tautomer_probability>  (340) 
1

>  <r_epik_Ionization_Penalty>  (340) 
2.39632e-06

>  <r_epik_Ionization_Penalty_Charging>  (340) 
0

>  <r_epik_Ionization_Penalty_Neutral>  (340) 
2.39632e-06

>  <r_epik_State_Penalty>  (340) 
-0

>  <r_epik_Charging_Adjusted_Penalty>  (340) 
0

>  <i_epik_Tot_Q>  (340) 
0

>  <i_epik_Tot_abs_Q>  (340) 
0

>  <s_lp_Force_Field>  (340) 
OPLS3e

>  <r_lp_Energy>  (340) 
185.241

>  <b_lp_Chiralities_Consistent>  (340) 
1

>  <s_lp_Variant>  (340) 
95:0-1

>  <s_i_glide_gridfile>  (340) 
pfpi4k_grid

>  <i_i_glide_lignum>  (340) 
13

>  <i_i_glide_rotatable_bonds>  (340) 
2

>  <r_i_docking_score>  (340) 
-2.74048

>  <r_i_glide_ligand_efficiency>  (340) 
-0.0595757

>  <r_i_glide_ligand_efficiency_sa>  (340) 
-0.213463

>  <r_i_glide_ligand_efficiency_ln>  (340) 
-0.567547

>  <r_i_glide_gscore>  (340) 
-2.74048

>  <r_i_glide_lipo>  (340) 
-0.284603

>  <r_i_glide_hbond>  (340) 
-0.217909

>  <r_i_glide_metal>  (340) 
-0

>  <r_i_glide_rewards>  (340) 
0

>  <r_i_glide_evdw>  (340) 
-32.84

>  <r_i_glide_ecoul>  (340) 
-3.63403

>  <r_i_glide_erotb>  (340) 
0

>  <r_i_glide_esite>  (340) 
-0.0508657

>  <r_i_glide_emodel>  (340) 
-42.8625

>  <r_i_glide_energy>  (340) 
-36.4741

>  <r_i_glide_einternal>  (340) 
0.0064339

>  <r_i_glide_intrahb_reward>  (340) 
-0

>  <i_i_glide_confnum>  (340) 
2

>  <i_i_glide_posenum>  (340) 
1

>  <r_i_glide_eff_state_penalty>  (340) 
0

>  <ligand_id>  (340) 
95

>  <original_smiles>  (340) 
CC1(C)C(O)CC2C1C1(Nc3ccccc3C1=O)OC1C3C4OC(C)(CC21C)C3(C)C1CCC2(C)C(C)(O)C1CC1OC12C4(C)C

>  <smiles>  (340) 
[H]OC1([H])C([H])([H])C2([H])C([H])(C3(OC4([H])C5([H])C6([H])OC(C([H])([H])[H])(C([H])([H])C42C([H])([H])[H])C5(C([H])([H])[H])C2([H])C([H])([H])C([H])([H])C4(C([H])([H])[H])C(O[H])(C([H])([H])[H])C2([H])C([H])([H])C2([H])OC24C6(C([H])([H])[H])C([H])([H])[H])C(=O)c2c([H])c([H])c([H])c([H])c2N3[H])C1(C([H])([H])[H])C([H])([H])[H]

$$$$
95:0:2
     RDKit          3D

 99108  0  0  1  0  0  0  0  0999 V2000
    3.0382   -9.4943    7.8967 C   0  0  0  0  0  0  0  0  0  0  0  0
    1.9038   -8.5431    8.3373 C   0  0  0  0  0  0  0  0  0  0  0  0
    0.5758   -9.3221    8.2629 C   0  0  0  0  0  0  0  0  0  0  0  0
    2.0992   -8.0526    9.8017 C   0  0  1  0  0  0  0  0  0  0  0  0
    3.4615   -7.8085   10.1056 O   0  0  0  0  0  0  0  0  0  0  0  0
    1.3426   -6.7060    9.9319 C   0  0  0  0  0  0  0  0  0  0  0  0
    1.0470   -6.2439    8.4873 C   0  0  2  0  0  0  0  0  0  0  0  0
    1.9059   -7.1619    7.6303 C   0  0  2  0  0  0  0  0  0  0  0  0
    1.4786   -7.0091    6.1487 C   0  0  2  0  0  0  0  0  0  0  0  0
    0.0968   -7.3673    5.8439 N   0  0  0  0  0  0  0  0  0  0  0  0
   -0.0047   -8.1717    4.7203 C   0  0  0  0  0  0  0  0  0  0  0  0
   -1.1669   -8.6106    4.0657 C   0  0  0  0  0  0  0  0  0  0  0  0
   -1.0100   -9.4531    2.9435 C   0  0  0  0  0  0  0  0  0  0  0  0
    0.2741   -9.8615    2.5149 C   0  0  0  0  0  0  0  0  0  0  0  0
    1.4324   -9.3843    3.1639 C   0  0  0  0  0  0  0  0  0  0  0  0
    1.2598   -8.5278    4.2661 C   0  0  0  0  0  0  0  0  0  0  0  0
    2.2503   -7.8726    5.1173 C   0  0  0  0  0  0  0  0  0  0  0  0
    3.4786   -7.9392    5.0307 O   0  0  0  0  0  0  0  0  0  0  0  0
    1.7358   -5.6908    5.7964 O   0  0  0  0  0  0  0  0  0  0  0  0
    1.1445   -4.6114    6.5436 C   0  0  2  0  0  0  0  0  0  0  0  0
    1.8362   -3.3335    5.9690 C   0  0  1  0  0  0  0  0  0  0  0  0
    1.2025   -2.0554    6.5674 C   0  0  1  0  0  0  0  0  0  0  0  0
    2.1451   -1.7670    7.6309 O   0  0  0  0  0  0  0  0  0  0  0  0
    3.0996   -2.8640    7.7815 C   0  0  1  0  0  0  0  0  0  0  0  0
    4.3552   -2.4956    8.6250 C   0  0  0  0  0  0  0  0  0  0  0  0
    2.4943   -4.0775    8.5942 C   0  0  0  0  0  0  0  0  0  0  0  0
    1.1852   -4.7376    8.1044 C   0  0  2  0  0  0  0  0  0  0  0  0
   -0.0361   -4.0590    8.8093 C   0  0  0  0  0  0  0  0  0  0  0  0
    3.3636   -3.1471    6.2591 C   0  0  1  0  0  0  0  0  0  0  0  0
    4.2167   -4.4275    6.0271 C   0  0  0  0  0  0  0  0  0  0  0  0
    4.1665   -1.9594    5.4603 C   0  0  2  0  0  0  0  0  0  0  0  0
    4.3984   -0.6050    6.1914 C   0  0  0  0  0  0  0  0  0  0  0  0
    3.3639    0.4551    5.8640 C   0  0  0  0  0  0  0  0  0  0  0  0
    2.7530    0.3219    4.4436 C   0  0  1  0  0  0  0  0  0  0  0  0
    2.2878    1.7466    4.0404 C   0  0  0  0  0  0  0  0  0  0  0  0
    3.9179   -0.1681    3.5010 C   0  0  1  0  0  0  0  0  0  0  0  0
    3.7618    0.1307    1.9740 C   0  0  0  0  0  0  0  0  0  0  0  0
    5.1373    0.5271    3.7048 O   0  0  0  0  0  0  0  0  0  0  0  0
    4.1010   -1.6832    3.8643 C   0  0  2  0  0  0  0  0  0  0  0  0
    3.0199   -2.4224    3.0525 C   0  0  0  0  0  0  0  0  0  0  0  0
    1.6189   -1.8750    3.3127 C   0  0  2  0  0  0  0  0  0  0  0  0
    1.0656   -0.5967    2.9878 O   0  0  0  0  0  0  0  0  0  0  0  0
    1.5672   -0.7140    4.3247 C   0  0  2  0  0  0  0  0  0  0  0  0
    0.6099   -0.9881    5.5387 C   0  0  0  0  0  0  0  0  0  0  0  0
   -0.7066   -1.6609    5.0177 C   0  0  0  0  0  0  0  0  0  0  0  0
    0.0209    0.2854    6.2081 C   0  0  0  0  0  0  0  0  0  0  0  0
    3.1718  -10.3057    8.6128 H   0  0  0  0  0  0  0  0  0  0  0  0
    3.9947   -8.9862    7.7880 H   0  0  0  0  0  0  0  0  0  0  0  0
    2.8072   -9.9701    6.9456 H   0  0  0  0  0  0  0  0  0  0  0  0
   -0.2854   -8.7461    8.5984 H   0  0  0  0  0  0  0  0  0  0  0  0
    0.6337  -10.2093    8.8966 H   0  0  0  0  0  0  0  0  0  0  0  0
    0.3704   -9.6854    7.2570 H   0  0  0  0  0  0  0  0  0  0  0  0
    1.7482   -8.7825   10.5338 H   0  0  0  0  0  0  0  0  0  0  0  0
    3.8107   -7.2155    9.4562 H   0  0  0  0  0  0  0  0  0  0  0  0
    0.4051   -6.8648   10.4725 H   0  0  0  0  0  0  0  0  0  0  0  0
    1.9120   -5.9767   10.5142 H   0  0  0  0  0  0  0  0  0  0  0  0
    0.0036   -6.5126    8.3110 H   0  0  0  0  0  0  0  0  0  0  0  0
    2.9374   -6.8233    7.6852 H   0  0  0  0  0  0  0  0  0  0  0  0
   -0.6787   -6.9696    6.3466 H   0  0  0  0  0  0  0  0  0  0  0  0
   -2.1494   -8.3607    4.4438 H   0  0  0  0  0  0  0  0  0  0  0  0
   -1.8881   -9.8303    2.4455 H   0  0  0  0  0  0  0  0  0  0  0  0
    0.3606  -10.5555    1.6908 H   0  0  0  0  0  0  0  0  0  0  0  0
    2.4203   -9.6778    2.8385 H   0  0  0  0  0  0  0  0  0  0  0  0
    0.0991   -4.6005    6.2357 H   0  0  0  0  0  0  0  0  0  0  0  0
    1.6453   -3.5012    4.9341 H   0  0  0  0  0  0  0  0  0  0  0  0
    0.3060   -2.3279    7.1019 H   0  0  0  0  0  0  0  0  0  0  0  0
    5.2600   -2.4218    8.0230 H   0  0  0  0  0  0  0  0  0  0  0  0
    4.5999   -3.2442    9.3784 H   0  0  0  0  0  0  0  0  0  0  0  0
    4.2111   -1.5635    9.1721 H   0  0  0  0  0  0  0  0  0  0  0  0
    3.2552   -4.8525    8.6752 H   0  0  0  0  0  0  0  0  0  0  0  0
    2.3385   -3.7475    9.6197 H   0  0  0  0  0  0  0  0  0  0  0  0
    0.1401   -3.0144    9.0683 H   0  0  0  0  0  0  0  0  0  0  0  0
   -0.2851   -4.5391    9.7572 H   0  0  0  0  0  0  0  0  0  0  0  0
   -0.9388   -4.1135    8.1987 H   0  0  0  0  0  0  0  0  0  0  0  0
    5.2647   -4.2911    6.2907 H   0  0  0  0  0  0  0  0  0  0  0  0
    4.1798   -4.7392    4.9841 H   0  0  0  0  0  0  0  0  0  0  0  0
    3.9101   -5.2756    6.6194 H   0  0  0  0  0  0  0  0  0  0  0  0
    5.1904   -2.3200    5.5375 H   0  0  0  0  0  0  0  0  0  0  0  0
    4.5020   -0.5995    7.2603 H   0  0  0  0  0  0  0  0  0  0  0  0
    5.3906   -0.2459    5.9182 H   0  0  0  0  0  0  0  0  0  0  0  0
    2.6363    0.4361    6.6562 H   0  0  0  0  0  0  0  0  0  0  0  0
    3.8514    1.4276    5.9748 H   0  0  0  0  0  0  0  0  0  0  0  0
    1.8291    1.7851    3.0506 H   0  0  0  0  0  0  0  0  0  0  0  0
    3.1358    2.4359    4.0167 H   0  0  0  0  0  0  0  0  0  0  0  0
    1.5699    2.1578    4.7514 H   0  0  0  0  0  0  0  0  0  0  0  0
    2.8474   -0.2275    1.5072 H   0  0  0  0  0  0  0  0  0  0  0  0
    4.5855   -0.3127    1.4139 H   0  0  0  0  0  0  0  0  0  0  0  0
    3.7857    1.1992    1.7684 H   0  0  0  0  0  0  0  0  0  0  0  0
    4.9889    1.4421    3.4998 H   0  0  0  0  0  0  0  0  0  0  0  0
    5.0565   -2.0076    3.4488 H   0  0  0  0  0  0  0  0  0  0  0  0
    3.2225   -2.3943    1.9811 H   0  0  0  0  0  0  0  0  0  0  0  0
    3.0511   -3.4849    3.2970 H   0  0  0  0  0  0  0  0  0  0  0  0
    0.8471   -2.6212    3.1605 H   0  0  0  0  0  0  0  0  0  0  0  0
   -1.1571   -1.1024    4.1940 H   0  0  0  0  0  0  0  0  0  0  0  0
   -1.4727   -1.7285    5.7940 H   0  0  0  0  0  0  0  0  0  0  0  0
   -0.5760   -2.6916    4.6859 H   0  0  0  0  0  0  0  0  0  0  0  0
   -0.4743    0.9179    5.4691 H   0  0  0  0  0  0  0  0  0  0  0  0
    0.7202    0.9166    6.7399 H   0  0  0  0  0  0  0  0  0  0  0  0
   -0.7335    0.0202    6.9506 H   0  0  0  0  0  0  0  0  0  0  0  0
  1  2  1  0
  1 47  1  0
  1 48  1  0
  1 49  1  0
  2  8  1  0
  2  3  1  0
  2  4  1  0
  3 50  1  0
  3 51  1  0
  3 52  1  0
  4  5  1  0
  4  6  1  0
  4 53  1  1
  5 54  1  0
  6  7  1  0
  6 55  1  0
  6 56  1  0
  7 27  1  0
  7  8  1  0
  7 57  1  6
  8  9  1  0
  8 58  1  6
  9 17  1  0
  9 10  1  0
  9 19  1  6
 10 11  1  0
 10 59  1  0
 11 16  2  0
 11 12  1  0
 12 13  2  0
 12 60  1  0
 13 14  1  0
 13 61  1  0
 14 15  2  0
 14 62  1  0
 15 16  1  0
 15 63  1  0
 16 17  1  0
 17 18  2  0
 19 20  1  0
 20 27  1  0
 20 21  1  0
 20 64  1  6
 21 29  1  0
 21 22  1  0
 21 65  1  6
 22 44  1  0
 22 23  1  0
 22 66  1  1
 23 24  1  0
 24 25  1  1
 24 26  1  0
 24 29  1  0
 25 67  1  0
 25 68  1  0
 25 69  1  0
 26 27  1  0
 26 70  1  0
 26 71  1  0
 27 28  1  1
 28 72  1  0
 28 73  1  0
 28 74  1  0
 29 30  1  1
 29 31  1  0
 30 75  1  0
 30 76  1  0
 30 77  1  0
 31 39  1  0
 31 32  1  0
 31 78  1  6
 32 33  1  0
 32 79  1  0
 32 80  1  0
 33 34  1  0
 33 81  1  0
 33 82  1  0
 34 43  1  0
 34 35  1  6
 34 36  1  0
 35 83  1  0
 35 84  1  0
 35 85  1  0
 36 37  1  0
 36 38  1  1
 36 39  1  0
 37 86  1  0
 37 87  1  0
 37 88  1  0
 38 89  1  0
 39 40  1  0
 39 90  1  6
 40 41  1  0
 40 91  1  0
 40 92  1  0
 41 43  1  0
 41 42  1  0
 41 93  1  1
 43 42  1  6
 43 44  1  0
 44 45  1  0
 44 46  1  0
 45 94  1  0
 45 95  1  0
 45 96  1  0
 46 97  1  0
 46 98  1  0
 46 99  1  0
M  END
>  <i_m_ct_stereo_status>  (341) 
1

>  <s_m_source_file>  (341) 
/var/tmp/pbs.5076255.sched01/tmp7b2cfgi2/13234zcpj2x.sdf

>  <i_m_source_file_index>  (341) 
13

>  <i_lp_mmshare_version>  (341) 
48012

>  <i_f3d_flags>  (341) 
0

>  <s_epik_input>  (341) 
W2NIXTFbY0hdW2NIXVtjSF1jKEMyPU8pYzFbTkhdW0NAQF0yM1tDQEhdNFtDQEBIXShbQ0gyXVtDQEhdKFtPSF0pQzQoW0NIM10pW0NIM10pW0NAXTUoW0NIM10pW0NASF0oTzMpW0NASF02W0NASF03T1tDQEBdKFtDSDNdKShbQ0gyXTUpW0NAXTYoW0NIM10pW0NASF04W0NAQEhdOVtDQF0oW0NIM10pKFtPSF0pW0NAXShbQ0gzXSkoW0NIMl1bQ0gyXTgpQzEoW0NAQEhdKE8xKVtDSDJdOSlDNyhbQ0gzXSlbQ0gzXQ==

>  <s_epik_cmdline>  (341) 
J2VwaWtfcHl0aG9uJywgJy1waHQnLCAnMi4wJywgJy1waCcsICc3LjAnLCAnLXRuJywgJzgnLCAnLW1hJywgJzIwMCcsICctaW1hZScsICc8aW5maWxlLm1hZT4nLCAnLW9tYWUnLCAnPG91dGZpbGUubWFlPic=

>  <r_lp_tautomer_probability>  (341) 
1

>  <r_epik_Ionization_Penalty>  (341) 
2.39632e-06

>  <r_epik_Ionization_Penalty_Charging>  (341) 
0

>  <r_epik_Ionization_Penalty_Neutral>  (341) 
2.39632e-06

>  <r_epik_State_Penalty>  (341) 
-0

>  <r_epik_Charging_Adjusted_Penalty>  (341) 
0

>  <i_epik_Tot_Q>  (341) 
0

>  <i_epik_Tot_abs_Q>  (341) 
0

>  <s_lp_Force_Field>  (341) 
OPLS3e

>  <r_lp_Energy>  (341) 
185.241

>  <b_lp_Chiralities_Consistent>  (341) 
1

>  <s_lp_Variant>  (341) 
95:0-1

>  <s_i_glide_gridfile>  (341) 
pfpi4k_grid

>  <i_i_glide_lignum>  (341) 
13

>  <i_i_glide_rotatable_bonds>  (341) 
2

>  <r_i_docking_score>  (341) 
-1.83971

>  <r_i_glide_ligand_efficiency>  (341) 
-0.0399938

>  <r_i_glide_ligand_efficiency_sa>  (341) 
-0.1433

>  <r_i_glide_ligand_efficiency_ln>  (341) 
-0.381

>  <r_i_glide_gscore>  (341) 
-1.83971

>  <r_i_glide_lipo>  (341) 
-0.11079

>  <r_i_glide_hbond>  (341) 
-0.240173

>  <r_i_glide_metal>  (341) 
-0

>  <r_i_glide_rewards>  (341) 
0

>  <r_i_glide_evdw>  (341) 
-28.427

>  <r_i_glide_ecoul>  (341) 
-0.287098

>  <r_i_glide_erotb>  (341) 
0

>  <r_i_glide_esite>  (341) 
-0.0243373

>  <r_i_glide_emodel>  (341) 
-32.9231

>  <r_i_glide_energy>  (341) 
-28.7141

>  <r_i_glide_einternal>  (341) 
0.0199712

>  <r_i_glide_intrahb_reward>  (341) 
-0

>  <i_i_glide_confnum>  (341) 
2

>  <i_i_glide_posenum>  (341) 
5

>  <r_i_glide_eff_state_penalty>  (341) 
0

>  <ligand_id>  (341) 
95

>  <original_smiles>  (341) 
CC1(C)C(O)CC2C1C1(Nc3ccccc3C1=O)OC1C3C4OC(C)(CC21C)C3(C)C1CCC2(C)C(C)(O)C1CC1OC12C4(C)C

>  <smiles>  (341) 
[H]OC1([H])C([H])([H])C2([H])C([H])(C3(OC4([H])C5([H])C6([H])OC(C([H])([H])[H])(C([H])([H])C42C([H])([H])[H])C5(C([H])([H])[H])C2([H])C([H])([H])C([H])([H])C4(C([H])([H])[H])C(O[H])(C([H])([H])[H])C2([H])C([H])([H])C2([H])OC24C6(C([H])([H])[H])C([H])([H])[H])C(=O)c2c([H])c([H])c([H])c([H])c2N3[H])C1(C([H])([H])[H])C([H])([H])[H]

$$$$
95:1:0
     RDKit          3D

 99108  0  0  1  0  0  0  0  0999 V2000
    3.9379   -7.6727    0.9339 C   0  0  0  0  0  0  0  0  0  0  0  0
    4.5568   -7.1194    2.2336 C   0  0  0  0  0  0  0  0  0  0  0  0
    4.5585   -8.2511    3.2877 C   0  0  0  0  0  0  0  0  0  0  0  0
    6.0243   -6.6496    2.0100 C   0  0  1  0  0  0  0  0  0  0  0  0
    6.2023   -6.0254    0.7500 O   0  0  0  0  0  0  0  0  0  0  0  0
    6.3206   -5.5825    3.0885 C   0  0  0  0  0  0  0  0  0  0  0  0
    4.9531   -5.1764    3.6787 C   0  0  2  0  0  0  0  0  0  0  0  0
    3.9525   -5.7637    2.7005 C   0  0  2  0  0  0  0  0  0  0  0  0
    2.5350   -5.6781    3.3268 C   0  0  2  0  0  0  0  0  0  0  0  0
    2.3386   -6.4320    4.5627 N   0  0  0  0  0  0  0  0  0  0  0  0
    1.1787   -7.1872    4.5274 C   0  0  0  0  0  0  0  0  0  0  0  0
    0.6202   -7.9568    5.5585 C   0  0  0  0  0  0  0  0  0  0  0  0
   -0.5702   -8.6546    5.2762 C   0  0  0  0  0  0  0  0  0  0  0  0
   -1.1812   -8.5679    4.0046 C   0  0  0  0  0  0  0  0  0  0  0  0
   -0.6108   -7.7875    2.9795 C   0  0  0  0  0  0  0  0  0  0  0  0
    0.5759   -7.0970    3.2789 C   0  0  0  0  0  0  0  0  0  0  0  0
    1.3778   -6.2102    2.4434 C   0  0  0  0  0  0  0  0  0  0  0  0
    1.1609   -5.8873    1.2762 O   0  0  0  0  0  0  0  0  0  0  0  0
    2.2572   -4.3253    3.5107 O   0  0  0  0  0  0  0  0  0  0  0  0
    3.1226   -3.5102    4.3276 C   0  0  2  0  0  0  0  0  0  0  0  0
    2.5693   -2.0354    4.1832 C   0  0  1  0  0  0  0  0  0  0  0  0
    3.3300   -1.0835    5.2887 C   0  0  1  0  0  0  0  0  0  0  0  0
    4.4705   -0.8452    4.3976 O   0  0  0  0  0  0  0  0  0  0  0  0
    4.2934   -1.3043    3.0125 C   0  0  1  0  0  0  0  0  0  0  0  0
    4.9888   -0.3244    2.0652 C   0  0  0  0  0  0  0  0  0  0  0  0
    5.0836   -2.6579    2.9669 C   0  0  0  0  0  0  0  0  0  0  0  0
    4.6659   -3.6884    4.0523 C   0  0  2  0  0  0  0  0  0  0  0  0
    5.5117   -3.4707    5.3516 C   0  0  0  0  0  0  0  0  0  0  0  0
    2.7297   -1.4175    2.7133 C   0  0  1  0  0  0  0  0  0  0  0  0
    2.4722   -2.3933    1.5264 C   0  0  0  0  0  0  0  0  0  0  0  0
    1.9248    0.0163    2.2685 C   0  0  1  0  0  0  0  0  0  0  0  0
    0.5528    0.9444    2.0816 C   0  0  0  0  0  0  0  0  0  0  0  0
   -0.1486    1.7843    3.3557 C   0  0  0  0  0  0  0  0  0  0  0  0
    0.2543    1.3076    4.9057 C   0  0  1  0  0  0  0  0  0  0  0  0
   -0.9983    1.6046    5.7808 C   0  0  0  0  0  0  0  0  0  0  0  0
    0.5852   -0.0456    4.5450 C   0  0  1  0  0  0  0  0  0  0  0  0
    0.3547   -0.8912    5.8949 C   0  0  0  0  0  0  0  0  0  0  0  0
   -0.4477   -0.7453    3.8561 O   0  0  0  0  0  0  0  0  0  0  0  0
    1.9251    0.5397    3.5764 C   0  0  2  0  0  0  0  0  0  0  0  0
    2.5563    2.0517    3.6937 C   0  0  0  0  0  0  0  0  0  0  0  0
    2.0543    2.8444    4.8961 C   0  0  1  0  0  0  0  0  0  0  0  0
    2.0543    2.7606    6.3307 O   0  0  0  0  0  0  0  0  0  0  0  0
    1.6936    1.5767    5.7033 C   0  0  1  0  0  0  0  0  0  0  0  0
    2.8627    0.3615    6.1402 C   0  0  0  0  0  0  0  0  0  0  0  0
    2.6437   -0.0347    7.6408 C   0  0  0  0  0  0  0  0  0  0  0  0
    4.2379    1.0985    6.2871 C   0  0  0  0  0  0  0  0  0  0  0  0
    4.5680   -8.4408    0.4844 H   0  0  0  0  0  0  0  0  0  0  0  0
    3.7831   -6.8963    0.1858 H   0  0  0  0  0  0  0  0  0  0  0  0
    2.9737   -8.1407    1.1274 H   0  0  0  0  0  0  0  0  0  0  0  0
    5.0146   -7.9551    4.2314 H   0  0  0  0  0  0  0  0  0  0  0  0
    5.1203   -9.1137    2.9244 H   0  0  0  0  0  0  0  0  0  0  0  0
    3.5515   -8.6088    3.4968 H   0  0  0  0  0  0  0  0  0  0  0  0
    6.7343   -7.4783    2.0542 H   0  0  0  0  0  0  0  0  0  0  0  0
    5.5488   -5.3471    0.6555 H   0  0  0  0  0  0  0  0  0  0  0  0
    6.9499   -6.0144    3.8712 H   0  0  0  0  0  0  0  0  0  0  0  0
    6.8734   -4.7440    2.6620 H   0  0  0  0  0  0  0  0  0  0  0  0
    4.8662   -5.7420    4.6068 H   0  0  0  0  0  0  0  0  0  0  0  0
    3.9372   -5.1397    1.8100 H   0  0  0  0  0  0  0  0  0  0  0  0
    2.9463   -6.3219    5.3619 H   0  0  0  0  0  0  0  0  0  0  0  0
    1.0865   -8.0144    6.5308 H   0  0  0  0  0  0  0  0  0  0  0  0
   -1.0128   -9.2737    6.0433 H   0  0  0  0  0  0  0  0  0  0  0  0
   -2.0894   -9.1165    3.8087 H   0  0  0  0  0  0  0  0  0  0  0  0
   -1.0616   -7.7342    1.9984 H   0  0  0  0  0  0  0  0  0  0  0  0
    2.9266   -3.8406    5.3487 H   0  0  0  0  0  0  0  0  0  0  0  0
    1.5234   -2.2533    4.2979 H   0  0  0  0  0  0  0  0  0  0  0  0
    3.6718   -1.7378    6.0907 H   0  0  0  0  0  0  0  0  0  0  0  0
    4.9335   -0.6560    1.0298 H   0  0  0  0  0  0  0  0  0  0  0  0
    6.0402   -0.1932    2.3239 H   0  0  0  0  0  0  0  0  0  0  0  0
    4.5031    0.6394    2.1162 H   0  0  0  0  0  0  0  0  0  0  0  0
    5.0588   -3.0941    1.9720 H   0  0  0  0  0  0  0  0  0  0  0  0
    6.1378   -2.4288    3.1001 H   0  0  0  0  0  0  0  0  0  0  0  0
    5.6944   -2.4305    5.6120 H   0  0  0  0  0  0  0  0  0  0  0  0
    6.5076   -3.9052    5.2686 H   0  0  0  0  0  0  0  0  0  0  0  0
    5.0549   -3.9469    6.2191 H   0  0  0  0  0  0  0  0  0  0  0  0
    2.6247   -1.9023    0.5635 H   0  0  0  0  0  0  0  0  0  0  0  0
    1.4411   -2.7351    1.5677 H   0  0  0  0  0  0  0  0  0  0  0  0
    3.0682   -3.2885    1.4995 H   0  0  0  0  0  0  0  0  0  0  0  0
    1.1631   -0.6944    1.9945 H   0  0  0  0  0  0  0  0  0  0  0  0
    0.8142    1.7084    1.3475 H   0  0  0  0  0  0  0  0  0  0  0  0
   -0.2571    0.4378    1.5424 H   0  0  0  0  0  0  0  0  0  0  0  0
   -0.0092    2.8539    3.2096 H   0  0  0  0  0  0  0  0  0  0  0  0
   -1.2295    1.6802    3.2306 H   0  0  0  0  0  0  0  0  0  0  0  0
   -0.8487    1.4488    6.8488 H   0  0  0  0  0  0  0  0  0  0  0  0
   -1.8475    0.9957    5.4597 H   0  0  0  0  0  0  0  0  0  0  0  0
   -1.3008    2.6452    5.6577 H   0  0  0  0  0  0  0  0  0  0  0  0
    0.3543   -0.2957    6.7994 H   0  0  0  0  0  0  0  0  0  0  0  0
    0.9859   -1.7403    6.1165 H   0  0  0  0  0  0  0  0  0  0  0  0
   -0.6517   -1.3157    5.9645 H   0  0  0  0  0  0  0  0  0  0  0  0
   -0.5392   -0.3313    3.0094 H   0  0  0  0  0  0  0  0  0  0  0  0
    2.9061    0.4478    3.8272 H   0  0  0  0  0  0  0  0  0  0  0  0
    3.6468    2.1328    3.6479 H   0  0  0  0  0  0  0  0  0  0  0  0
    2.2972    2.6447    2.8136 H   0  0  0  0  0  0  0  0  0  0  0  0
    1.3507    3.6241    4.6274 H   0  0  0  0  0  0  0  0  0  0  0  0
    2.0697    0.7236    8.1777 H   0  0  0  0  0  0  0  0  0  0  0  0
    3.5748   -0.1653    8.1956 H   0  0  0  0  0  0  0  0  0  0  0  0
    2.1416   -0.9914    7.7783 H   0  0  0  0  0  0  0  0  0  0  0  0
    4.2038    1.9183    7.0071 H   0  0  0  0  0  0  0  0  0  0  0  0
    4.6187    1.5074    5.3582 H   0  0  0  0  0  0  0  0  0  0  0  0
    5.0179    0.4194    6.6374 H   0  0  0  0  0  0  0  0  0  0  0  0
  1  2  1  0
  1 47  1  0
  1 48  1  0
  1 49  1  0
  2  8  1  0
  2  3  1  0
  2  4  1  0
  3 50  1  0
  3 51  1  0
  3 52  1  0
  4  5  1  0
  4  6  1  0
  4 53  1  1
  5 54  1  0
  6  7  1  0
  6 55  1  0
  6 56  1  0
  7 27  1  0
  7  8  1  0
  7 57  1  1
  8  9  1  0
  8 58  1  6
  9 17  1  0
  9 10  1  0
  9 19  1  1
 10 11  1  0
 10 59  1  0
 11 16  2  0
 11 12  1  0
 12 13  2  0
 12 60  1  0
 13 14  1  0
 13 61  1  0
 14 15  2  0
 14 62  1  0
 15 16  1  0
 15 63  1  0
 16 17  1  0
 17 18  2  0
 19 20  1  0
 20 27  1  0
 20 21  1  0
 20 64  1  1
 21 29  1  0
 21 22  1  0
 21 65  1  1
 22 44  1  0
 22 23  1  0
 22 66  1  1
 23 24  1  0
 24 25  1  6
 24 26  1  0
 24 29  1  0
 25 67  1  0
 25 68  1  0
 25 69  1  0
 26 27  1  0
 26 70  1  0
 26 71  1  0
 27 28  1  1
 28 72  1  0
 28 73  1  0
 28 74  1  0
 29 30  1  6
 29 31  1  0
 30 75  1  0
 30 76  1  0
 30 77  1  0
 31 39  1  0
 31 32  1  0
 31 78  1  6
 32 33  1  0
 32 79  1  0
 32 80  1  0
 33 34  1  0
 33 81  1  0
 33 82  1  0
 34 43  1  0
 34 35  1  1
 34 36  1  0
 35 83  1  0
 35 84  1  0
 35 85  1  0
 36 37  1  0
 36 38  1  6
 36 39  1  0
 37 86  1  0
 37 87  1  0
 37 88  1  0
 38 89  1  0
 39 40  1  0
 39 90  1  1
 40 41  1  0
 40 91  1  0
 40 92  1  0
 41 43  1  0
 41 42  1  0
 41 93  1  1
 43 42  1  1
 43 44  1  0
 44 45  1  0
 44 46  1  0
 45 94  1  0
 45 95  1  0
 45 96  1  0
 46 97  1  0
 46 98  1  0
 46 99  1  0
M  END
>  <i_m_ct_stereo_status>  (342) 
1

>  <s_m_source_file>  (342) 
/var/tmp/pbs.5076255.sched01/tmp7b2cfgi2/13234zcpj2x.sdf

>  <i_m_source_file_index>  (342) 
14

>  <i_lp_mmshare_version>  (342) 
48012

>  <i_f3d_flags>  (342) 
0

>  <s_epik_input>  (342) 
W2NIXTFbY0hdW2NIXVtjSF1jKEMyPU8pYzFbTkhdW0NAQF0yM1tDQEhdNFtDQEBIXShbQ0gyXVtDQEhdKFtPSF0pQzQoW0NIM10pW0NIM10pW0NAXTUoW0NIM10pW0NASF0oTzMpW0NASF02W0NASF03T1tDQEBdKFtDSDNdKShbQ0gyXTUpW0NAXTYoW0NIM10pW0NASF04W0NAQEhdOVtDQF0oW0NIM10pKFtPSF0pW0NAXShbQ0gzXSkoW0NIMl1bQ0gyXTgpQzEoW0NAQEhdKE8xKVtDSDJdOSlDNyhbQ0gzXSlbQ0gzXQ==

>  <s_epik_cmdline>  (342) 
J2VwaWtfcHl0aG9uJywgJy1waHQnLCAnMi4wJywgJy1waCcsICc3LjAnLCAnLXRuJywgJzgnLCAnLW1hJywgJzIwMCcsICctaW1hZScsICc8aW5maWxlLm1hZT4nLCAnLW9tYWUnLCAnPG91dGZpbGUubWFlPic=

>  <r_lp_tautomer_probability>  (342) 
1

>  <r_epik_Ionization_Penalty>  (342) 
2.39632e-06

>  <r_epik_Ionization_Penalty_Charging>  (342) 
0

>  <r_epik_Ionization_Penalty_Neutral>  (342) 
2.39632e-06

>  <r_epik_State_Penalty>  (342) 
-0

>  <r_epik_Charging_Adjusted_Penalty>  (342) 
0

>  <i_epik_Tot_Q>  (342) 
0

>  <i_epik_Tot_abs_Q>  (342) 
0

>  <s_lp_Force_Field>  (342) 
OPLS3e

>  <r_lp_Energy>  (342) 
522.85

>  <b_lp_Chiralities_Consistent>  (342) 
1

>  <s_lp_Variant>  (342) 
95:0-2

>  <s_i_glide_gridfile>  (342) 
pfpi4k_grid

>  <i_i_glide_lignum>  (342) 
14

>  <i_i_glide_rotatable_bonds>  (342) 
2

>  <r_i_docking_score>  (342) 
-2.7183

>  <r_i_glide_ligand_efficiency>  (342) 
-0.0590934

>  <r_i_glide_ligand_efficiency_sa>  (342) 
-0.211734

>  <r_i_glide_ligand_efficiency_ln>  (342) 
-0.562953

>  <r_i_glide_gscore>  (342) 
-2.7183

>  <r_i_glide_lipo>  (342) 
-0.387048

>  <r_i_glide_hbond>  (342) 
-0.155802

>  <r_i_glide_metal>  (342) 
-0

>  <r_i_glide_rewards>  (342) 
0

>  <r_i_glide_evdw>  (342) 
-31.0238

>  <r_i_glide_ecoul>  (342) 
-3.89727

>  <r_i_glide_erotb>  (342) 
0

>  <r_i_glide_esite>  (342) 
-0.0396649

>  <r_i_glide_emodel>  (342) 
-41.004

>  <r_i_glide_energy>  (342) 
-34.9211

>  <r_i_glide_einternal>  (342) 
0.0664761

>  <r_i_glide_intrahb_reward>  (342) 
-0

>  <i_i_glide_confnum>  (342) 
1

>  <i_i_glide_posenum>  (342) 
29

>  <r_i_glide_eff_state_penalty>  (342) 
0

>  <ligand_id>  (342) 
95

>  <original_smiles>  (342) 
CC1(C)C(O)CC2C1C1(Nc3ccccc3C1=O)OC1C3C4OC(C)(CC21C)C3(C)C1CCC2(C)C(C)(O)C1CC1OC12C4(C)C

>  <smiles>  (342) 
[H]OC1([H])C([H])([H])C2([H])C([H])(C3(OC4([H])C5([H])C6([H])OC(C([H])([H])[H])(C([H])([H])C42C([H])([H])[H])C5(C([H])([H])[H])C2([H])C([H])([H])C([H])([H])C4(C([H])([H])[H])C(O[H])(C([H])([H])[H])C2([H])C([H])([H])C2([H])OC24C6(C([H])([H])[H])C([H])([H])[H])C(=O)c2c([H])c([H])c([H])c([H])c2N3[H])C1(C([H])([H])[H])C([H])([H])[H]

$$$$
95:1:1
     RDKit          3D

 99108  0  0  1  0  0  0  0  0999 V2000
    3.9551   -7.6597    0.9515 C   0  0  0  0  0  0  0  0  0  0  0  0
    4.5736   -7.1271    2.2597 C   0  0  0  0  0  0  0  0  0  0  0  0
    4.5799   -8.2762    3.2941 C   0  0  0  0  0  0  0  0  0  0  0  0
    6.0397   -6.6508    2.0441 C   0  0  1  0  0  0  0  0  0  0  0  0
    6.1990   -5.9937    0.7996 O   0  0  0  0  0  0  0  0  0  0  0  0
    6.3326   -5.6016    3.1416 C   0  0  0  0  0  0  0  0  0  0  0  0
    4.9644   -5.2092    3.7386 C   0  0  2  0  0  0  0  0  0  0  0  0
    3.9670   -5.7810    2.7491 C   0  0  2  0  0  0  0  0  0  0  0  0
    2.5483   -5.7107    3.3758 C   0  0  2  0  0  0  0  0  0  0  0  0
    2.3585   -6.4874    4.5992 N   0  0  0  0  0  0  0  0  0  0  0  0
    1.1965   -7.2365    4.5526 C   0  0  0  0  0  0  0  0  0  0  0  0
    0.6381   -8.0161    5.5760 C   0  0  0  0  0  0  0  0  0  0  0  0
   -0.5537   -8.6969    5.2835 C   0  0  0  0  0  0  0  0  0  0  0  0
   -1.1633   -8.6095    4.0079 C   0  0  0  0  0  0  0  0  0  0  0  0
   -0.5920   -7.8179    2.9951 C   0  0  0  0  0  0  0  0  0  0  0  0
    0.5922   -7.1316    3.3061 C   0  0  0  0  0  0  0  0  0  0  0  0
    1.3910   -6.2303    2.4854 C   0  0  0  0  0  0  0  0  0  0  0  0
    1.1664   -5.8869    1.3237 O   0  0  0  0  0  0  0  0  0  0  0  0
    2.2647   -4.3633    3.5883 O   0  0  0  0  0  0  0  0  0  0  0  0
    3.1278   -3.5602    4.4189 C   0  0  2  0  0  0  0  0  0  0  0  0
    2.5683   -2.0849    4.3006 C   0  0  1  0  0  0  0  0  0  0  0  0
    3.3264   -1.1496    5.4220 C   0  0  1  0  0  0  0  0  0  0  0  0
    4.4649   -0.8914    4.5338 O   0  0  0  0  0  0  0  0  0  0  0  0
    4.2876   -1.3258    3.1408 C   0  0  1  0  0  0  0  0  0  0  0  0
    4.9813   -0.3235    2.2139 C   0  0  0  0  0  0  0  0  0  0  0  0
    5.0817   -2.6766    3.0711 C   0  0  0  0  0  0  0  0  0  0  0  0
    4.6716   -3.7281    4.1390 C   0  0  2  0  0  0  0  0  0  0  0  0
    5.5196   -3.5294    5.4395 C   0  0  0  0  0  0  0  0  0  0  0  0
    2.7235   -1.4409    2.8411 C   0  0  1  0  0  0  0  0  0  0  0  0
    2.4653   -2.3984    1.6387 C   0  0  0  0  0  0  0  0  0  0  0  0
    1.9133   -0.0030    2.4222 C   0  0  1  0  0  0  0  0  0  0  0  0
    0.5384    0.9237    2.2536 C   0  0  0  0  0  0  0  0  0  0  0  0
   -0.1644    1.7385    3.5422 C   0  0  0  0  0  0  0  0  0  0  0  0
    0.2419    1.2365    5.0830 C   0  0  1  0  0  0  0  0  0  0  0  0
   -1.0111    1.5148    5.9638 C   0  0  0  0  0  0  0  0  0  0  0  0
    0.5753   -0.1104    4.6981 C   0  0  1  0  0  0  0  0  0  0  0  0
    0.3504   -0.9787    6.0344 C   0  0  0  0  0  0  0  0  0  0  0  0
   -0.4574   -0.8076    4.0016 O   0  0  0  0  0  0  0  0  0  0  0  0
    1.9135    0.4972    3.7387 C   0  0  2  0  0  0  0  0  0  0  0  0
    2.5404    2.0091    3.8813 C   0  0  0  0  0  0  0  0  0  0  0  0
    2.0384    2.7794    5.0984 C   0  0  1  0  0  0  0  0  0  0  0  0
    2.0381    2.6706    6.5314 O   0  0  0  0  0  0  0  0  0  0  0  0
    1.6814    1.4965    5.8836 C   0  0  1  0  0  0  0  0  0  0  0  0
    2.8549    0.2786    6.2985 C   0  0  0  0  0  0  0  0  0  0  0  0
    2.6382   -0.1444    7.7921 C   0  0  0  0  0  0  0  0  0  0  0  0
    4.2277    1.0179    6.4575 C   0  0  0  0  0  0  0  0  0  0  0  0
    4.5861   -8.4174    0.4867 H   0  0  0  0  0  0  0  0  0  0  0  0
    3.7975   -6.8692    0.2184 H   0  0  0  0  0  0  0  0  0  0  0  0
    2.9920   -8.1321    1.1382 H   0  0  0  0  0  0  0  0  0  0  0  0
    5.0341   -7.9952    4.2430 H   0  0  0  0  0  0  0  0  0  0  0  0
    5.1429   -9.1315    2.9160 H   0  0  0  0  0  0  0  0  0  0  0  0
    3.5734   -8.6389    3.4961 H   0  0  0  0  0  0  0  0  0  0  0  0
    6.7527   -7.4779    2.0715 H   0  0  0  0  0  0  0  0  0  0  0  0
    7.1077   -5.7449    0.7094 H   0  0  0  0  0  0  0  0  0  0  0  0
    6.9637   -6.0427    3.9176 H   0  0  0  0  0  0  0  0  0  0  0  0
    6.8778   -4.7505    2.7317 H   0  0  0  0  0  0  0  0  0  0  0  0
    4.8778   -5.7909    4.6569 H   0  0  0  0  0  0  0  0  0  0  0  0
    3.9531   -5.1420    1.8685 H   0  0  0  0  0  0  0  0  0  0  0  0
    2.9617   -6.3883    5.4005 H   0  0  0  0  0  0  0  0  0  0  0  0
    1.1091   -8.1031    6.5447 H   0  0  0  0  0  0  0  0  0  0  0  0
   -0.9869   -9.3382    6.0341 H   0  0  0  0  0  0  0  0  0  0  0  0
   -2.0593   -9.1729    3.8010 H   0  0  0  0  0  0  0  0  0  0  0  0
   -1.0428   -7.7592    2.0145 H   0  0  0  0  0  0  0  0  0  0  0  0
    2.9334   -3.9087    5.4343 H   0  0  0  0  0  0  0  0  0  0  0  0
    1.5235   -2.3086    4.4127 H   0  0  0  0  0  0  0  0  0  0  0  0
    3.6715   -1.8165    6.2119 H   0  0  0  0  0  0  0  0  0  0  0  0
    4.9263   -0.6375    1.1731 H   0  0  0  0  0  0  0  0  0  0  0  0
    6.0334   -0.1958    2.4732 H   0  0  0  0  0  0  0  0  0  0  0  0
    4.4990    0.6421    2.2817 H   0  0  0  0  0  0  0  0  0  0  0  0
    5.0583   -3.0971    2.0691 H   0  0  0  0  0  0  0  0  0  0  0  0
    6.1343   -2.4456    3.2074 H   0  0  0  0  0  0  0  0  0  0  0  0
    5.6974   -2.4930    5.7193 H   0  0  0  0  0  0  0  0  0  0  0  0
    6.5169   -3.9572    5.3366 H   0  0  0  0  0  0  0  0  0  0  0  0
    5.0653   -4.0221    6.3001 H   0  0  0  0  0  0  0  0  0  0  0  0
    2.6162   -1.8903    0.6844 H   0  0  0  0  0  0  0  0  0  0  0  0
    1.4365   -2.7508    1.6744 H   0  0  0  0  0  0  0  0  0  0  0  0
    3.0685   -3.2886    1.5947 H   0  0  0  0  0  0  0  0  0  0  0  0
    1.1534   -0.7115    2.1384 H   0  0  0  0  0  0  0  0  0  0  0  0
    0.7992    1.7021    1.5338 H   0  0  0  0  0  0  0  0  0  0  0  0
   -0.2689    0.4261    1.7014 H   0  0  0  0  0  0  0  0  0  0  0  0
   -0.0277    2.8110    3.4159 H   0  0  0  0  0  0  0  0  0  0  0  0
   -1.2451    1.6333    3.4156 H   0  0  0  0  0  0  0  0  0  0  0  0
   -0.8597    1.3415    7.0284 H   0  0  0  0  0  0  0  0  0  0  0  0
   -1.8588    0.9096    5.6322 H   0  0  0  0  0  0  0  0  0  0  0  0
   -1.3162    2.5566    5.8590 H   0  0  0  0  0  0  0  0  0  0  0  0
    0.3494   -0.3978    6.9484 H   0  0  0  0  0  0  0  0  0  0  0  0
    0.9853   -1.8289    6.2401 H   0  0  0  0  0  0  0  0  0  0  0  0
   -0.6542   -1.4085    6.0995 H   0  0  0  0  0  0  0  0  0  0  0  0
   -0.5387   -0.3951    3.1527 H   0  0  0  0  0  0  0  0  0  0  0  0
    2.8951    0.4055    3.9879 H   0  0  0  0  0  0  0  0  0  0  0  0
    3.6311    2.0957    3.8280 H   0  0  0  0  0  0  0  0  0  0  0  0
    2.2767    2.6171    3.0133 H   0  0  0  0  0  0  0  0  0  0  0  0
    1.3325    3.5620    4.8438 H   0  0  0  0  0  0  0  0  0  0  0  0
    2.0620    0.6024    8.3427 H   0  0  0  0  0  0  0  0  0  0  0  0
    3.5701   -0.2816    8.3443 H   0  0  0  0  0  0  0  0  0  0  0  0
    2.1395   -1.1051    7.9133 H   0  0  0  0  0  0  0  0  0  0  0  0
    4.1913    1.8247    7.1921 H   0  0  0  0  0  0  0  0  0  0  0  0
    4.6058    1.4446    5.5352 H   0  0  0  0  0  0  0  0  0  0  0  0
    5.0102    0.3356    6.7956 H   0  0  0  0  0  0  0  0  0  0  0  0
  1  2  1  0
  1 47  1  0
  1 48  1  0
  1 49  1  0
  2  8  1  0
  2  3  1  0
  2  4  1  0
  3 50  1  0
  3 51  1  0
  3 52  1  0
  4  5  1  0
  4  6  1  0
  4 53  1  6
  5 54  1  0
  6  7  1  0
  6 55  1  0
  6 56  1  0
  7 27  1  0
  7  8  1  0
  7 57  1  1
  8  9  1  0
  8 58  1  6
  9 17  1  0
  9 10  1  0
  9 19  1  1
 10 11  1  0
 10 59  1  0
 11 16  2  0
 11 12  1  0
 12 13  2  0
 12 60  1  0
 13 14  1  0
 13 61  1  0
 14 15  2  0
 14 62  1  0
 15 16  1  0
 15 63  1  0
 16 17  1  0
 17 18  2  0
 19 20  1  0
 20 27  1  0
 20 21  1  0
 20 64  1  1
 21 29  1  0
 21 22  1  0
 21 65  1  1
 22 44  1  0
 22 23  1  0
 22 66  1  1
 23 24  1  0
 24 25  1  6
 24 26  1  0
 24 29  1  0
 25 67  1  0
 25 68  1  0
 25 69  1  0
 26 27  1  0
 26 70  1  0
 26 71  1  0
 27 28  1  1
 28 72  1  0
 28 73  1  0
 28 74  1  0
 29 30  1  6
 29 31  1  0
 30 75  1  0
 30 76  1  0
 30 77  1  0
 31 39  1  0
 31 32  1  0
 31 78  1  6
 32 33  1  0
 32 79  1  0
 32 80  1  0
 33 34  1  0
 33 81  1  0
 33 82  1  0
 34 43  1  0
 34 35  1  1
 34 36  1  0
 35 83  1  0
 35 84  1  0
 35 85  1  0
 36 37  1  0
 36 38  1  6
 36 39  1  0
 37 86  1  0
 37 87  1  0
 37 88  1  0
 38 89  1  0
 39 40  1  0
 39 90  1  1
 40 41  1  0
 40 91  1  0
 40 92  1  0
 41 43  1  0
 41 42  1  0
 41 93  1  1
 43 42  1  1
 43 44  1  0
 44 45  1  0
 44 46  1  0
 45 94  1  0
 45 95  1  0
 45 96  1  0
 46 97  1  0
 46 98  1  0
 46 99  1  0
M  END
>  <i_m_ct_stereo_status>  (343) 
1

>  <s_m_source_file>  (343) 
/var/tmp/pbs.5076255.sched01/tmp7b2cfgi2/13234zcpj2x.sdf

>  <i_m_source_file_index>  (343) 
14

>  <i_lp_mmshare_version>  (343) 
48012

>  <i_f3d_flags>  (343) 
0

>  <s_epik_input>  (343) 
W2NIXTFbY0hdW2NIXVtjSF1jKEMyPU8pYzFbTkhdW0NAQF0yM1tDQEhdNFtDQEBIXShbQ0gyXVtDQEhdKFtPSF0pQzQoW0NIM10pW0NIM10pW0NAXTUoW0NIM10pW0NASF0oTzMpW0NASF02W0NASF03T1tDQEBdKFtDSDNdKShbQ0gyXTUpW0NAXTYoW0NIM10pW0NASF04W0NAQEhdOVtDQF0oW0NIM10pKFtPSF0pW0NAXShbQ0gzXSkoW0NIMl1bQ0gyXTgpQzEoW0NAQEhdKE8xKVtDSDJdOSlDNyhbQ0gzXSlbQ0gzXQ==

>  <s_epik_cmdline>  (343) 
J2VwaWtfcHl0aG9uJywgJy1waHQnLCAnMi4wJywgJy1waCcsICc3LjAnLCAnLXRuJywgJzgnLCAnLW1hJywgJzIwMCcsICctaW1hZScsICc8aW5maWxlLm1hZT4nLCAnLW9tYWUnLCAnPG91dGZpbGUubWFlPic=

>  <r_lp_tautomer_probability>  (343) 
1

>  <r_epik_Ionization_Penalty>  (343) 
2.39632e-06

>  <r_epik_Ionization_Penalty_Charging>  (343) 
0

>  <r_epik_Ionization_Penalty_Neutral>  (343) 
2.39632e-06

>  <r_epik_State_Penalty>  (343) 
-0

>  <r_epik_Charging_Adjusted_Penalty>  (343) 
0

>  <i_epik_Tot_Q>  (343) 
0

>  <i_epik_Tot_abs_Q>  (343) 
0

>  <s_lp_Force_Field>  (343) 
OPLS3e

>  <r_lp_Energy>  (343) 
522.85

>  <b_lp_Chiralities_Consistent>  (343) 
1

>  <s_lp_Variant>  (343) 
95:0-2

>  <s_i_glide_gridfile>  (343) 
pfpi4k_grid

>  <i_i_glide_lignum>  (343) 
14

>  <i_i_glide_rotatable_bonds>  (343) 
2

>  <r_i_docking_score>  (343) 
-2.61488

>  <r_i_glide_ligand_efficiency>  (343) 
-0.0568452

>  <r_i_glide_ligand_efficiency_sa>  (343) 
-0.203679

>  <r_i_glide_ligand_efficiency_ln>  (343) 
-0.541535

>  <r_i_glide_gscore>  (343) 
-2.61488

>  <r_i_glide_lipo>  (343) 
-0.371529

>  <r_i_glide_hbond>  (343) 
-0.152998

>  <r_i_glide_metal>  (343) 
-0

>  <r_i_glide_rewards>  (343) 
0

>  <r_i_glide_evdw>  (343) 
-31.0853

>  <r_i_glide_ecoul>  (343) 
-3.32373

>  <r_i_glide_erotb>  (343) 
0

>  <r_i_glide_esite>  (343) 
-0.0375296

>  <r_i_glide_emodel>  (343) 
-40.0662

>  <r_i_glide_energy>  (343) 
-34.409

>  <r_i_glide_einternal>  (343) 
0.384628

>  <r_i_glide_intrahb_reward>  (343) 
-0

>  <i_i_glide_confnum>  (343) 
1

>  <i_i_glide_posenum>  (343) 
1

>  <r_i_glide_eff_state_penalty>  (343) 
0

>  <ligand_id>  (343) 
95

>  <original_smiles>  (343) 
CC1(C)C(O)CC2C1C1(Nc3ccccc3C1=O)OC1C3C4OC(C)(CC21C)C3(C)C1CCC2(C)C(C)(O)C1CC1OC12C4(C)C

>  <smiles>  (343) 
[H]OC1([H])C([H])([H])C2([H])C([H])(C3(OC4([H])C5([H])C6([H])OC(C([H])([H])[H])(C([H])([H])C42C([H])([H])[H])C5(C([H])([H])[H])C2([H])C([H])([H])C([H])([H])C4(C([H])([H])[H])C(O[H])(C([H])([H])[H])C2([H])C([H])([H])C2([H])OC24C6(C([H])([H])[H])C([H])([H])[H])C(=O)c2c([H])c([H])c([H])c([H])c2N3[H])C1(C([H])([H])[H])C([H])([H])[H]

$$$$
95:1:2
     RDKit          3D

 99108  0  0  1  0  0  0  0  0999 V2000
    4.6521   -7.3236    2.0253 C   0  0  0  0  0  0  0  0  0  0  0  0
    4.6661   -6.8856    3.5119 C   0  0  0  0  0  0  0  0  0  0  0  0
    4.1466   -8.0626    4.3643 C   0  0  0  0  0  0  0  0  0  0  0  0
    6.1046   -6.5238    3.9922 C   0  0  1  0  0  0  0  0  0  0  0  0
    6.8546   -5.8659    2.9839 O   0  0  0  0  0  0  0  0  0  0  0  0
    5.9526   -5.5416    5.1825 C   0  0  0  0  0  0  0  0  0  0  0  0
    4.4829   -5.0588    5.1453 C   0  0  2  0  0  0  0  0  0  0  0  0
    3.9974   -5.5069    3.7833 C   0  0  2  0  0  0  0  0  0  0  0  0
    2.4396   -5.3429    3.7194 C   0  0  2  0  0  0  0  0  0  0  0  0
    1.6875   -6.1443    4.6873 N   0  0  0  0  0  0  0  0  0  0  0  0
    0.6161   -6.8022    4.0918 C   0  0  0  0  0  0  0  0  0  0  0  0
   -0.3869   -7.5719    4.7137 C   0  0  0  0  0  0  0  0  0  0  0  0
   -1.3700   -8.1500    3.8866 C   0  0  0  0  0  0  0  0  0  0  0  0
   -1.3489   -7.9694    2.4771 C   0  0  0  0  0  0  0  0  0  0  0  0
   -0.3293   -7.1797    1.8685 C   0  0  0  0  0  0  0  0  0  0  0  0
    0.6364   -6.6018    2.7135 C   0  0  0  0  0  0  0  0  0  0  0  0
    1.7818   -5.7376    2.4068 C   0  0  0  0  0  0  0  0  0  0  0  0
    2.1070   -5.3601    1.2736 O   0  0  0  0  0  0  0  0  0  0  0  0
    2.1875   -3.9854    3.8881 O   0  0  0  0  0  0  0  0  0  0  0  0
    2.6420   -3.2813    5.0605 C   0  0  2  0  0  0  0  0  0  0  0  0
    2.2840   -1.7615    4.8116 C   0  0  1  0  0  0  0  0  0  0  0  0
    2.5212   -0.9358    6.2066 C   0  0  1  0  0  0  0  0  0  0  0  0
    3.9484   -0.7424    5.9328 O   0  0  0  0  0  0  0  0  0  0  0  0
    4.3796   -1.1045    4.5826 C   0  0  1  0  0  0  0  0  0  0  0  0
    5.4692   -0.1173    4.1212 C   0  0  0  0  0  0  0  0  0  0  0  0
    5.0296   -2.5234    4.7682 C   0  0  0  0  0  0  0  0  0  0  0  0
    4.1315   -3.5671    5.4760 C   0  0  2  0  0  0  0  0  0  0  0  0
    4.3405   -3.4949    7.0266 C   0  0  0  0  0  0  0  0  0  0  0  0
    3.1043   -1.0862    3.6086 C   0  0  1  0  0  0  0  0  0  0  0  0
    3.3383   -1.9783    2.3450 C   0  0  0  0  0  0  0  0  0  0  0  0
    2.6560    0.4308    2.9779 C   0  0  1  0  0  0  0  0  0  0  0  0
    1.5641    1.4786    2.2941 C   0  0  0  0  0  0  0  0  0  0  0  0
    0.4105    2.2881    3.2015 C   0  0  0  0  0  0  0  0  0  0  0  0
    0.0665    1.7061    4.7217 C   0  0  1  0  0  0  0  0  0  0  0  0
   -1.4349    2.0676    4.9818 C   0  0  0  0  0  0  0  0  0  0  0  0
    0.4547    0.3576    4.4165 C   0  0  1  0  0  0  0  0  0  0  0  0
   -0.3960   -0.5286    5.4633 C   0  0  0  0  0  0  0  0  0  0  0  0
   -0.1763   -0.2330    3.2880 O   0  0  0  0  0  0  0  0  0  0  0  0
    2.0985    0.8862    4.2045 C   0  0  2  0  0  0  0  0  0  0  0  0
    2.6899    2.3364    4.6961 C   0  0  0  0  0  0  0  0  0  0  0  0
    1.7662    3.0873    5.6206 C   0  0  1  0  0  0  0  0  0  0  0  0
    1.1184    2.9456    6.9186 O   0  0  0  0  0  0  0  0  0  0  0  0
    1.0103    1.8100    6.0680 C   0  0  1  0  0  0  0  0  0  0  0  0
    1.7986    0.5016    6.8936 C   0  0  0  0  0  0  0  0  0  0  0  0
    0.9225    0.0449    8.1043 C   0  0  0  0  0  0  0  0  0  0  0  0
    3.0025    1.1079    7.6846 C   0  0  0  0  0  0  0  0  0  0  0  0
    5.3797   -8.1094    1.8376 H   0  0  0  0  0  0  0  0  0  0  0  0
    4.8781   -6.4967    1.3504 H   0  0  0  0  0  0  0  0  0  0  0  0
    3.6846   -7.7190    1.7429 H   0  0  0  0  0  0  0  0  0  0  0  0
    4.1488   -7.8564    5.4339 H   0  0  0  0  0  0  0  0  0  0  0  0
    4.7670   -8.9548    4.2177 H   0  0  0  0  0  0  0  0  0  0  0  0
    3.1352   -8.3487    4.0809 H   0  0  0  0  0  0  0  0  0  0  0  0
    6.6773   -7.4159    4.2794 H   0  0  0  0  0  0  0  0  0  0  0  0
    7.7321   -5.7433    3.2866 H   0  0  0  0  0  0  0  0  0  0  0  0
    6.1409   -6.0703    6.1228 H   0  0  0  0  0  0  0  0  0  0  0  0
    6.6742   -4.7251    5.1381 H   0  0  0  0  0  0  0  0  0  0  0  0
    3.9705   -5.6635    5.8883 H   0  0  0  0  0  0  0  0  0  0  0  0
    4.4097   -4.8459    3.0319 H   0  0  0  0  0  0  0  0  0  0  0  0
    1.8739   -6.1253    5.6791 H   0  0  0  0  0  0  0  0  0  0  0  0
   -0.3893   -7.7164    5.7743 H   0  0  0  0  0  0  0  0  0  0  0  0
   -2.1398   -8.7642    4.3194 H   0  0  0  0  0  0  0  0  0  0  0  0
   -2.0850   -8.4423    1.8648 H   0  0  0  0  0  0  0  0  0  0  0  0
   -0.2931   -7.0473    0.8059 H   0  0  0  0  0  0  0  0  0  0  0  0
    1.9967   -3.6491    5.8668 H   0  0  0  0  0  0  0  0  0  0  0  0
    1.2850   -1.9052    4.4374 H   0  0  0  0  0  0  0  0  0  0  0  0
    2.4421   -1.6546    7.0251 H   0  0  0  0  0  0  0  0  0  0  0  0
    5.8651   -0.4009    3.1462 H   0  0  0  0  0  0  0  0  0  0  0  0
    6.3078   -0.1055    4.8215 H   0  0  0  0  0  0  0  0  0  0  0  0
    5.1080    0.9029    4.0433 H   0  0  0  0  0  0  0  0  0  0  0  0
    5.4381   -2.9055    3.8483 H   0  0  0  0  0  0  0  0  0  0  0  0
    5.9243   -2.3950    5.3937 H   0  0  0  0  0  0  0  0  0  0  0  0
    4.4345   -2.4849    7.4272 H   0  0  0  0  0  0  0  0  0  0  0  0
    5.2576   -3.9968    7.3395 H   0  0  0  0  0  0  0  0  0  0  0  0
    3.5254   -3.9765    7.5647 H   0  0  0  0  0  0  0  0  0  0  0  0
    3.9378   -1.4559    1.6025 H   0  0  0  0  0  0  0  0  0  0  0  0
    2.3958   -2.2588    1.8707 H   0  0  0  0  0  0  0  0  0  0  0  0
    3.8517   -2.9140    2.5186 H   0  0  0  0  0  0  0  0  0  0  0  0
    2.0619   -0.2024    2.3442 H   0  0  0  0  0  0  0  0  0  0  0  0
    2.1543    2.2573    1.8165 H   0  0  0  0  0  0  0  0  0  0  0  0
    1.0452    1.0646    1.4137 H   0  0  0  0  0  0  0  0  0  0  0  0
    0.6477    3.3646    3.2164 H   0  0  0  0  0  0  0  0  0  0  0  0
   -0.5065    2.2987    2.6032 H   0  0  0  0  0  0  0  0  0  0  0  0
   -1.7816    1.8449    5.9860 H   0  0  0  0  0  0  0  0  0  0  0  0
   -2.0808    1.5492    4.2698 H   0  0  0  0  0  0  0  0  0  0  0  0
   -1.5958    3.1322    4.8231 H   0  0  0  0  0  0  0  0  0  0  0  0
   -0.7649    0.0156    6.3207 H   0  0  0  0  0  0  0  0  0  0  0  0
    0.0210   -1.4418    5.8664 H   0  0  0  0  0  0  0  0  0  0  0  0
   -1.3523   -0.8653    5.0416 H   0  0  0  0  0  0  0  0  0  0  0  0
    0.0403    0.2888    2.5393 H   0  0  0  0  0  0  0  0  0  0  0  0
    2.8735    0.6984    4.8423 H   0  0  0  0  0  0  0  0  0  0  0  0
    3.6998    2.3262    5.1411 H   0  0  0  0  0  0  0  0  0  0  0  0
    2.8833    2.9854    3.8514 H   0  0  0  0  0  0  0  0  0  0  0  0
    1.2820    3.9447    5.1449 H   0  0  0  0  0  0  0  0  0  0  0  0
    0.2085    0.8185    8.3979 H   0  0  0  0  0  0  0  0  0  0  0  0
    1.5021   -0.1914    8.9981 H   0  0  0  0  0  0  0  0  0  0  0  0
    0.3629   -0.8764    7.9270 H   0  0  0  0  0  0  0  0  0  0  0  0
    2.7001    1.8904    8.3834 H   0  0  0  0  0  0  0  0  0  0  0  0
    3.7759    1.5337    7.0527 H   0  0  0  0  0  0  0  0  0  0  0  0
    3.5140    0.3507    8.2827 H   0  0  0  0  0  0  0  0  0  0  0  0
  1  2  1  0
  1 47  1  0
  1 48  1  0
  1 49  1  0
  2  8  1  0
  2  3  1  0
  2  4  1  0
  3 50  1  0
  3 51  1  0
  3 52  1  0
  4  5  1  0
  4  6  1  0
  4 53  1  1
  5 54  1  0
  6  7  1  0
  6 55  1  0
  6 56  1  0
  7 27  1  0
  7  8  1  0
  7 57  1  1
  8  9  1  0
  8 58  1  6
  9 17  1  0
  9 10  1  0
  9 19  1  1
 10 11  1  0
 10 59  1  0
 11 16  2  0
 11 12  1  0
 12 13  2  0
 12 60  1  0
 13 14  1  0
 13 61  1  0
 14 15  2  0
 14 62  1  0
 15 16  1  0
 15 63  1  0
 16 17  1  0
 17 18  2  0
 19 20  1  0
 20 27  1  0
 20 21  1  0
 20 64  1  1
 21 29  1  0
 21 22  1  0
 21 65  1  6
 22 44  1  0
 22 23  1  0
 22 66  1  1
 23 24  1  0
 24 25  1  6
 24 26  1  0
 24 29  1  0
 25 67  1  0
 25 68  1  0
 25 69  1  0
 26 27  1  0
 26 70  1  0
 26 71  1  0
 27 28  1  1
 28 72  1  0
 28 73  1  0
 28 74  1  0
 29 30  1  6
 29 31  1  0
 30 75  1  0
 30 76  1  0
 30 77  1  0
 31 39  1  0
 31 32  1  0
 31 78  1  1
 32 33  1  0
 32 79  1  0
 32 80  1  0
 33 34  1  0
 33 81  1  0
 33 82  1  0
 34 43  1  0
 34 35  1  1
 34 36  1  0
 35 83  1  0
 35 84  1  0
 35 85  1  0
 36 37  1  0
 36 38  1  6
 36 39  1  0
 37 86  1  0
 37 87  1  0
 37 88  1  0
 38 89  1  0
 39 40  1  0
 39 90  1  1
 40 41  1  0
 40 91  1  0
 40 92  1  0
 41 43  1  0
 41 42  1  0
 41 93  1  6
 43 42  1  1
 43 44  1  0
 44 45  1  0
 44 46  1  0
 45 94  1  0
 45 95  1  0
 45 96  1  0
 46 97  1  0
 46 98  1  0
 46 99  1  0
M  END
>  <i_m_ct_stereo_status>  (344) 
1

>  <s_m_source_file>  (344) 
/var/tmp/pbs.5076255.sched01/tmp7b2cfgi2/13234zcpj2x.sdf

>  <i_m_source_file_index>  (344) 
14

>  <i_lp_mmshare_version>  (344) 
48012

>  <i_f3d_flags>  (344) 
0

>  <s_epik_input>  (344) 
W2NIXTFbY0hdW2NIXVtjSF1jKEMyPU8pYzFbTkhdW0NAQF0yM1tDQEhdNFtDQEBIXShbQ0gyXVtDQEhdKFtPSF0pQzQoW0NIM10pW0NIM10pW0NAXTUoW0NIM10pW0NASF0oTzMpW0NASF02W0NASF03T1tDQEBdKFtDSDNdKShbQ0gyXTUpW0NAXTYoW0NIM10pW0NASF04W0NAQEhdOVtDQF0oW0NIM10pKFtPSF0pW0NAXShbQ0gzXSkoW0NIMl1bQ0gyXTgpQzEoW0NAQEhdKE8xKVtDSDJdOSlDNyhbQ0gzXSlbQ0gzXQ==

>  <s_epik_cmdline>  (344) 
J2VwaWtfcHl0aG9uJywgJy1waHQnLCAnMi4wJywgJy1waCcsICc3LjAnLCAnLXRuJywgJzgnLCAnLW1hJywgJzIwMCcsICctaW1hZScsICc8aW5maWxlLm1hZT4nLCAnLW9tYWUnLCAnPG91dGZpbGUubWFlPic=

>  <r_lp_tautomer_probability>  (344) 
1

>  <r_epik_Ionization_Penalty>  (344) 
2.39632e-06

>  <r_epik_Ionization_Penalty_Charging>  (344) 
0

>  <r_epik_Ionization_Penalty_Neutral>  (344) 
2.39632e-06

>  <r_epik_State_Penalty>  (344) 
-0

>  <r_epik_Charging_Adjusted_Penalty>  (344) 
0

>  <i_epik_Tot_Q>  (344) 
0

>  <i_epik_Tot_abs_Q>  (344) 
0

>  <s_lp_Force_Field>  (344) 
OPLS3e

>  <r_lp_Energy>  (344) 
522.85

>  <b_lp_Chiralities_Consistent>  (344) 
1

>  <s_lp_Variant>  (344) 
95:0-2

>  <s_i_glide_gridfile>  (344) 
pfpi4k_grid

>  <i_i_glide_lignum>  (344) 
14

>  <i_i_glide_rotatable_bonds>  (344) 
2

>  <r_i_docking_score>  (344) 
-1.8623

>  <r_i_glide_ligand_efficiency>  (344) 
-0.0404847

>  <r_i_glide_ligand_efficiency_sa>  (344) 
-0.145059

>  <r_i_glide_ligand_efficiency_ln>  (344) 
-0.385677

>  <r_i_glide_gscore>  (344) 
-1.8623

>  <r_i_glide_lipo>  (344) 
-0.170508

>  <r_i_glide_hbond>  (344) 
-0.018243

>  <r_i_glide_metal>  (344) 
-0

>  <r_i_glide_rewards>  (344) 
0

>  <r_i_glide_evdw>  (344) 
-34.9428

>  <r_i_glide_ecoul>  (344) 
0.697261

>  <r_i_glide_erotb>  (344) 
0

>  <r_i_glide_esite>  (344) 
-0.0309946

>  <r_i_glide_emodel>  (344) 
-38.0919

>  <r_i_glide_energy>  (344) 
-34.2455

>  <r_i_glide_einternal>  (344) 
0.365152

>  <r_i_glide_intrahb_reward>  (344) 
-0

>  <i_i_glide_confnum>  (344) 
2

>  <i_i_glide_posenum>  (344) 
21

>  <r_i_glide_eff_state_penalty>  (344) 
0

>  <ligand_id>  (344) 
95

>  <original_smiles>  (344) 
CC1(C)C(O)CC2C1C1(Nc3ccccc3C1=O)OC1C3C4OC(C)(CC21C)C3(C)C1CCC2(C)C(C)(O)C1CC1OC12C4(C)C

>  <smiles>  (344) 
[H]OC1([H])C([H])([H])C2([H])C([H])(C3(OC4([H])C5([H])C6([H])OC(C([H])([H])[H])(C([H])([H])C42C([H])([H])[H])C5(C([H])([H])[H])C2([H])C([H])([H])C([H])([H])C4(C([H])([H])[H])C(O[H])(C([H])([H])[H])C2([H])C([H])([H])C2([H])OC24C6(C([H])([H])[H])C([H])([H])[H])C(=O)c2c([H])c([H])c([H])c([H])c2N3[H])C1(C([H])([H])[H])C([H])([H])[H]

$$$$
96:0:0
     RDKit          3D

 76 81  0  0  1  0  0  0  0  0999 V2000
    3.8285   -1.0811   -2.0327 C   0  0  0  0  0  0  0  0  0  0  0  0
    4.6564   -2.2845   -1.5608 C   0  0  1  0  0  0  0  0  0  0  0  0
    4.6135   -3.2709   -2.5716 O   0  0  0  0  0  0  0  0  0  0  0  0
    6.1228   -1.9164   -1.3764 C   0  0  0  0  0  0  0  0  0  0  0  0
    6.6864   -2.9683   -0.4442 C   0  0  0  0  0  0  0  0  0  0  0  0
    5.5504   -3.1986    0.5572 C   0  0  2  0  0  0  0  0  0  0  0  0
    5.5475   -4.5918    1.2160 C   0  0  0  0  0  0  0  0  0  0  0  0
    4.2827   -4.8448    2.0915 C   0  0  1  0  0  0  0  0  0  0  0  0
    4.1936   -3.6661    3.1064 C   0  0  0  0  0  0  0  0  0  0  0  0
    2.9741   -4.7180    1.2033 C   0  0  2  0  0  0  0  0  0  0  0  0
    2.1673   -6.0287    1.0255 C   0  0  0  0  0  0  0  0  0  0  0  0
    1.2125   -6.0841    0.2603 O   0  0  0  0  0  0  0  0  0  0  0  0
    2.4440   -7.2195    1.9440 C   0  0  0  0  0  0  0  0  0  0  0  0
    3.9424   -7.4847    2.1738 C   0  0  2  0  0  0  0  0  0  0  0  0
    4.6263   -7.7730    0.8101 C   0  0  0  0  0  0  0  0  0  0  0  0
    4.1122   -8.7890    3.0372 C   0  0  1  0  0  0  0  0  0  0  0  0
    5.5466   -9.3765    3.1278 C   0  0  0  0  0  0  0  0  0  0  0  0
    5.5464  -10.7504    3.8166 C   0  0  0  0  0  0  0  0  0  0  0  0
    4.9159  -10.7703    5.2371 C   0  0  2  0  0  0  0  0  0  0  0  0
    5.9453  -10.2833    6.2811 C   0  0  0  0  0  0  0  0  0  0  0  0
    4.4507  -12.2080    5.5507 C   0  0  1  0  0  0  0  0  0  0  0  0
    4.2195  -12.4100    6.9264 O   0  0  0  0  0  0  0  0  0  0  0  0
    3.1442  -12.3196    4.7710 C   0  0  0  0  0  0  0  0  0  0  0  0
    2.4848  -10.9547    4.8170 C   0  0  0  0  0  0  0  0  0  0  0  0
    3.5811   -9.9738    5.2648 C   0  0  2  0  0  0  0  0  0  0  0  0
    3.5396   -8.6487    4.4645 C   0  0  1  0  0  0  0  0  0  0  0  0
    4.2134   -7.4706    5.1764 C   0  0  0  0  0  0  0  0  0  0  0  0
    4.0329   -6.1708    4.3847 C   0  0  0  0  0  0  0  0  0  0  0  0
    4.5069   -6.2149    2.8908 C   0  0  2  0  0  0  0  0  0  0  0  0
    3.2194   -4.0081   -0.1810 C   0  0  1  0  0  0  0  0  0  0  0  0
    2.0284   -3.4861   -0.7487 O   0  0  0  0  0  0  0  0  0  0  0  0
    4.2354   -2.8458   -0.1693 C   0  0  2  0  0  0  0  0  0  0  0  0
    3.8752   -0.2835   -1.2951 H   0  0  0  0  0  0  0  0  0  0  0  0
    2.7769   -1.3270   -2.1867 H   0  0  0  0  0  0  0  0  0  0  0  0
    4.2033   -0.6688   -2.9690 H   0  0  0  0  0  0  0  0  0  0  0  0
    3.7360   -3.6339   -2.5971 H   0  0  0  0  0  0  0  0  0  0  0  0
    6.6759   -1.8890   -2.3215 H   0  0  0  0  0  0  0  0  0  0  0  0
    6.1905   -0.9472   -0.8910 H   0  0  0  0  0  0  0  0  0  0  0  0
    6.9075   -3.8662   -1.0187 H   0  0  0  0  0  0  0  0  0  0  0  0
    7.6077   -2.6433    0.0467 H   0  0  0  0  0  0  0  0  0  0  0  0
    5.7182   -2.4431    1.3275 H   0  0  0  0  0  0  0  0  0  0  0  0
    5.6217   -5.3296    0.4198 H   0  0  0  0  0  0  0  0  0  0  0  0
    6.4582   -4.7057    1.8073 H   0  0  0  0  0  0  0  0  0  0  0  0
    3.3596   -3.7784    3.8025 H   0  0  0  0  0  0  0  0  0  0  0  0
    3.9914   -2.7117    2.6206 H   0  0  0  0  0  0  0  0  0  0  0  0
    5.1161   -3.5513    3.6830 H   0  0  0  0  0  0  0  0  0  0  0  0
    2.2809   -4.0813    1.7489 H   0  0  0  0  0  0  0  0  0  0  0  0
    1.9458   -6.9953    2.8859 H   0  0  0  0  0  0  0  0  0  0  0  0
    1.9548   -8.1106    1.5475 H   0  0  0  0  0  0  0  0  0  0  0  0
    5.7112   -7.7284    0.8923 H   0  0  0  0  0  0  0  0  0  0  0  0
    4.3512   -7.0828    0.0159 H   0  0  0  0  0  0  0  0  0  0  0  0
    4.3585   -8.7681    0.4463 H   0  0  0  0  0  0  0  0  0  0  0  0
    3.5273   -9.5574    2.5309 H   0  0  0  0  0  0  0  0  0  0  0  0
    5.9802   -9.5303    2.1412 H   0  0  0  0  0  0  0  0  0  0  0  0
    6.2259   -8.7049    3.6503 H   0  0  0  0  0  0  0  0  0  0  0  0
    5.0341  -11.4396    3.1461 H   0  0  0  0  0  0  0  0  0  0  0  0
    6.5699  -11.1190    3.8736 H   0  0  0  0  0  0  0  0  0  0  0  0
    5.4724  -10.0857    7.2421 H   0  0  0  0  0  0  0  0  0  0  0  0
    6.4543   -9.3744    5.9709 H   0  0  0  0  0  0  0  0  0  0  0  0
    6.7101  -11.0382    6.4531 H   0  0  0  0  0  0  0  0  0  0  0  0
    5.1710  -12.9599    5.2364 H   0  0  0  0  0  0  0  0  0  0  0  0
    3.3378  -12.7710    7.0350 H   0  0  0  0  0  0  0  0  0  0  0  0
    3.3545  -12.5883    3.7339 H   0  0  0  0  0  0  0  0  0  0  0  0
    2.4592  -13.0669    5.1487 H   0  0  0  0  0  0  0  0  0  0  0  0
    2.0614  -10.7293    3.8390 H   0  0  0  0  0  0  0  0  0  0  0  0
    1.6678  -10.9515    5.5348 H   0  0  0  0  0  0  0  0  0  0  0  0
    3.3633   -9.7481    6.3127 H   0  0  0  0  0  0  0  0  0  0  0  0
    2.4819   -8.3994    4.3992 H   0  0  0  0  0  0  0  0  0  0  0  0
    3.7901   -7.3495    6.1737 H   0  0  0  0  0  0  0  0  0  0  0  0
    5.2748   -7.6448    5.3222 H   0  0  0  0  0  0  0  0  0  0  0  0
    2.9881   -5.8718    4.4542 H   0  0  0  0  0  0  0  0  0  0  0  0
    4.6173   -5.4283    4.9261 H   0  0  0  0  0  0  0  0  0  0  0  0
    5.5853   -6.3690    2.9729 H   0  0  0  0  0  0  0  0  0  0  0  0
    3.6039   -4.7729   -0.8461 H   0  0  0  0  0  0  0  0  0  0  0  0
    1.9873   -2.5321   -0.6812 H   0  0  0  0  0  0  0  0  0  0  0  0
    3.7855   -2.0268    0.3944 H   0  0  0  0  0  0  0  0  0  0  0  0
  1  2  1  0
  1 33  1  0
  1 34  1  0
  1 35  1  0
  2 32  1  0
  2  3  1  6
  2  4  1  0
  3 36  1  0
  4  5  1  0
  4 37  1  0
  4 38  1  0
  5  6  1  0
  5 39  1  0
  5 40  1  0
  6 32  1  0
  6  7  1  0
  6 41  1  1
  7  8  1  0
  7 42  1  0
  7 43  1  0
  8 29  1  0
  8  9  1  1
  8 10  1  0
  9 44  1  0
  9 45  1  0
  9 46  1  0
 10 11  1  0
 10 30  1  0
 10 47  1  1
 11 12  2  0
 11 13  1  0
 13 14  1  0
 13 48  1  0
 13 49  1  0
 14 29  1  0
 14 15  1  6
 14 16  1  0
 15 50  1  0
 15 51  1  0
 15 52  1  0
 16 26  1  0
 16 17  1  0
 16 53  1  6
 17 18  1  0
 17 54  1  0
 17 55  1  0
 18 19  1  0
 18 56  1  0
 18 57  1  0
 19 25  1  0
 19 20  1  1
 19 21  1  0
 20 58  1  0
 20 59  1  0
 20 60  1  0
 21 22  1  0
 21 23  1  0
 21 61  1  6
 22 62  1  0
 23 24  1  0
 23 63  1  0
 23 64  1  0
 24 25  1  0
 24 65  1  0
 24 66  1  0
 25 26  1  0
 25 67  1  1
 26 27  1  0
 26 68  1  6
 27 28  1  0
 27 69  1  0
 27 70  1  0
 28 29  1  0
 28 71  1  0
 28 72  1  0
 29 73  1  1
 30 31  1  0
 30 32  1  0
 30 74  1  6
 31 75  1  0
 32 76  1  1
M  END
>  <i_m_ct_stereo_status>  (345) 
1

>  <s_m_source_file>  (345) 
/var/tmp/pbs.5076255.sched01/tmp7b2cfgi2/13234zcpj2x.sdf

>  <i_m_source_file_index>  (345) 
15

>  <i_lp_mmshare_version>  (345) 
48012

>  <i_f3d_flags>  (345) 
0

>  <s_epik_input>  (345) 
W0NIM11bQ0BAXTEoW09IXSlbQ0gyXVtDSDJdW0NASF0oW0NIMl0yKVtDQEBIXTFbQ0BIXShbT0hdKVtDQEhdKFtDQF0yM1tDSDNdKUMoPU8pW0NIMl1bQ0BdNChbQ0gzXSlbQ0BASF01W0NASF0oW0NIMl1bQ0gyXVtDQEhdMzQpW0NAQEhdNltDQF0oW0NIM10pKFtDSDJdW0NIMl01KVtDQEBIXShbT0hdKVtDSDJdW0NIMl02

>  <s_epik_cmdline>  (345) 
J2VwaWtfcHl0aG9uJywgJy1waHQnLCAnMi4wJywgJy1waCcsICc3LjAnLCAnLXRuJywgJzgnLCAnLW1hJywgJzIwMCcsICctaW1hZScsICc8aW5maWxlLm1hZT4nLCAnLW9tYWUnLCAnPG91dGZpbGUubWFlPic=

>  <r_lp_tautomer_probability>  (345) 
1

>  <r_epik_Ionization_Penalty>  (345) 
5.41721e-06

>  <r_epik_Ionization_Penalty_Charging>  (345) 
0

>  <r_epik_Ionization_Penalty_Neutral>  (345) 
5.41721e-06

>  <r_epik_State_Penalty>  (345) 
-0

>  <r_epik_Charging_Adjusted_Penalty>  (345) 
0

>  <i_epik_Tot_Q>  (345) 
0

>  <i_epik_Tot_abs_Q>  (345) 
0

>  <s_lp_Force_Field>  (345) 
OPLS3e

>  <r_lp_Energy>  (345) 
69.0236

>  <b_lp_Chiralities_Consistent>  (345) 
1

>  <s_lp_Variant>  (345) 
96:0-1

>  <s_i_glide_gridfile>  (345) 
pfpi4k_grid

>  <i_i_glide_lignum>  (345) 
15

>  <i_i_glide_rotatable_bonds>  (345) 
3

>  <r_i_docking_score>  (345) 
-3.87153

>  <r_i_glide_ligand_efficiency>  (345) 
-0.120985

>  <r_i_glide_ligand_efficiency_sa>  (345) 
-0.384104

>  <r_i_glide_ligand_efficiency_ln>  (345) 
-0.866941

>  <r_i_glide_gscore>  (345) 
-3.87153

>  <r_i_glide_lipo>  (345) 
-0.226636

>  <r_i_glide_hbond>  (345) 
-0.47553

>  <r_i_glide_metal>  (345) 
-0

>  <r_i_glide_rewards>  (345) 
-0.37741

>  <r_i_glide_evdw>  (345) 
-26.9384

>  <r_i_glide_ecoul>  (345) 
-9.41456

>  <r_i_glide_erotb>  (345) 
0

>  <r_i_glide_esite>  (345) 
-0.0328486

>  <r_i_glide_emodel>  (345) 
-43.6331

>  <r_i_glide_energy>  (345) 
-36.353

>  <r_i_glide_einternal>  (345) 
2.72983

>  <r_i_glide_intrahb_reward>  (345) 
-0

>  <i_i_glide_confnum>  (345) 
1

>  <i_i_glide_posenum>  (345) 
29

>  <r_i_glide_eff_state_penalty>  (345) 
0

>  <ligand_id>  (345) 
96

>  <original_smiles>  (345) 
CC1(O)CCC2CC3(C)C(C(=O)CC4(C)C5CCC6(C)C(O)CCC6C5CCC43)C(O)C21

>  <smiles>  (345) 
[H]OC1([H])C2([H])C(=O)C([H])([H])C3(C([H])([H])[H])C4([H])C([H])([H])C([H])([H])C5(C([H])([H])[H])C([H])(O[H])C([H])([H])C([H])([H])C5([H])C4([H])C([H])([H])C([H])([H])C3([H])C2(C([H])([H])[H])C([H])([H])C2([H])C([H])([H])C([H])([H])C(O[H])(C([H])([H])[H])C12[H]

$$$$
96:0:1
     RDKit          3D

 76 81  0  0  1  0  0  0  0  0999 V2000
    3.1736   -1.3877   -2.8255 C   0  0  0  0  0  0  0  0  0  0  0  0
    4.0666   -2.5051   -2.2984 C   0  0  1  0  0  0  0  0  0  0  0  0
    3.9087   -3.5981   -3.1703 O   0  0  0  0  0  0  0  0  0  0  0  0
    5.5128   -2.1634   -2.4331 C   0  0  0  0  0  0  0  0  0  0  0  0
    6.2588   -3.0562   -1.4616 C   0  0  0  0  0  0  0  0  0  0  0  0
    5.3438   -3.0977   -0.2500 C   0  0  2  0  0  0  0  0  0  0  0  0
    5.4667   -4.3746    0.6050 C   0  0  0  0  0  0  0  0  0  0  0  0
    4.3665   -4.4615    1.7083 C   0  0  1  0  0  0  0  0  0  0  0  0
    4.4407   -3.1389    2.5176 C   0  0  0  0  0  0  0  0  0  0  0  0
    2.9239   -4.4559    1.0452 C   0  0  2  0  0  0  0  0  0  0  0  0
    2.1609   -5.7959    1.1836 C   0  0  0  0  0  0  0  0  0  0  0  0
    1.1446   -6.0258    0.5066 O   0  0  0  0  0  0  0  0  0  0  0  0
    2.5637   -6.8058    2.2520 C   0  0  0  0  0  0  0  0  0  0  0  0
    4.0855   -7.0555    2.2732 C   0  0  2  0  0  0  0  0  0  0  0  0
    4.5306   -7.5707    0.8803 C   0  0  0  0  0  0  0  0  0  0  0  0
    4.4151   -8.2048    3.2985 C   0  0  1  0  0  0  0  0  0  0  0  0
    5.8521   -8.7915    3.2326 C   0  0  0  0  0  0  0  0  0  0  0  0
    5.9769  -10.0381    4.1227 C   0  0  0  0  0  0  0  0  0  0  0  0
    5.6059   -9.8193    5.6126 C   0  0  2  0  0  0  0  0  0  0  0  0
    6.7920   -9.1825    6.3718 C   0  0  0  0  0  0  0  0  0  0  0  0
    5.2265  -11.1846    6.2353 C   0  0  1  0  0  0  0  0  0  0  0  0
    5.2122  -11.1326    7.6505 O   0  0  0  0  0  0  0  0  0  0  0  0
    3.7910  -11.4395    5.7868 C   0  0  0  0  0  0  0  0  0  0  0  0
    3.1445  -10.0569    5.6725 C   0  0  0  0  0  0  0  0  0  0  0  0
    4.2851   -9.0156    5.7421 C   0  0  2  0  0  0  0  0  0  0  0  0
    4.0921   -7.8279    4.7590 C   0  0  1  0  0  0  0  0  0  0  0  0
    4.8628   -6.5597    5.1438 C   0  0  0  0  0  0  0  0  0  0  0  0
    4.5354   -5.4034    4.1901 C   0  0  0  0  0  0  0  0  0  0  0  0
    4.7411   -5.6915    2.6677 C   0  0  2  0  0  0  0  0  0  0  0  0
    2.9744   -3.9743   -0.4589 C   0  0  1  0  0  0  0  0  0  0  0  0
    1.7724   -3.5173   -1.0522 O   0  0  0  0  0  0  0  0  0  0  0  0
    3.9305   -2.8302   -0.7812 C   0  0  2  0  0  0  0  0  0  0  0  0
    3.3019   -0.4637   -2.2717 H   0  0  0  0  0  0  0  0  0  0  0  0
    2.1355   -1.6836   -2.7594 H   0  0  0  0  0  0  0  0  0  0  0  0
    3.3802   -1.1698   -3.8739 H   0  0  0  0  0  0  0  0  0  0  0  0
    3.1740   -4.1233   -2.8828 H   0  0  0  0  0  0  0  0  0  0  0  0
    5.8219   -2.2738   -3.4723 H   0  0  0  0  0  0  0  0  0  0  0  0
    5.6809   -1.1335   -2.1619 H   0  0  0  0  0  0  0  0  0  0  0  0
    6.3385   -4.0363   -1.9113 H   0  0  0  0  0  0  0  0  0  0  0  0
    7.2586   -2.6882   -1.2204 H   0  0  0  0  0  0  0  0  0  0  0  0
    5.6398   -2.2418    0.3501 H   0  0  0  0  0  0  0  0  0  0  0  0
    5.4082   -5.2313   -0.0637 H   0  0  0  0  0  0  0  0  0  0  0  0
    6.4638   -4.4213    1.0452 H   0  0  0  0  0  0  0  0  0  0  0  0
    3.7442   -3.1205    3.3529 H   0  0  0  0  0  0  0  0  0  0  0  0
    4.1476   -2.2756    1.9253 H   0  0  0  0  0  0  0  0  0  0  0  0
    5.4431   -2.9467    2.8945 H   0  0  0  0  0  0  0  0  0  0  0  0
    2.3073   -3.7376    1.5968 H   0  0  0  0  0  0  0  0  0  0  0  0
    2.2242   -6.4111    3.2091 H   0  0  0  0  0  0  0  0  0  0  0  0
    2.0226   -7.7444    2.1148 H   0  0  0  0  0  0  0  0  0  0  0  0
    5.6126   -7.5314    0.7810 H   0  0  0  0  0  0  0  0  0  0  0  0
    4.1322   -7.0123    0.0414 H   0  0  0  0  0  0  0  0  0  0  0  0
    4.2157   -8.6033    0.7265 H   0  0  0  0  0  0  0  0  0  0  0  0
    3.7607   -9.0325    3.0242 H   0  0  0  0  0  0  0  0  0  0  0  0
    6.1084   -9.1101    2.2241 H   0  0  0  0  0  0  0  0  0  0  0  0
    6.6000   -8.0542    3.5143 H   0  0  0  0  0  0  0  0  0  0  0  0
    5.3595  -10.8245    3.6838 H   0  0  0  0  0  0  0  0  0  0  0  0
    7.0006  -10.3998    4.0654 H   0  0  0  0  0  0  0  0  0  0  0  0
    6.4863   -8.8183    7.3514 H   0  0  0  0  0  0  0  0  0  0  0  0
    7.2270   -8.3454    5.8357 H   0  0  0  0  0  0  0  0  0  0  0  0
    7.5872   -9.9085    6.5346 H   0  0  0  0  0  0  0  0  0  0  0  0
    5.8935  -11.9891    5.9298 H   0  0  0  0  0  0  0  0  0  0  0  0
    4.6496  -11.8238    7.9557 H   0  0  0  0  0  0  0  0  0  0  0  0
    3.7795  -11.9285    4.8125 H   0  0  0  0  0  0  0  0  0  0  0  0
    3.2578  -12.0992    6.4658 H   0  0  0  0  0  0  0  0  0  0  0  0
    2.5709   -9.9970    4.7484 H   0  0  0  0  0  0  0  0  0  0  0  0
    2.4409   -9.8979    6.4931 H   0  0  0  0  0  0  0  0  0  0  0  0
    4.2512   -8.6216    6.7573 H   0  0  0  0  0  0  0  0  0  0  0  0
    3.0346   -7.5716    4.8343 H   0  0  0  0  0  0  0  0  0  0  0  0
    4.6186   -6.2693    6.1645 H   0  0  0  0  0  0  0  0  0  0  0  0
    5.9371   -6.7250    5.1258 H   0  0  0  0  0  0  0  0  0  0  0  0
    3.5129   -5.0778    4.3914 H   0  0  0  0  0  0  0  0  0  0  0  0
    5.1969   -4.5927    4.4944 H   0  0  0  0  0  0  0  0  0  0  0  0
    5.8185   -5.8477    2.5839 H   0  0  0  0  0  0  0  0  0  0  0  0
    3.3131   -4.8346   -1.0179 H   0  0  0  0  0  0  0  0  0  0  0  0
    1.6689   -2.5770   -0.9290 H   0  0  0  0  0  0  0  0  0  0  0  0
    3.5603   -1.9343   -0.2907 H   0  0  0  0  0  0  0  0  0  0  0  0
  1  2  1  0
  1 33  1  0
  1 34  1  0
  1 35  1  0
  2 32  1  0
  2  3  1  6
  2  4  1  0
  3 36  1  0
  4  5  1  0
  4 37  1  0
  4 38  1  0
  5  6  1  0
  5 39  1  0
  5 40  1  0
  6 32  1  0
  6  7  1  0
  6 41  1  1
  7  8  1  0
  7 42  1  0
  7 43  1  0
  8 29  1  0
  8  9  1  1
  8 10  1  0
  9 44  1  0
  9 45  1  0
  9 46  1  0
 10 11  1  0
 10 30  1  0
 10 47  1  1
 11 12  2  0
 11 13  1  0
 13 14  1  0
 13 48  1  0
 13 49  1  0
 14 29  1  0
 14 15  1  6
 14 16  1  0
 15 50  1  0
 15 51  1  0
 15 52  1  0
 16 26  1  0
 16 17  1  0
 16 53  1  6
 17 18  1  0
 17 54  1  0
 17 55  1  0
 18 19  1  0
 18 56  1  0
 18 57  1  0
 19 25  1  0
 19 20  1  1
 19 21  1  0
 20 58  1  0
 20 59  1  0
 20 60  1  0
 21 22  1  0
 21 23  1  0
 21 61  1  1
 22 62  1  0
 23 24  1  0
 23 63  1  0
 23 64  1  0
 24 25  1  0
 24 65  1  0
 24 66  1  0
 25 26  1  0
 25 67  1  1
 26 27  1  0
 26 68  1  6
 27 28  1  0
 27 69  1  0
 27 70  1  0
 28 29  1  0
 28 71  1  0
 28 72  1  0
 29 73  1  1
 30 31  1  0
 30 32  1  0
 30 74  1  6
 31 75  1  0
 32 76  1  1
M  END
>  <i_m_ct_stereo_status>  (346) 
1

>  <s_m_source_file>  (346) 
/var/tmp/pbs.5076255.sched01/tmp7b2cfgi2/13234zcpj2x.sdf

>  <i_m_source_file_index>  (346) 
15

>  <i_lp_mmshare_version>  (346) 
48012

>  <i_f3d_flags>  (346) 
0

>  <s_epik_input>  (346) 
W0NIM11bQ0BAXTEoW09IXSlbQ0gyXVtDSDJdW0NASF0oW0NIMl0yKVtDQEBIXTFbQ0BIXShbT0hdKVtDQEhdKFtDQF0yM1tDSDNdKUMoPU8pW0NIMl1bQ0BdNChbQ0gzXSlbQ0BASF01W0NASF0oW0NIMl1bQ0gyXVtDQEhdMzQpW0NAQEhdNltDQF0oW0NIM10pKFtDSDJdW0NIMl01KVtDQEBIXShbT0hdKVtDSDJdW0NIMl02

>  <s_epik_cmdline>  (346) 
J2VwaWtfcHl0aG9uJywgJy1waHQnLCAnMi4wJywgJy1waCcsICc3LjAnLCAnLXRuJywgJzgnLCAnLW1hJywgJzIwMCcsICctaW1hZScsICc8aW5maWxlLm1hZT4nLCAnLW9tYWUnLCAnPG91dGZpbGUubWFlPic=

>  <r_lp_tautomer_probability>  (346) 
1

>  <r_epik_Ionization_Penalty>  (346) 
5.41721e-06

>  <r_epik_Ionization_Penalty_Charging>  (346) 
0

>  <r_epik_Ionization_Penalty_Neutral>  (346) 
5.41721e-06

>  <r_epik_State_Penalty>  (346) 
-0

>  <r_epik_Charging_Adjusted_Penalty>  (346) 
0

>  <i_epik_Tot_Q>  (346) 
0

>  <i_epik_Tot_abs_Q>  (346) 
0

>  <s_lp_Force_Field>  (346) 
OPLS3e

>  <r_lp_Energy>  (346) 
69.0236

>  <b_lp_Chiralities_Consistent>  (346) 
1

>  <s_lp_Variant>  (346) 
96:0-1

>  <s_i_glide_gridfile>  (346) 
pfpi4k_grid

>  <i_i_glide_lignum>  (346) 
15

>  <i_i_glide_rotatable_bonds>  (346) 
3

>  <r_i_docking_score>  (346) 
-3.39981

>  <r_i_glide_ligand_efficiency>  (346) 
-0.106244

>  <r_i_glide_ligand_efficiency_sa>  (346) 
-0.337304

>  <r_i_glide_ligand_efficiency_ln>  (346) 
-0.761311

>  <r_i_glide_gscore>  (346) 
-3.39981

>  <r_i_glide_lipo>  (346) 
-0.313505

>  <r_i_glide_hbond>  (346) 
-0.154892

>  <r_i_glide_metal>  (346) 
-0

>  <r_i_glide_rewards>  (346) 
-0.37741

>  <r_i_glide_evdw>  (346) 
-21.3701

>  <r_i_glide_ecoul>  (346) 
-9.66494

>  <r_i_glide_erotb>  (346) 
0

>  <r_i_glide_esite>  (346) 
-0.0357576

>  <r_i_glide_emodel>  (346) 
-36.1262

>  <r_i_glide_energy>  (346) 
-31.0351

>  <r_i_glide_einternal>  (346) 
2.568

>  <r_i_glide_intrahb_reward>  (346) 
-0

>  <i_i_glide_confnum>  (346) 
2

>  <i_i_glide_posenum>  (346) 
1

>  <r_i_glide_eff_state_penalty>  (346) 
0

>  <ligand_id>  (346) 
96

>  <original_smiles>  (346) 
CC1(O)CCC2CC3(C)C(C(=O)CC4(C)C5CCC6(C)C(O)CCC6C5CCC43)C(O)C21

>  <smiles>  (346) 
[H]OC1([H])C2([H])C(=O)C([H])([H])C3(C([H])([H])[H])C4([H])C([H])([H])C([H])([H])C5(C([H])([H])[H])C([H])(O[H])C([H])([H])C([H])([H])C5([H])C4([H])C([H])([H])C([H])([H])C3([H])C2(C([H])([H])[H])C([H])([H])C2([H])C([H])([H])C([H])([H])C(O[H])(C([H])([H])[H])C12[H]

$$$$
96:0:2
     RDKit          3D

 76 81  0  0  1  0  0  0  0  0999 V2000
    4.0722   -2.1693   -2.9030 C   0  0  0  0  0  0  0  0  0  0  0  0
    4.8111   -2.9360   -1.7999 C   0  0  1  0  0  0  0  0  0  0  0  0
    5.0149   -4.2511   -2.2715 O   0  0  0  0  0  0  0  0  0  0  0  0
    6.2135   -2.3646   -1.5441 C   0  0  0  0  0  0  0  0  0  0  0  0
    6.5859   -2.8494   -0.1442 C   0  0  0  0  0  0  0  0  0  0  0  0
    5.2642   -2.7587    0.6251 C   0  0  2  0  0  0  0  0  0  0  0  0
    5.1529   -3.7239    1.8217 C   0  0  0  0  0  0  0  0  0  0  0  0
    3.7346   -3.7342    2.4744 C   0  0  1  0  0  0  0  0  0  0  0  0
    3.3750   -2.2543    2.8106 C   0  0  0  0  0  0  0  0  0  0  0  0
    2.6632   -4.1964    1.3981 C   0  0  2  0  0  0  0  0  0  0  0  0
    1.9726   -5.5560    1.6667 C   0  0  0  0  0  0  0  0  0  0  0  0
    1.3080   -6.1298    0.7988 O   0  0  0  0  0  0  0  0  0  0  0  0
    2.0430   -6.1615    3.0597 C   0  0  0  0  0  0  0  0  0  0  0  0
    3.4624   -6.1068    3.6581 C   0  0  2  0  0  0  0  0  0  0  0  0
    4.4527   -6.8605    2.7174 C   0  0  0  0  0  0  0  0  0  0  0  0
    3.4689   -6.8797    5.0274 C   0  0  1  0  0  0  0  0  0  0  0  0
    4.8599   -7.1818    5.6432 C   0  0  0  0  0  0  0  0  0  0  0  0
    4.7483   -8.1185    6.8571 C   0  0  0  0  0  0  0  0  0  0  0  0
    3.8119   -7.6116    7.9899 C   0  0  2  0  0  0  0  0  0  0  0  0
    4.5677   -6.5901    8.8729 C   0  0  0  0  0  0  0  0  0  0  0  0
    3.3384   -8.8248    8.8262 C   0  0  1  0  0  0  0  0  0  0  0  0
    2.8101   -8.4353   10.0797 O   0  0  0  0  0  0  0  0  0  0  0  0
    2.1939   -9.4448    8.0220 C   0  0  0  0  0  0  0  0  0  0  0  0
    1.5386   -8.2796    7.2742 C   0  0  0  0  0  0  0  0  0  0  0  0
    2.4812   -7.0603    7.4093 C   0  0  2  0  0  0  0  0  0  0  0  0
    2.5811   -6.2179    6.1078 C   0  0  1  0  0  0  0  0  0  0  0  0
    3.0454   -4.7713    6.3282 C   0  0  0  0  0  0  0  0  0  0  0  0
    3.0116   -3.9683    5.0242 C   0  0  0  0  0  0  0  0  0  0  0  0
    3.8124   -4.5893    3.8256 C   0  0  2  0  0  0  0  0  0  0  0  0
    3.1780   -4.1180   -0.0801 C   0  0  1  0  0  0  0  0  0  0  0  0
    2.0695   -4.0022   -0.9537 O   0  0  0  0  0  0  0  0  0  0  0  0
    4.1228   -2.9287   -0.4071 C   0  0  2  0  0  0  0  0  0  0  0  0
    3.9023   -1.1307   -2.6284 H   0  0  0  0  0  0  0  0  0  0  0  0
    3.1000   -2.6084   -3.1168 H   0  0  0  0  0  0  0  0  0  0  0  0
    4.6408   -2.1644   -3.8326 H   0  0  0  0  0  0  0  0  0  0  0  0
    4.1964   -4.7262   -2.3483 H   0  0  0  0  0  0  0  0  0  0  0  0
    6.9490   -2.6589   -2.2959 H   0  0  0  0  0  0  0  0  0  0  0  0
    6.1643   -1.2747   -1.5419 H   0  0  0  0  0  0  0  0  0  0  0  0
    6.9539   -3.8769   -0.1919 H   0  0  0  0  0  0  0  0  0  0  0  0
    7.3598   -2.2299    0.3156 H   0  0  0  0  0  0  0  0  0  0  0  0
    5.2235   -1.7295    0.9903 H   0  0  0  0  0  0  0  0  0  0  0  0
    5.4242   -4.7187    1.4751 H   0  0  0  0  0  0  0  0  0  0  0  0
    5.9071   -3.4502    2.5588 H   0  0  0  0  0  0  0  0  0  0  0  0
    2.4091   -2.1641    3.3137 H   0  0  0  0  0  0  0  0  0  0  0  0
    3.2581   -1.6366    1.9191 H   0  0  0  0  0  0  0  0  0  0  0  0
    4.1406   -1.7874    3.4370 H   0  0  0  0  0  0  0  0  0  0  0  0
    1.8434   -3.4807    1.4581 H   0  0  0  0  0  0  0  0  0  0  0  0
    1.3380   -5.6020    3.6755 H   0  0  0  0  0  0  0  0  0  0  0  0
    1.6839   -7.1908    3.0241 H   0  0  0  0  0  0  0  0  0  0  0  0
    5.4909   -6.6464    2.9754 H   0  0  0  0  0  0  0  0  0  0  0  0
    4.3438   -6.6197    1.6622 H   0  0  0  0  0  0  0  0  0  0  0  0
    4.2978   -7.9403    2.7896 H   0  0  0  0  0  0  0  0  0  0  0  0
    3.0342   -7.8573    4.8178 H   0  0  0  0  0  0  0  0  0  0  0  0
    5.5114   -7.6797    4.9270 H   0  0  0  0  0  0  0  0  0  0  0  0
    5.3871   -6.2690    5.9209 H   0  0  0  0  0  0  0  0  0  0  0  0
    4.4065   -9.0864    6.4858 H   0  0  0  0  0  0  0  0  0  0  0  0
    5.7452   -8.2939    7.2623 H   0  0  0  0  0  0  0  0  0  0  0  0
    3.8885   -6.0593    9.5377 H   0  0  0  0  0  0  0  0  0  0  0  0
    5.1052   -5.8479    8.2911 H   0  0  0  0  0  0  0  0  0  0  0  0
    5.2985   -7.0921    9.5027 H   0  0  0  0  0  0  0  0  0  0  0  0
    4.1444   -9.5379    9.0049 H   0  0  0  0  0  0  0  0  0  0  0  0
    2.5341   -9.2174   10.5295 H   0  0  0  0  0  0  0  0  0  0  0  0
    2.5964  -10.1585    7.2985 H   0  0  0  0  0  0  0  0  0  0  0  0
    1.4842  -10.0044    8.6361 H   0  0  0  0  0  0  0  0  0  0  0  0
    1.3624   -8.5626    6.2351 H   0  0  0  0  0  0  0  0  0  0  0  0
    0.5677   -8.0440    7.7105 H   0  0  0  0  0  0  0  0  0  0  0  0
    2.0334   -6.4292    8.1824 H   0  0  0  0  0  0  0  0  0  0  0  0
    1.5607   -6.1518    5.7345 H   0  0  0  0  0  0  0  0  0  0  0  0
    2.4095   -4.2838    7.0669 H   0  0  0  0  0  0  0  0  0  0  0  0
    4.0509   -4.7251    6.7343 H   0  0  0  0  0  0  0  0  0  0  0  0
    1.9705   -3.8009    4.7502 H   0  0  0  0  0  0  0  0  0  0  0  0
    3.4331   -2.9943    5.2698 H   0  0  0  0  0  0  0  0  0  0  0  0
    4.8485   -4.5545    4.1674 H   0  0  0  0  0  0  0  0  0  0  0  0
    3.6952   -5.0522   -0.2925 H   0  0  0  0  0  0  0  0  0  0  0  0
    2.2518   -4.4844   -1.7520 H   0  0  0  0  0  0  0  0  0  0  0  0
    3.5201   -2.0190   -0.3542 H   0  0  0  0  0  0  0  0  0  0  0  0
  1  2  1  0
  1 33  1  0
  1 34  1  0
  1 35  1  0
  2 32  1  0
  2  3  1  6
  2  4  1  0
  3 36  1  0
  4  5  1  0
  4 37  1  0
  4 38  1  0
  5  6  1  0
  5 39  1  0
  5 40  1  0
  6 32  1  0
  6  7  1  0
  6 41  1  1
  7  8  1  0
  7 42  1  0
  7 43  1  0
  8 29  1  0
  8  9  1  1
  8 10  1  0
  9 44  1  0
  9 45  1  0
  9 46  1  0
 10 11  1  0
 10 30  1  0
 10 47  1  6
 11 12  2  0
 11 13  1  0
 13 14  1  0
 13 48  1  0
 13 49  1  0
 14 29  1  0
 14 15  1  6
 14 16  1  0
 15 50  1  0
 15 51  1  0
 15 52  1  0
 16 26  1  0
 16 17  1  0
 16 53  1  6
 17 18  1  0
 17 54  1  0
 17 55  1  0
 18 19  1  0
 18 56  1  0
 18 57  1  0
 19 25  1  0
 19 20  1  1
 19 21  1  0
 20 58  1  0
 20 59  1  0
 20 60  1  0
 21 22  1  0
 21 23  1  0
 21 61  1  1
 22 62  1  0
 23 24  1  0
 23 63  1  0
 23 64  1  0
 24 25  1  0
 24 65  1  0
 24 66  1  0
 25 26  1  0
 25 67  1  1
 26 27  1  0
 26 68  1  6
 27 28  1  0
 27 69  1  0
 27 70  1  0
 28 29  1  0
 28 71  1  0
 28 72  1  0
 29 73  1  1
 30 31  1  0
 30 32  1  0
 30 74  1  6
 31 75  1  0
 32 76  1  6
M  END
>  <i_m_ct_stereo_status>  (347) 
1

>  <s_m_source_file>  (347) 
/var/tmp/pbs.5076255.sched01/tmp7b2cfgi2/13234zcpj2x.sdf

>  <i_m_source_file_index>  (347) 
15

>  <i_lp_mmshare_version>  (347) 
48012

>  <i_f3d_flags>  (347) 
0

>  <s_epik_input>  (347) 
W0NIM11bQ0BAXTEoW09IXSlbQ0gyXVtDSDJdW0NASF0oW0NIMl0yKVtDQEBIXTFbQ0BIXShbT0hdKVtDQEhdKFtDQF0yM1tDSDNdKUMoPU8pW0NIMl1bQ0BdNChbQ0gzXSlbQ0BASF01W0NASF0oW0NIMl1bQ0gyXVtDQEhdMzQpW0NAQEhdNltDQF0oW0NIM10pKFtDSDJdW0NIMl01KVtDQEBIXShbT0hdKVtDSDJdW0NIMl02

>  <s_epik_cmdline>  (347) 
J2VwaWtfcHl0aG9uJywgJy1waHQnLCAnMi4wJywgJy1waCcsICc3LjAnLCAnLXRuJywgJzgnLCAnLW1hJywgJzIwMCcsICctaW1hZScsICc8aW5maWxlLm1hZT4nLCAnLW9tYWUnLCAnPG91dGZpbGUubWFlPic=

>  <r_lp_tautomer_probability>  (347) 
1

>  <r_epik_Ionization_Penalty>  (347) 
5.41721e-06

>  <r_epik_Ionization_Penalty_Charging>  (347) 
0

>  <r_epik_Ionization_Penalty_Neutral>  (347) 
5.41721e-06

>  <r_epik_State_Penalty>  (347) 
-0

>  <r_epik_Charging_Adjusted_Penalty>  (347) 
0

>  <i_epik_Tot_Q>  (347) 
0

>  <i_epik_Tot_abs_Q>  (347) 
0

>  <s_lp_Force_Field>  (347) 
OPLS3e

>  <r_lp_Energy>  (347) 
69.0236

>  <b_lp_Chiralities_Consistent>  (347) 
1

>  <s_lp_Variant>  (347) 
96:0-1

>  <s_i_glide_gridfile>  (347) 
pfpi4k_grid

>  <i_i_glide_lignum>  (347) 
15

>  <i_i_glide_rotatable_bonds>  (347) 
3

>  <r_i_docking_score>  (347) 
-3.36747

>  <r_i_glide_ligand_efficiency>  (347) 
-0.105233

>  <r_i_glide_ligand_efficiency_sa>  (347) 
-0.334095

>  <r_i_glide_ligand_efficiency_ln>  (347) 
-0.754067

>  <r_i_glide_gscore>  (347) 
-3.36747

>  <r_i_glide_lipo>  (347) 
-0.246686

>  <r_i_glide_hbond>  (347) 
-0.152164

>  <r_i_glide_metal>  (347) 
-0

>  <r_i_glide_rewards>  (347) 
-0.37741

>  <r_i_glide_evdw>  (347) 
-23.2557

>  <r_i_glide_ecoul>  (347) 
-9.2334

>  <r_i_glide_erotb>  (347) 
0

>  <r_i_glide_esite>  (347) 
-0.0434125

>  <r_i_glide_emodel>  (347) 
-39.409

>  <r_i_glide_energy>  (347) 
-32.4891

>  <r_i_glide_einternal>  (347) 
1.19715

>  <r_i_glide_intrahb_reward>  (347) 
-0

>  <i_i_glide_confnum>  (347) 
1

>  <i_i_glide_posenum>  (347) 
8

>  <r_i_glide_eff_state_penalty>  (347) 
0

>  <ligand_id>  (347) 
96

>  <original_smiles>  (347) 
CC1(O)CCC2CC3(C)C(C(=O)CC4(C)C5CCC6(C)C(O)CCC6C5CCC43)C(O)C21

>  <smiles>  (347) 
[H]OC1([H])C2([H])C(=O)C([H])([H])C3(C([H])([H])[H])C4([H])C([H])([H])C([H])([H])C5(C([H])([H])[H])C([H])(O[H])C([H])([H])C([H])([H])C5([H])C4([H])C([H])([H])C([H])([H])C3([H])C2(C([H])([H])[H])C([H])([H])C2([H])C([H])([H])C([H])([H])C(O[H])(C([H])([H])[H])C12[H]

$$$$
98:0:0
     RDKit          3D

 69 74  0  0  1  0  0  0  0  0999 V2000
    1.2715   -6.4763    0.7578 C   0  0  0  0  0  0  0  0  0  0  0  0
    1.7769   -5.3347    0.0762 O   0  0  0  0  0  0  0  0  0  0  0  0
    2.7970   -4.5523    0.7192 C   0  0  2  0  0  0  0  0  0  0  0  0
    2.4134   -3.0678    0.5968 C   0  0  0  0  0  0  0  0  0  0  0  0
    3.4543   -1.9295    0.5878 C   0  0  2  0  0  0  0  0  0  0  0  0
    3.8146   -1.5106   -0.8791 C   0  0  0  0  0  0  0  0  0  0  0  0
    4.1136   -2.5909   -1.9702 C   0  0  1  0  0  0  0  0  0  0  0  0
    2.9325   -3.3965   -2.5420 C   0  0  0  0  0  0  0  0  0  0  0  0
    4.4242   -1.7786   -3.0982 O   0  0  0  0  0  0  0  0  0  0  0  0
    5.3146   -3.4203   -1.5140 C   0  0  0  0  0  0  0  0  0  0  0  0
    6.6197   -2.9123   -2.1298 C   0  0  0  0  0  0  0  0  0  0  0  0
    5.2839   -4.0377   -0.2877 C   0  0  0  0  0  0  0  0  0  0  0  0
    6.3568   -3.6473    0.6984 C   0  0  0  0  0  0  0  0  0  0  0  0
    6.0224   -2.3105    1.4420 C   0  0  1  0  0  0  0  0  0  0  0  0
    6.6453   -1.2766    0.6949 O   0  0  0  0  0  0  0  0  0  0  0  0
    4.5413   -1.8509    1.7576 C   0  0  2  0  0  0  0  0  0  0  0  0
    3.9633   -2.2833    3.1541 C   0  0  2  0  0  0  0  0  0  0  0  0
    2.7829   -1.4022    3.5634 C   0  0  0  0  0  0  0  0  0  0  0  0
    4.6999   -2.7565    4.4337 C   0  0  2  0  0  0  0  0  0  0  0  0
    4.5018   -3.8522    5.3677 O   0  0  0  0  0  0  0  0  0  0  0  0
    5.1202   -5.0183    4.8648 C   0  0  1  0  0  0  0  0  0  0  0  0
    6.4395   -5.2127    5.3186 O   0  0  0  0  0  0  0  0  0  0  0  0
    4.2581   -6.2953    5.0935 C   0  0  0  0  0  0  0  0  0  0  0  0
    3.9443   -6.8690    3.6830 C   0  0  1  0  0  0  0  0  0  0  0  0
    4.1555   -8.3971    3.6083 C   0  0  0  0  0  0  0  0  0  0  0  0
    2.5700   -6.6382    3.4708 O   0  0  0  0  0  0  0  0  0  0  0  0
    4.8569   -6.0927    2.6974 C   0  0  1  0  0  0  0  0  0  0  0  0
    4.7224   -6.2188    1.1204 C   0  0  0  0  0  0  0  0  0  0  0  0
    4.1964   -5.0326    0.2351 C   0  0  1  0  0  0  0  0  0  0  0  0
    5.0979   -4.7433    3.3837 C   0  0  1  0  0  0  0  0  0  0  0  0
    4.0142   -3.7090    3.4536 C   0  0  2  0  0  0  0  0  0  0  0  0
    0.5445   -6.9996    0.1314 H   0  0  0  0  0  0  0  0  0  0  0  0
    0.7412   -6.1633    1.6590 H   0  0  0  0  0  0  0  0  0  0  0  0
    2.0559   -7.1890    1.0105 H   0  0  0  0  0  0  0  0  0  0  0  0
    2.6830   -4.7806    1.7639 H   0  0  0  0  0  0  0  0  0  0  0  0
    1.8061   -2.9554   -0.2934 H   0  0  0  0  0  0  0  0  0  0  0  0
    1.7186   -2.8788    1.4084 H   0  0  0  0  0  0  0  0  0  0  0  0
    2.8240   -1.0751    0.8446 H   0  0  0  0  0  0  0  0  0  0  0  0
    2.9823   -0.9273   -1.2650 H   0  0  0  0  0  0  0  0  0  0  0  0
    4.6332   -0.7932   -0.8317 H   0  0  0  0  0  0  0  0  0  0  0  0
    2.6149   -4.1928   -1.8856 H   0  0  0  0  0  0  0  0  0  0  0  0
    3.1972   -3.8586   -3.4933 H   0  0  0  0  0  0  0  0  0  0  0  0
    2.0554   -2.7729   -2.7170 H   0  0  0  0  0  0  0  0  0  0  0  0
    3.6718   -1.2391   -3.2823 H   0  0  0  0  0  0  0  0  0  0  0  0
    6.5777   -3.0435   -3.2117 H   0  0  0  0  0  0  0  0  0  0  0  0
    7.4985   -3.4781   -1.8328 H   0  0  0  0  0  0  0  0  0  0  0  0
    6.7822   -1.8596   -1.9080 H   0  0  0  0  0  0  0  0  0  0  0  0
    6.5960   -4.4967    1.3122 H   0  0  0  0  0  0  0  0  0  0  0  0
    7.3221   -3.5225    0.2309 H   0  0  0  0  0  0  0  0  0  0  0  0
    6.5909   -2.3133    2.3713 H   0  0  0  0  0  0  0  0  0  0  0  0
    6.7867   -0.5423    1.2684 H   0  0  0  0  0  0  0  0  0  0  0  0
    4.6584   -0.7744    1.8973 H   0  0  0  0  0  0  0  0  0  0  0  0
    2.4142   -1.7128    4.5405 H   0  0  0  0  0  0  0  0  0  0  0  0
    1.9384   -1.4433    2.8831 H   0  0  0  0  0  0  0  0  0  0  0  0
    3.1003   -0.3628    3.6478 H   0  0  0  0  0  0  0  0  0  0  0  0
    5.7645   -2.5222    4.4198 H   0  0  0  0  0  0  0  0  0  0  0  0
    6.8315   -5.9272    4.8349 H   0  0  0  0  0  0  0  0  0  0  0  0
    4.8014   -7.0060    5.7261 H   0  0  0  0  0  0  0  0  0  0  0  0
    3.3455   -6.0179    5.6290 H   0  0  0  0  0  0  0  0  0  0  0  0
    5.1861   -8.6742    3.8349 H   0  0  0  0  0  0  0  0  0  0  0  0
    3.9399   -8.7907    2.6159 H   0  0  0  0  0  0  0  0  0  0  0  0
    3.5255   -8.9373    4.3126 H   0  0  0  0  0  0  0  0  0  0  0  0
    2.0960   -7.2855    3.9645 H   0  0  0  0  0  0  0  0  0  0  0  0
    5.8259   -6.5803    2.8477 H   0  0  0  0  0  0  0  0  0  0  0  0
    5.7110   -6.4801    0.7225 H   0  0  0  0  0  0  0  0  0  0  0  0
    4.1258   -7.1023    0.9086 H   0  0  0  0  0  0  0  0  0  0  0  0
    3.9788   -5.5124   -0.7156 H   0  0  0  0  0  0  0  0  0  0  0  0
    6.0657   -4.3104    3.1696 H   0  0  0  0  0  0  0  0  0  0  0  0
    3.0182   -4.1020    3.7062 H   0  0  0  0  0  0  0  0  0  0  0  0
  1  2  1  0
  1 32  1  0
  1 33  1  0
  1 34  1  0
  2  3  1  0
  3 29  1  0
  3  4  1  0
  3 35  1  1
  4  5  1  0
  4 36  1  0
  4 37  1  0
  5 16  1  0
  5  6  1  0
  5 38  1  1
  6  7  1  0
  6 39  1  0
  6 40  1  0
  7  8  1  0
  7  9  1  6
  7 10  1  0
  8 41  1  0
  8 42  1  0
  8 43  1  0
  9 44  1  0
 10 11  1  0
 10 12  2  3
 11 45  1  0
 11 46  1  0
 11 47  1  0
 12 29  1  0
 12 13  1  0
 13 14  1  0
 13 48  1  0
 13 49  1  0
 14 15  1  0
 14 16  1  0
 14 50  1  1
 15 51  1  0
 16 17  1  0
 16 52  1  1
 17 31  1  0
 17 18  1  1
 17 19  1  0
 18 53  1  0
 18 54  1  0
 18 55  1  0
 19 31  1  0
 19 20  1  0
 19 56  1  6
 20 21  1  0
 21 30  1  0
 21 22  1  1
 21 23  1  0
 22 57  1  0
 23 24  1  0
 23 58  1  0
 23 59  1  0
 24 25  1  0
 24 26  1  6
 24 27  1  0
 25 60  1  0
 25 61  1  0
 25 62  1  0
 26 63  1  0
 27 28  1  0
 27 30  1  0
 27 64  1  1
 28 29  1  0
 28 65  1  0
 28 66  1  0
 29 67  1  6
 30 31  1  0
 30 68  1  6
 31 69  1  1
M  END
>  <i_m_ct_stereo_status>  (348) 
1

>  <s_m_source_file>  (348) 
/var/tmp/pbs.5076255.sched01/tmp7b2cfgi2/13234zcpj2x.sdf

>  <i_m_source_file_index>  (348) 
17

>  <i_lp_mmshare_version>  (348) 
48012

>  <i_f3d_flags>  (348) 
0

>  <s_epik_input>  (348) 
W0NIM11bQ0BAXTEyW0NAQEhdM1tDQEBIXTRbQ0gyXVtDQEBIXShPW0NIM10pW0NAQEhdKEMoPUMoW0NIM10pXFtDQF0oW0NIMl00KShbQ0gzXSlbT0hdKVxbQ0gyXVtDQEhdM1tPSF0pW0NIMl1bQ0BIXTVbQ0BASF02W0NAQF0oW09IXSkoT1tDQEhdMVtDQEBIXTI2KVtDSDJdW0NAQF01KFtDSDNdKVtPSF0=

>  <s_epik_cmdline>  (348) 
J2VwaWtfcHl0aG9uJywgJy1waHQnLCAnMi4wJywgJy1waCcsICc3LjAnLCAnLXRuJywgJzgnLCAnLW1hJywgJzIwMCcsICctaW1hZScsICc8aW5maWxlLm1hZT4nLCAnLW9tYWUnLCAnPG91dGZpbGUubWFlPic=

>  <r_lp_tautomer_probability>  (348) 
1

>  <r_epik_Ionization_Penalty>  (348) 
7.49814e-07

>  <r_epik_Ionization_Penalty_Charging>  (348) 
0

>  <r_epik_Ionization_Penalty_Neutral>  (348) 
7.49814e-07

>  <r_epik_State_Penalty>  (348) 
-0

>  <r_epik_Charging_Adjusted_Penalty>  (348) 
0

>  <i_epik_Tot_Q>  (348) 
0

>  <i_epik_Tot_abs_Q>  (348) 
0

>  <s_lp_Force_Field>  (348) 
OPLS3e

>  <r_lp_Energy>  (348) 
155.287

>  <b_lp_Chiralities_Consistent>  (348) 
1

>  <s_lp_Variant>  (348) 
98:0-1

>  <s_i_glide_gridfile>  (348) 
pfpi4k_grid

>  <i_i_glide_lignum>  (348) 
17

>  <i_i_glide_rotatable_bonds>  (348) 
5

>  <r_i_docking_score>  (348) 
-3.03711

>  <r_i_glide_ligand_efficiency>  (348) 
-0.0979712

>  <r_i_glide_ligand_efficiency_sa>  (348) 
-0.307765

>  <r_i_glide_ligand_efficiency_ln>  (348) 
-0.684961

>  <r_i_glide_gscore>  (348) 
-3.03711

>  <r_i_glide_lipo>  (348) 
-0.517508

>  <r_i_glide_hbond>  (348) 
-0.258089

>  <r_i_glide_metal>  (348) 
-0

>  <r_i_glide_rewards>  (348) 
-0.446358

>  <r_i_glide_evdw>  (348) 
-22.7698

>  <r_i_glide_ecoul>  (348) 
-4.5111

>  <r_i_glide_erotb>  (348) 
0

>  <r_i_glide_esite>  (348) 
0

>  <r_i_glide_emodel>  (348) 
-29.9931

>  <r_i_glide_energy>  (348) 
-27.2809

>  <r_i_glide_einternal>  (348) 
3.98737

>  <r_i_glide_intrahb_reward>  (348) 
-0

>  <i_i_glide_confnum>  (348) 
1

>  <i_i_glide_posenum>  (348) 
21

>  <r_i_glide_eff_state_penalty>  (348) 
0

>  <ligand_id>  (348) 
98

>  <original_smiles>  (348) 
COC1CC2CC(C)(O)C(C)=C3CC(O)C2C2(C)C4OC5(O)CC(C)(O)C(CC31)C5C42

>  <smiles>  (348) 
[H]OC1([H])C([H])([H])C2=C(C([H])([H])[H])C(O[H])(C([H])([H])[H])C([H])([H])C3([H])C([H])([H])C([H])(OC([H])([H])[H])C2([H])C([H])([H])C2([H])C4([H])C(O[H])(OC5([H])C4([H])C5(C([H])([H])[H])C13[H])C([H])([H])C2(O[H])C([H])([H])[H]

$$$$
98:0:1
     RDKit          3D

 69 74  0  0  1  0  0  0  0  0999 V2000
    1.8147   -6.5275    0.5610 C   0  0  0  0  0  0  0  0  0  0  0  0
    1.4695   -5.4583    1.4198 O   0  0  0  0  0  0  0  0  0  0  0  0
    2.5868   -4.6983    1.8931 C   0  0  2  0  0  0  0  0  0  0  0  0
    3.3238   -5.5507    2.9174 C   0  0  0  0  0  0  0  0  0  0  0  0
    4.0622   -4.8680    4.0838 C   0  0  2  0  0  0  0  0  0  0  0  0
    3.1442   -4.8186    5.3487 C   0  0  0  0  0  0  0  0  0  0  0  0
    1.6699   -4.2912    5.2686 C   0  0  1  0  0  0  0  0  0  0  0  0
    0.6044   -5.1946    4.6143 C   0  0  0  0  0  0  0  0  0  0  0  0
    1.2519   -4.3639    6.6234 O   0  0  0  0  0  0  0  0  0  0  0  0
    1.7139   -2.8471    4.7723 C   0  0  0  0  0  0  0  0  0  0  0  0
    1.6052   -1.8320    5.9181 C   0  0  0  0  0  0  0  0  0  0  0  0
    2.3624   -2.5641    3.6107 C   0  0  0  0  0  0  0  0  0  0  0  0
    3.4539   -1.5376    3.6404 C   0  0  0  0  0  0  0  0  0  0  0  0
    4.7940   -2.2000    4.0891 C   0  0  1  0  0  0  0  0  0  0  0  0
    4.8327   -2.0365    5.4918 O   0  0  0  0  0  0  0  0  0  0  0  0
    5.1451   -3.7259    3.7846 C   0  0  2  0  0  0  0  0  0  0  0  0
    5.9518   -3.9940    2.4691 C   0  0  2  0  0  0  0  0  0  0  0  0
    6.6782   -5.3400    2.5195 C   0  0  0  0  0  0  0  0  0  0  0  0
    6.7643   -3.0165    1.5899 C   0  0  2  0  0  0  0  0  0  0  0  0
    6.8673   -2.7919    0.1658 O   0  0  0  0  0  0  0  0  0  0  0  0
    5.8515   -1.8884   -0.1992 C   0  0  1  0  0  0  0  0  0  0  0  0
    6.2169   -0.5425   -0.1086 O   0  0  0  0  0  0  0  0  0  0  0  0
    5.2366   -2.2511   -1.5671 C   0  0  0  0  0  0  0  0  0  0  0  0
    3.7256   -2.4574   -1.2926 C   0  0  1  0  0  0  0  0  0  0  0  0
    2.8512   -1.8604   -2.4033 C   0  0  0  0  0  0  0  0  0  0  0  0
    3.4849   -3.8404   -1.3002 O   0  0  0  0  0  0  0  0  0  0  0  0
    3.4856   -1.9612    0.1630 C   0  0  1  0  0  0  0  0  0  0  0  0
    2.1898   -2.3241    0.9745 C   0  0  0  0  0  0  0  0  0  0  0  0
    2.1279   -3.2583    2.2417 C   0  0  1  0  0  0  0  0  0  0  0  0
    4.8282   -2.1374    0.8417 C   0  0  1  0  0  0  0  0  0  0  0  0
    5.3430   -3.4776    1.2470 C   0  0  2  0  0  0  0  0  0  0  0  0
    0.9223   -6.9292    0.0870 H   0  0  0  0  0  0  0  0  0  0  0  0
    2.3021   -7.3322    1.1073 H   0  0  0  0  0  0  0  0  0  0  0  0
    2.4861   -6.2210   -0.2371 H   0  0  0  0  0  0  0  0  0  0  0  0
    3.2246   -4.6189    1.0294 H   0  0  0  0  0  0  0  0  0  0  0  0
    2.6248   -6.2769    3.3326 H   0  0  0  0  0  0  0  0  0  0  0  0
    3.9974   -6.1794    2.3386 H   0  0  0  0  0  0  0  0  0  0  0  0
    4.7210   -5.6813    4.3863 H   0  0  0  0  0  0  0  0  0  0  0  0
    3.0920   -5.8381    5.7309 H   0  0  0  0  0  0  0  0  0  0  0  0
    3.6778   -4.2617    6.1182 H   0  0  0  0  0  0  0  0  0  0  0  0
    0.6104   -5.1699    3.5394 H   0  0  0  0  0  0  0  0  0  0  0  0
   -0.4023   -4.8990    4.9068 H   0  0  0  0  0  0  0  0  0  0  0  0
    0.7384   -6.2377    4.9033 H   0  0  0  0  0  0  0  0  0  0  0  0
    1.4136   -5.2363    6.9423 H   0  0  0  0  0  0  0  0  0  0  0  0
    0.6549   -1.9558    6.4414 H   0  0  0  0  0  0  0  0  0  0  0  0
    1.5996   -0.8005    5.5741 H   0  0  0  0  0  0  0  0  0  0  0  0
    2.4118   -1.9675    6.6388 H   0  0  0  0  0  0  0  0  0  0  0  0
    3.4544   -0.9871    2.7148 H   0  0  0  0  0  0  0  0  0  0  0  0
    3.2400   -0.7165    4.3171 H   0  0  0  0  0  0  0  0  0  0  0  0
    5.6019   -1.5674    3.7269 H   0  0  0  0  0  0  0  0  0  0  0  0
    5.6779   -2.3211    5.7930 H   0  0  0  0  0  0  0  0  0  0  0  0
    5.8928   -3.9328    4.5492 H   0  0  0  0  0  0  0  0  0  0  0  0
    7.2531   -5.4709    1.6043 H   0  0  0  0  0  0  0  0  0  0  0  0
    6.0208   -6.1937    2.6069 H   0  0  0  0  0  0  0  0  0  0  0  0
    7.3785   -5.3841    3.3497 H   0  0  0  0  0  0  0  0  0  0  0  0
    6.9770   -2.0605    2.0711 H   0  0  0  0  0  0  0  0  0  0  0  0
    5.4445    0.0062   -0.2104 H   0  0  0  0  0  0  0  0  0  0  0  0
    5.4080   -1.4366   -2.2733 H   0  0  0  0  0  0  0  0  0  0  0  0
    5.7070   -3.1567   -1.9609 H   0  0  0  0  0  0  0  0  0  0  0  0
    2.8840   -0.7742   -2.3638 H   0  0  0  0  0  0  0  0  0  0  0  0
    1.8279   -2.2180   -2.2959 H   0  0  0  0  0  0  0  0  0  0  0  0
    3.1785   -2.1534   -3.4011 H   0  0  0  0  0  0  0  0  0  0  0  0
    3.4516   -4.1592   -2.1908 H   0  0  0  0  0  0  0  0  0  0  0  0
    3.3844   -0.8848    0.0322 H   0  0  0  0  0  0  0  0  0  0  0  0
    1.7252   -1.3920    1.2936 H   0  0  0  0  0  0  0  0  0  0  0  0
    1.5312   -2.7233    0.2157 H   0  0  0  0  0  0  0  0  0  0  0  0
    1.0653   -3.3804    2.4504 H   0  0  0  0  0  0  0  0  0  0  0  0
    4.9825   -1.3895    1.6122 H   0  0  0  0  0  0  0  0  0  0  0  0
    5.2219   -4.2659    0.4864 H   0  0  0  0  0  0  0  0  0  0  0  0
  1  2  1  0
  1 32  1  0
  1 33  1  0
  1 34  1  0
  2  3  1  0
  3 29  1  0
  3  4  1  0
  3 35  1  6
  4  5  1  0
  4 36  1  0
  4 37  1  0
  5 16  1  0
  5  6  1  0
  5 38  1  1
  6  7  1  0
  6 39  1  0
  6 40  1  0
  7  8  1  0
  7  9  1  1
  7 10  1  0
  8 41  1  0
  8 42  1  0
  8 43  1  0
  9 44  1  0
 10 11  1  0
 10 12  2  3
 11 45  1  0
 11 46  1  0
 11 47  1  0
 12 29  1  0
 12 13  1  0
 13 14  1  0
 13 48  1  0
 13 49  1  0
 14 15  1  0
 14 16  1  0
 14 50  1  6
 15 51  1  0
 16 17  1  0
 16 52  1  1
 17 31  1  0
 17 18  1  6
 17 19  1  0
 18 53  1  0
 18 54  1  0
 18 55  1  0
 19 31  1  0
 19 20  1  0
 19 56  1  1
 20 21  1  0
 21 30  1  0
 21 22  1  6
 21 23  1  0
 22 57  1  0
 23 24  1  0
 23 58  1  0
 23 59  1  0
 24 25  1  0
 24 26  1  1
 24 27  1  0
 25 60  1  0
 25 61  1  0
 25 62  1  0
 26 63  1  0
 27 28  1  0
 27 30  1  0
 27 64  1  6
 28 29  1  0
 28 65  1  0
 28 66  1  0
 29 67  1  1
 30 31  1  0
 30 68  1  1
 31 69  1  6
M  END
>  <i_m_ct_stereo_status>  (349) 
1

>  <s_m_source_file>  (349) 
/var/tmp/pbs.5076255.sched01/tmp7b2cfgi2/13234zcpj2x.sdf

>  <i_m_source_file_index>  (349) 
17

>  <i_lp_mmshare_version>  (349) 
48012

>  <i_f3d_flags>  (349) 
0

>  <s_epik_input>  (349) 
W0NIM11bQ0BAXTEyW0NAQEhdM1tDQEBIXTRbQ0gyXVtDQEBIXShPW0NIM10pW0NAQEhdKEMoPUMoW0NIM10pXFtDQF0oW0NIMl00KShbQ0gzXSlbT0hdKVxbQ0gyXVtDQEhdM1tPSF0pW0NIMl1bQ0BIXTVbQ0BASF02W0NAQF0oW09IXSkoT1tDQEhdMVtDQEBIXTI2KVtDSDJdW0NAQF01KFtDSDNdKVtPSF0=

>  <s_epik_cmdline>  (349) 
J2VwaWtfcHl0aG9uJywgJy1waHQnLCAnMi4wJywgJy1waCcsICc3LjAnLCAnLXRuJywgJzgnLCAnLW1hJywgJzIwMCcsICctaW1hZScsICc8aW5maWxlLm1hZT4nLCAnLW9tYWUnLCAnPG91dGZpbGUubWFlPic=

>  <r_lp_tautomer_probability>  (349) 
1

>  <r_epik_Ionization_Penalty>  (349) 
7.49814e-07

>  <r_epik_Ionization_Penalty_Charging>  (349) 
0

>  <r_epik_Ionization_Penalty_Neutral>  (349) 
7.49814e-07

>  <r_epik_State_Penalty>  (349) 
-0

>  <r_epik_Charging_Adjusted_Penalty>  (349) 
0

>  <i_epik_Tot_Q>  (349) 
0

>  <i_epik_Tot_abs_Q>  (349) 
0

>  <s_lp_Force_Field>  (349) 
OPLS3e

>  <r_lp_Energy>  (349) 
155.287

>  <b_lp_Chiralities_Consistent>  (349) 
1

>  <s_lp_Variant>  (349) 
98:0-1

>  <s_i_glide_gridfile>  (349) 
pfpi4k_grid

>  <i_i_glide_lignum>  (349) 
17

>  <i_i_glide_rotatable_bonds>  (349) 
5

>  <r_i_docking_score>  (349) 
-2.30128

>  <r_i_glide_ligand_efficiency>  (349) 
-0.0742349

>  <r_i_glide_ligand_efficiency_sa>  (349) 
-0.2332

>  <r_i_glide_ligand_efficiency_ln>  (349) 
-0.519009

>  <r_i_glide_gscore>  (349) 
-2.30128

>  <r_i_glide_lipo>  (349) 
-0.222895

>  <r_i_glide_hbond>  (349) 
-0.239198

>  <r_i_glide_metal>  (349) 
-0

>  <r_i_glide_rewards>  (349) 
-0.446143

>  <r_i_glide_evdw>  (349) 
-10.3993

>  <r_i_glide_ecoul>  (349) 
-5.72544

>  <r_i_glide_erotb>  (349) 
0

>  <r_i_glide_esite>  (349) 
-0.0142648

>  <r_i_glide_emodel>  (349) 
-18.3661

>  <r_i_glide_energy>  (349) 
-16.1247

>  <r_i_glide_einternal>  (349) 
2.15402

>  <r_i_glide_intrahb_reward>  (349) 
-0

>  <i_i_glide_confnum>  (349) 
1

>  <i_i_glide_posenum>  (349) 
35

>  <r_i_glide_eff_state_penalty>  (349) 
0

>  <ligand_id>  (349) 
98

>  <original_smiles>  (349) 
COC1CC2CC(C)(O)C(C)=C3CC(O)C2C2(C)C4OC5(O)CC(C)(O)C(CC31)C5C42

>  <smiles>  (349) 
[H]OC1([H])C([H])([H])C2=C(C([H])([H])[H])C(O[H])(C([H])([H])[H])C([H])([H])C3([H])C([H])([H])C([H])(OC([H])([H])[H])C2([H])C([H])([H])C2([H])C4([H])C(O[H])(OC5([H])C4([H])C5(C([H])([H])[H])C13[H])C([H])([H])C2(O[H])C([H])([H])[H]

$$$$
98:0:2
     RDKit          3D

 69 74  0  0  1  0  0  0  0  0999 V2000
    1.3226   -4.4262   -1.1512 C   0  0  0  0  0  0  0  0  0  0  0  0
    1.6929   -5.3776   -0.1182 O   0  0  0  0  0  0  0  0  0  0  0  0
    2.8475   -5.0865    0.6871 C   0  0  2  0  0  0  0  0  0  0  0  0
    3.2990   -6.4267    1.3079 C   0  0  0  0  0  0  0  0  0  0  0  0
    4.0519   -6.4710    2.6790 C   0  0  2  0  0  0  0  0  0  0  0  0
    3.0519   -6.7284    3.8429 C   0  0  0  0  0  0  0  0  0  0  0  0
    1.7211   -5.9097    3.9689 C   0  0  1  0  0  0  0  0  0  0  0  0
    0.5750   -6.2369    2.9906 C   0  0  0  0  0  0  0  0  0  0  0  0
    1.1755   -6.4050    5.1795 O   0  0  0  0  0  0  0  0  0  0  0  0
    2.0828   -4.4142    4.0797 C   0  0  0  0  0  0  0  0  0  0  0  0
    2.0690   -3.9363    5.5431 C   0  0  0  0  0  0  0  0  0  0  0  0
    2.8529   -3.8332    3.1354 C   0  0  0  0  0  0  0  0  0  0  0  0
    4.1351   -3.1922    3.5946 C   0  0  0  0  0  0  0  0  0  0  0  0
    5.2584   -4.2584    3.7655 C   0  0  1  0  0  0  0  0  0  0  0  0
    5.2423   -4.6575    5.1189 O   0  0  0  0  0  0  0  0  0  0  0  0
    5.3650   -5.5763    2.8790 C   0  0  2  0  0  0  0  0  0  0  0  0
    6.2435   -5.4862    1.5916 C   0  0  2  0  0  0  0  0  0  0  0  0
    6.7127   -6.8504    1.1247 C   0  0  0  0  0  0  0  0  0  0  0  0
    7.3407   -4.4654    1.1795 C   0  0  2  0  0  0  0  0  0  0  0  0
    7.6379   -3.7110   -0.0242 O   0  0  0  0  0  0  0  0  0  0  0  0
    6.8449   -2.5426   -0.0345 C   0  0  1  0  0  0  0  0  0  0  0  0
    7.5078   -1.4074    0.4904 O   0  0  0  0  0  0  0  0  0  0  0  0
    6.2628   -2.2324   -1.4405 C   0  0  0  0  0  0  0  0  0  0  0  0
    4.7294   -2.2023   -1.2812 C   0  0  1  0  0  0  0  0  0  0  0  0
    4.0513   -1.0062   -1.9886 C   0  0  0  0  0  0  0  0  0  0  0  0
    4.2905   -3.3467   -1.9577 O   0  0  0  0  0  0  0  0  0  0  0  0
    4.4667   -2.2358    0.2554 C   0  0  1  0  0  0  0  0  0  0  0  0
    3.0324   -2.4730    0.8419 C   0  0  0  0  0  0  0  0  0  0  0  0
    2.6306   -3.8268    1.5895 C   0  0  1  0  0  0  0  0  0  0  0  0
    5.6991   -2.9430    0.8240 C   0  0  1  0  0  0  0  0  0  0  0  0
    5.8919   -4.3974    0.6721 C   0  0  2  0  0  0  0  0  0  0  0  0
    0.4420   -4.8045   -1.6649 H   0  0  0  0  0  0  0  0  0  0  0  0
    2.0714   -4.2848   -1.8976 H   0  0  0  0  0  0  0  0  0  0  0  0
    1.0715   -3.4575   -0.7681 H   0  0  0  0  0  0  0  0  0  0  0  0
    3.6107   -4.8541   -0.0377 H   0  0  0  0  0  0  0  0  0  0  0  0
    2.4505   -7.1063    1.3860 H   0  0  0  0  0  0  0  0  0  0  0  0
    3.8947   -6.9266    0.5490 H   0  0  0  0  0  0  0  0  0  0  0  0
    4.5146   -7.4606    2.6270 H   0  0  0  0  0  0  0  0  0  0  0  0
    2.7706   -7.7818    3.7946 H   0  0  0  0  0  0  0  0  0  0  0  0
    3.6063   -6.6579    4.7807 H   0  0  0  0  0  0  0  0  0  0  0  0
    0.6910   -5.7919    2.0152 H   0  0  0  0  0  0  0  0  0  0  0  0
   -0.3738   -5.8770    3.3830 H   0  0  0  0  0  0  0  0  0  0  0  0
    0.4741   -7.3152    2.8394 H   0  0  0  0  0  0  0  0  0  0  0  0
    1.1197   -7.3486    5.1278 H   0  0  0  0  0  0  0  0  0  0  0  0
    1.0676   -4.0182    5.9659 H   0  0  0  0  0  0  0  0  0  0  0  0
    2.3114   -2.8745    5.6456 H   0  0  0  0  0  0  0  0  0  0  0  0
    2.7480   -4.5082    6.1796 H   0  0  0  0  0  0  0  0  0  0  0  0
    4.3644   -2.3409    2.9710 H   0  0  0  0  0  0  0  0  0  0  0  0
    4.0278   -2.6583    4.5350 H   0  0  0  0  0  0  0  0  0  0  0  0
    6.1977   -3.7304    3.7083 H   0  0  0  0  0  0  0  0  0  0  0  0
    4.4425   -5.1305    5.2766 H   0  0  0  0  0  0  0  0  0  0  0  0
    5.9951   -6.2045    3.5144 H   0  0  0  0  0  0  0  0  0  0  0  0
    7.3729   -6.7018    0.2690 H   0  0  0  0  0  0  0  0  0  0  0  0
    5.8958   -7.5157    0.8477 H   0  0  0  0  0  0  0  0  0  0  0  0
    7.3091   -7.3531    1.8858 H   0  0  0  0  0  0  0  0  0  0  0  0
    7.6900   -3.9011    2.0313 H   0  0  0  0  0  0  0  0  0  0  0  0
    7.5417   -1.5062    1.4228 H   0  0  0  0  0  0  0  0  0  0  0  0
    6.5961   -1.2662   -1.7793 H   0  0  0  0  0  0  0  0  0  0  0  0
    6.5989   -2.9788   -2.1701 H   0  0  0  0  0  0  0  0  0  0  0  0
    4.3964   -0.0631   -1.5735 H   0  0  0  0  0  0  0  0  0  0  0  0
    2.9664   -1.0357   -1.8891 H   0  0  0  0  0  0  0  0  0  0  0  0
    4.2698   -0.9980   -3.0561 H   0  0  0  0  0  0  0  0  0  0  0  0
    3.3510   -3.3624   -1.8956 H   0  0  0  0  0  0  0  0  0  0  0  0
    4.6409   -1.2037    0.5450 H   0  0  0  0  0  0  0  0  0  0  0  0
    2.7867   -1.6508    1.5408 H   0  0  0  0  0  0  0  0  0  0  0  0
    2.3934   -2.2596    0.0053 H   0  0  0  0  0  0  0  0  0  0  0  0
    1.5581   -3.7490    1.6849 H   0  0  0  0  0  0  0  0  0  0  0  0
    5.9410   -2.6035    1.8336 H   0  0  0  0  0  0  0  0  0  0  0  0
    5.7110   -4.7956   -0.3462 H   0  0  0  0  0  0  0  0  0  0  0  0
  1  2  1  0
  1 32  1  0
  1 33  1  0
  1 34  1  0
  2  3  1  0
  3 29  1  0
  3  4  1  0
  3 35  1  6
  4  5  1  0
  4 36  1  0
  4 37  1  0
  5 16  1  0
  5  6  1  0
  5 38  1  6
  6  7  1  0
  6 39  1  0
  6 40  1  0
  7  8  1  0
  7  9  1  1
  7 10  1  0
  8 41  1  0
  8 42  1  0
  8 43  1  0
  9 44  1  0
 10 11  1  0
 10 12  2  3
 11 45  1  0
 11 46  1  0
 11 47  1  0
 12 29  1  0
 12 13  1  0
 13 14  1  0
 13 48  1  0
 13 49  1  0
 14 15  1  0
 14 16  1  0
 14 50  1  1
 15 51  1  0
 16 17  1  0
 16 52  1  1
 17 31  1  0
 17 18  1  6
 17 19  1  0
 18 53  1  0
 18 54  1  0
 18 55  1  0
 19 31  1  0
 19 20  1  0
 19 56  1  1
 20 21  1  0
 21 30  1  0
 21 22  1  1
 21 23  1  0
 22 57  1  0
 23 24  1  0
 23 58  1  0
 23 59  1  0
 24 25  1  0
 24 26  1  6
 24 27  1  0
 25 60  1  0
 25 61  1  0
 25 62  1  0
 26 63  1  0
 27 28  1  0
 27 30  1  0
 27 64  1  1
 28 29  1  0
 28 65  1  0
 28 66  1  0
 29 67  1  1
 30 31  1  0
 30 68  1  1
 31 69  1  6
M  END
>  <i_m_ct_stereo_status>  (350) 
1

>  <s_m_source_file>  (350) 
/var/tmp/pbs.5076255.sched01/tmp7b2cfgi2/13234zcpj2x.sdf

>  <i_m_source_file_index>  (350) 
17

>  <i_lp_mmshare_version>  (350) 
48012

>  <i_f3d_flags>  (350) 
0

>  <s_epik_input>  (350) 
W0NIM11bQ0BAXTEyW0NAQEhdM1tDQEBIXTRbQ0gyXVtDQEBIXShPW0NIM10pW0NAQEhdKEMoPUMoW0NIM10pXFtDQF0oW0NIMl00KShbQ0gzXSlbT0hdKVxbQ0gyXVtDQEhdM1tPSF0pW0NIMl1bQ0BIXTVbQ0BASF02W0NAQF0oW09IXSkoT1tDQEhdMVtDQEBIXTI2KVtDSDJdW0NAQF01KFtDSDNdKVtPSF0=

>  <s_epik_cmdline>  (350) 
J2VwaWtfcHl0aG9uJywgJy1waHQnLCAnMi4wJywgJy1waCcsICc3LjAnLCAnLXRuJywgJzgnLCAnLW1hJywgJzIwMCcsICctaW1hZScsICc8aW5maWxlLm1hZT4nLCAnLW9tYWUnLCAnPG91dGZpbGUubWFlPic=

>  <r_lp_tautomer_probability>  (350) 
1

>  <r_epik_Ionization_Penalty>  (350) 
7.49814e-07

>  <r_epik_Ionization_Penalty_Charging>  (350) 
0

>  <r_epik_Ionization_Penalty_Neutral>  (350) 
7.49814e-07

>  <r_epik_State_Penalty>  (350) 
-0

>  <r_epik_Charging_Adjusted_Penalty>  (350) 
0

>  <i_epik_Tot_Q>  (350) 
0

>  <i_epik_Tot_abs_Q>  (350) 
0

>  <s_lp_Force_Field>  (350) 
OPLS3e

>  <r_lp_Energy>  (350) 
155.287

>  <b_lp_Chiralities_Consistent>  (350) 
1

>  <s_lp_Variant>  (350) 
98:0-1

>  <s_i_glide_gridfile>  (350) 
pfpi4k_grid

>  <i_i_glide_lignum>  (350) 
17

>  <i_i_glide_rotatable_bonds>  (350) 
5

>  <r_i_docking_score>  (350) 
-2.22561

>  <r_i_glide_ligand_efficiency>  (350) 
-0.0717937

>  <r_i_glide_ligand_efficiency_sa>  (350) 
-0.225531

>  <r_i_glide_ligand_efficiency_ln>  (350) 
-0.501942

>  <r_i_glide_gscore>  (350) 
-2.22561

>  <r_i_glide_lipo>  (350) 
-0.48673

>  <r_i_glide_hbond>  (350) 
-0.0861296

>  <r_i_glide_metal>  (350) 
-0

>  <r_i_glide_rewards>  (350) 
-0.486847

>  <r_i_glide_evdw>  (350) 
-13.8472

>  <r_i_glide_ecoul>  (350) 
-3.15692

>  <r_i_glide_erotb>  (350) 
0

>  <r_i_glide_esite>  (350) 
0

>  <r_i_glide_emodel>  (350) 
-17.2945

>  <r_i_glide_energy>  (350) 
-17.0041

>  <r_i_glide_einternal>  (350) 
4.78924

>  <r_i_glide_intrahb_reward>  (350) 
-0

>  <i_i_glide_confnum>  (350) 
2

>  <i_i_glide_posenum>  (350) 
7

>  <r_i_glide_eff_state_penalty>  (350) 
0

>  <ligand_id>  (350) 
98

>  <original_smiles>  (350) 
COC1CC2CC(C)(O)C(C)=C3CC(O)C2C2(C)C4OC5(O)CC(C)(O)C(CC31)C5C42

>  <smiles>  (350) 
[H]OC1([H])C([H])([H])C2=C(C([H])([H])[H])C(O[H])(C([H])([H])[H])C([H])([H])C3([H])C([H])([H])C([H])(OC([H])([H])[H])C2([H])C([H])([H])C2([H])C4([H])C(O[H])(OC5([H])C4([H])C5(C([H])([H])[H])C13[H])C([H])([H])C2(O[H])C([H])([H])[H]

$$$$
99:0:0
     RDKit          3D

 28 30  0  0  1  0  0  0  0  0999 V2000
    4.2164   -1.3761   -4.3963 O   0  0  0  0  0  0  0  0  0  0  0  0
    4.2071   -2.4630   -3.7744 C   0  0  0  0  0  0  0  0  0  0  0  0
    4.0479   -3.5749   -4.3203 O   0  0  0  0  0  0  0  0  0  0  0  0
    4.4566   -2.4640   -2.2488 C   0  0  1  0  0  0  0  0  0  0  0  0
    4.8495   -1.0523   -1.7439 C   0  0  0  0  0  0  0  0  0  0  0  0
    5.0926   -1.0779   -0.2234 C   0  0  2  0  0  0  0  0  0  0  0  0
    6.2327   -2.0609    0.1095 C   0  0  0  0  0  0  0  0  0  0  0  0
    5.8461   -3.4734   -0.3843 C   0  0  1  0  0  0  0  0  0  0  0  0
    4.5550   -3.9332    0.3275 C   0  0  0  0  0  0  0  0  0  0  0  0
    3.4157   -2.9417    0.0088 C   0  0  1  0  0  0  0  0  0  0  0  0
    3.7969   -1.5250    0.4850 C   0  0  0  0  0  0  0  0  0  0  0  0
    3.1699   -2.9183   -1.5144 C   0  0  0  0  0  0  0  0  0  0  0  0
    5.6059   -3.4480   -1.9067 C   0  0  0  0  0  0  0  0  0  0  0  0
    5.7497   -0.7056   -2.2507 H   0  0  0  0  0  0  0  0  0  0  0  0
    4.0653   -0.3262   -1.9727 H   0  0  0  0  0  0  0  0  0  0  0  0
    5.3605   -0.0791    0.1190 H   0  0  0  0  0  0  0  0  0  0  0  0
    7.1585   -1.7466   -0.3686 H   0  0  0  0  0  0  0  0  0  0  0  0
    6.4254   -2.0725    1.1843 H   0  0  0  0  0  0  0  0  0  0  0  0
    6.6516   -4.1713   -0.1532 H   0  0  0  0  0  0  0  0  0  0  0  0
    4.2818   -4.9340   -0.0107 H   0  0  0  0  0  0  0  0  0  0  0  0
    4.7189   -4.0011    1.4058 H   0  0  0  0  0  0  0  0  0  0  0  0
    2.5065   -3.2591    0.5182 H   0  0  0  0  0  0  0  0  0  0  0  0
    3.9172   -1.4960    1.5692 H   0  0  0  0  0  0  0  0  0  0  0  0
    2.9911   -0.8252    0.2405 H   0  0  0  0  0  0  0  0  0  0  0  0
    2.3389   -2.2548   -1.7549 H   0  0  0  0  0  0  0  0  0  0  0  0
    2.8612   -3.9049   -1.8537 H   0  0  0  0  0  0  0  0  0  0  0  0
    5.3625   -4.4551   -2.2526 H   0  0  0  0  0  0  0  0  0  0  0  0
    6.5210   -3.1613   -2.4299 H   0  0  0  0  0  0  0  0  0  0  0  0
  1  2  2  0
  2  3  1  0
  4  2  1  6
  4 12  1  0
  4 13  1  0
  4  5  1  0
  5  6  1  0
  5 14  1  0
  5 15  1  0
  6 11  1  0
  6  7  1  0
  6 16  1  1
  7  8  1  0
  7 17  1  0
  7 18  1  0
  8  9  1  0
  8 13  1  0
  8 19  1  6
  9 10  1  0
  9 20  1  0
  9 21  1  0
 10 11  1  0
 10 12  1  0
 10 22  1  1
 11 23  1  0
 11 24  1  0
 12 25  1  0
 12 26  1  0
 13 27  1  0
 13 28  1  0
M  CHG  1   3  -1
M  END
>  <i_m_ct_stereo_status>  (351) 
1

>  <s_m_source_file>  (351) 
/var/tmp/pbs.5076255.sched01/tmp7b2cfgi2/13234zcpj2x.sdf

>  <i_m_source_file_index>  (351) 
18

>  <i_lp_mmshare_version>  (351) 
48012

>  <i_f3d_flags>  (351) 
0

>  <s_epik_input>  (351) 
Tz1DKFtPSF0pQzEyW0NIMl1bQ0BIXTNbQ0gyXVtDQEBIXShbQ0gyXTIpW0NIMl1bQ0BIXShbQ0gyXTMpW0NIMl0x

>  <s_epik_cmdline>  (351) 
J2VwaWtfcHl0aG9uJywgJy1waHQnLCAnMi4wJywgJy1waCcsICc3LjAnLCAnLXRuJywgJzgnLCAnLW1hJywgJzIwMCcsICctaW1hZScsICc8aW5maWxlLm1hZT4nLCAnLW9tYWUnLCAnPG91dGZpbGUubWFlPic=

>  <r_epik_Ionization_Penalty>  (351) 
0.00908834

>  <r_epik_Ionization_Penalty_Charging>  (351) 
0.00908834

>  <r_epik_Ionization_Penalty_Neutral>  (351) 
0

>  <r_epik_State_Penalty>  (351) 
0.00688369

>  <r_epik_Charging_Adjusted_Penalty>  (351) 
0.015972

>  <i_epik_Tot_Q>  (351) 
-1

>  <i_epik_Tot_abs_Q>  (351) 
1

>  <s_lp_Force_Field>  (351) 
OPLS3e

>  <r_lp_Energy>  (351) 
11.5398

>  <b_lp_Chiralities_Consistent>  (351) 
1

>  <s_lp_Variant>  (351) 
99:0-1

>  <s_i_glide_gridfile>  (351) 
pfpi4k_grid

>  <i_i_glide_lignum>  (351) 
18

>  <i_i_glide_rotatable_bonds>  (351) 
1

>  <r_i_docking_score>  (351) 
-4.10531

>  <r_i_glide_ligand_efficiency>  (351) 
-0.315793

>  <r_i_glide_ligand_efficiency_sa>  (351) 
-0.742535

>  <r_i_glide_ligand_efficiency_ln>  (351) 
-1.15158

>  <r_i_glide_gscore>  (351) 
-4.10531

>  <r_i_glide_lipo>  (351) 
-0.318888

>  <r_i_glide_hbond>  (351) 
-0.216446

>  <r_i_glide_metal>  (351) 
-0

>  <r_i_glide_rewards>  (351) 
-2.32988

>  <r_i_glide_evdw>  (351) 
-18.2154

>  <r_i_glide_ecoul>  (351) 
-2.19554

>  <r_i_glide_erotb>  (351) 
0

>  <r_i_glide_esite>  (351) 
0

>  <r_i_glide_emodel>  (351) 
-27.2155

>  <r_i_glide_energy>  (351) 
-20.4109

>  <r_i_glide_einternal>  (351) 
0.0834632

>  <r_i_glide_intrahb_reward>  (351) 
-0

>  <i_i_glide_confnum>  (351) 
2

>  <i_i_glide_posenum>  (351) 
1

>  <r_i_glide_eff_state_penalty>  (351) 
0

>  <ligand_id>  (351) 
99

>  <original_smiles>  (351) 
O=C(O)C12CC3CC(CC(C3)C1)C2

>  <smiles>  (351) 
[H]C1([H])C2([H])C([H])([H])C3([H])C([H])([H])C1([H])C([H])([H])C(C(=O)[O-])(C2([H])[H])C3([H])[H]

$$$$
99:0:1
     RDKit          3D

 28 30  0  0  1  0  0  0  0  0999 V2000
    1.3581   -5.8172    0.1235 O   0  0  0  0  0  0  0  0  0  0  0  0
    2.2169   -5.4527    0.9619 C   0  0  0  0  0  0  0  0  0  0  0  0
    2.2607   -5.8881    2.1319 O   0  0  0  0  0  0  0  0  0  0  0  0
    3.2426   -4.3584    0.5649 C   0  0  1  0  0  0  0  0  0  0  0  0
    2.7810   -3.5598   -0.6881 C   0  0  0  0  0  0  0  0  0  0  0  0
    3.8422   -2.5001   -1.0634 C   0  0  2  0  0  0  0  0  0  0  0  0
    5.1832   -3.1979   -1.3770 C   0  0  0  0  0  0  0  0  0  0  0  0
    5.6528   -3.9752   -0.1285 C   0  0  1  0  0  0  0  0  0  0  0  0
    5.8476   -2.9989    1.0467 C   0  0  0  0  0  0  0  0  0  0  0  0
    4.5083   -2.2953    1.3495 C   0  0  1  0  0  0  0  0  0  0  0  0
    4.0217   -1.5169    0.1090 C   0  0  0  0  0  0  0  0  0  0  0  0
    3.4540   -3.3550    1.7381 C   0  0  0  0  0  0  0  0  0  0  0  0
    4.5979   -5.0431    0.2457 C   0  0  0  0  0  0  0  0  0  0  0  0
    2.6214   -4.2369   -1.5285 H   0  0  0  0  0  0  0  0  0  0  0  0
    1.8289   -3.0609   -0.5006 H   0  0  0  0  0  0  0  0  0  0  0  0
    3.5036   -1.9484   -1.9411 H   0  0  0  0  0  0  0  0  0  0  0  0
    5.0630   -3.8808   -2.2190 H   0  0  0  0  0  0  0  0  0  0  0  0
    5.9347   -2.4660   -1.6734 H   0  0  0  0  0  0  0  0  0  0  0  0
    6.6024   -4.4681   -0.3335 H   0  0  0  0  0  0  0  0  0  0  0  0
    6.1903   -3.5430    1.9298 H   0  0  0  0  0  0  0  0  0  0  0  0
    6.6209   -2.2685    0.8093 H   0  0  0  0  0  0  0  0  0  0  0  0
    4.6466   -1.6018    2.1787 H   0  0  0  0  0  0  0  0  0  0  0  0
    4.7274   -0.7283   -0.1486 H   0  0  0  0  0  0  0  0  0  0  0  0
    3.0747   -1.0242    0.3255 H   0  0  0  0  0  0  0  0  0  0  0  0
    2.5147   -2.8635    1.9946 H   0  0  0  0  0  0  0  0  0  0  0  0
    3.7857   -3.8722    2.6408 H   0  0  0  0  0  0  0  0  0  0  0  0
    4.9427   -5.6193    1.1067 H   0  0  0  0  0  0  0  0  0  0  0  0
    4.4821   -5.7569   -0.5742 H   0  0  0  0  0  0  0  0  0  0  0  0
  1  2  2  0
  2  3  1  0
  4  2  1  1
  4 12  1  0
  4 13  1  0
  4  5  1  0
  5  6  1  0
  5 14  1  0
  5 15  1  0
  6 11  1  0
  6  7  1  0
  6 16  1  6
  7  8  1  0
  7 17  1  0
  7 18  1  0
  8  9  1  0
  8 13  1  0
  8 19  1  6
  9 10  1  0
  9 20  1  0
  9 21  1  0
 10 11  1  0
 10 12  1  0
 10 22  1  1
 11 23  1  0
 11 24  1  0
 12 25  1  0
 12 26  1  0
 13 27  1  0
 13 28  1  0
M  CHG  1   3  -1
M  END
>  <i_m_ct_stereo_status>  (352) 
1

>  <s_m_source_file>  (352) 
/var/tmp/pbs.5076255.sched01/tmp7b2cfgi2/13234zcpj2x.sdf

>  <i_m_source_file_index>  (352) 
18

>  <i_lp_mmshare_version>  (352) 
48012

>  <i_f3d_flags>  (352) 
0

>  <s_epik_input>  (352) 
Tz1DKFtPSF0pQzEyW0NIMl1bQ0BIXTNbQ0gyXVtDQEBIXShbQ0gyXTIpW0NIMl1bQ0BIXShbQ0gyXTMpW0NIMl0x

>  <s_epik_cmdline>  (352) 
J2VwaWtfcHl0aG9uJywgJy1waHQnLCAnMi4wJywgJy1waCcsICc3LjAnLCAnLXRuJywgJzgnLCAnLW1hJywgJzIwMCcsICctaW1hZScsICc8aW5maWxlLm1hZT4nLCAnLW9tYWUnLCAnPG91dGZpbGUubWFlPic=

>  <r_epik_Ionization_Penalty>  (352) 
0.00908834

>  <r_epik_Ionization_Penalty_Charging>  (352) 
0.00908834

>  <r_epik_Ionization_Penalty_Neutral>  (352) 
0

>  <r_epik_State_Penalty>  (352) 
0.00688369

>  <r_epik_Charging_Adjusted_Penalty>  (352) 
0.015972

>  <i_epik_Tot_Q>  (352) 
-1

>  <i_epik_Tot_abs_Q>  (352) 
1

>  <s_lp_Force_Field>  (352) 
OPLS3e

>  <r_lp_Energy>  (352) 
11.5398

>  <b_lp_Chiralities_Consistent>  (352) 
1

>  <s_lp_Variant>  (352) 
99:0-1

>  <s_i_glide_gridfile>  (352) 
pfpi4k_grid

>  <i_i_glide_lignum>  (352) 
18

>  <i_i_glide_rotatable_bonds>  (352) 
1

>  <r_i_docking_score>  (352) 
-3.66956

>  <r_i_glide_ligand_efficiency>  (352) 
-0.282274

>  <r_i_glide_ligand_efficiency_sa>  (352) 
-0.66372

>  <r_i_glide_ligand_efficiency_ln>  (352) 
-1.02934

>  <r_i_glide_gscore>  (352) 
-3.66956

>  <r_i_glide_lipo>  (352) 
-0.256137

>  <r_i_glide_hbond>  (352) 
-0.223665

>  <r_i_glide_metal>  (352) 
-0

>  <r_i_glide_rewards>  (352) 
-2.18703

>  <r_i_glide_evdw>  (352) 
-13.9337

>  <r_i_glide_ecoul>  (352) 
-1.73299

>  <r_i_glide_erotb>  (352) 
0

>  <r_i_glide_esite>  (352) 
-0.0460976

>  <r_i_glide_emodel>  (352) 
-21.7796

>  <r_i_glide_energy>  (352) 
-15.6667

>  <r_i_glide_einternal>  (352) 
0.0195285

>  <r_i_glide_intrahb_reward>  (352) 
-0

>  <i_i_glide_confnum>  (352) 
2

>  <i_i_glide_posenum>  (352) 
7

>  <r_i_glide_eff_state_penalty>  (352) 
0

>  <ligand_id>  (352) 
99

>  <original_smiles>  (352) 
O=C(O)C12CC3CC(CC(C3)C1)C2

>  <smiles>  (352) 
[H]C1([H])C2([H])C([H])([H])C3([H])C([H])([H])C1([H])C([H])([H])C(C(=O)[O-])(C2([H])[H])C3([H])[H]

$$$$
99:0:2
     RDKit          3D

 28 30  0  0  1  0  0  0  0  0999 V2000
    1.8180   -5.1193    0.1568 O   0  0  0  0  0  0  0  0  0  0  0  0
    2.6234   -4.2567    0.5813 C   0  0  0  0  0  0  0  0  0  0  0  0
    2.7921   -4.0042    1.7922 O   0  0  0  0  0  0  0  0  0  0  0  0
    3.4356   -3.4372   -0.4583 C   0  0  1  0  0  0  0  0  0  0  0  0
    4.7654   -4.1821   -0.7485 C   0  0  0  0  0  0  0  0  0  0  0  0
    5.5850   -3.3866   -1.7891 C   0  0  2  0  0  0  0  0  0  0  0  0
    5.9139   -1.9994   -1.2289 C   0  0  0  0  0  0  0  0  0  0  0  0
    4.6073   -1.2416   -0.9576 C   0  0  1  0  0  0  0  0  0  0  0  0
    3.8096   -1.1064   -2.2708 C   0  0  0  0  0  0  0  0  0  0  0  0
    3.4854   -2.4988   -2.8270 C   0  0  1  0  0  0  0  0  0  0  0  0
    4.7848   -3.2716   -3.1016 C   0  0  0  0  0  0  0  0  0  0  0  0
    2.6422   -3.2658   -1.7897 C   0  0  0  0  0  0  0  0  0  0  0  0
    3.7808   -2.0191    0.0877 C   0  0  0  0  0  0  0  0  0  0  0  0
    5.3413   -4.3086    0.1698 H   0  0  0  0  0  0  0  0  0  0  0  0
    4.5664   -5.1905   -1.1159 H   0  0  0  0  0  0  0  0  0  0  0  0
    6.5413   -3.8546   -2.0020 H   0  0  0  0  0  0  0  0  0  0  0  0
    6.5023   -2.0922   -0.3144 H   0  0  0  0  0  0  0  0  0  0  0  0
    6.5242   -1.4588   -1.9416 H   0  0  0  0  0  0  0  0  0  0  0  0
    4.8440   -0.2535   -0.5601 H   0  0  0  0  0  0  0  0  0  0  0  0
    2.8603   -0.6112   -2.0835 H   0  0  0  0  0  0  0  0  0  0  0  0
    4.3557   -0.5012   -2.9926 H   0  0  0  0  0  0  0  0  0  0  0  0
    2.9120   -2.3942   -3.7482 H   0  0  0  0  0  0  0  0  0  0  0  0
    5.3689   -2.7650   -3.8622 H   0  0  0  0  0  0  0  0  0  0  0  0
    4.5501   -4.2614   -3.4913 H   0  0  0  0  0  0  0  0  0  0  0  0
    2.3288   -4.2261   -2.1952 H   0  0  0  0  0  0  0  0  0  0  0  0
    1.7136   -2.7277   -1.6135 H   0  0  0  0  0  0  0  0  0  0  0  0
    2.8679   -1.4649    0.3238 H   0  0  0  0  0  0  0  0  0  0  0  0
    4.3485   -2.0797    1.0205 H   0  0  0  0  0  0  0  0  0  0  0  0
  1  2  2  0
  2  3  1  0
  4  2  1  1
  4 12  1  0
  4 13  1  0
  4  5  1  0
  5  6  1  0
  5 14  1  0
  5 15  1  0
  6 11  1  0
  6  7  1  0
  6 16  1  6
  7  8  1  0
  7 17  1  0
  7 18  1  0
  8  9  1  0
  8 13  1  0
  8 19  1  1
  9 10  1  0
  9 20  1  0
  9 21  1  0
 10 11  1  0
 10 12  1  0
 10 22  1  6
 11 23  1  0
 11 24  1  0
 12 25  1  0
 12 26  1  0
 13 27  1  0
 13 28  1  0
M  CHG  1   3  -1
M  END
>  <i_m_ct_stereo_status>  (353) 
1

>  <s_m_source_file>  (353) 
/var/tmp/pbs.5076255.sched01/tmp7b2cfgi2/13234zcpj2x.sdf

>  <i_m_source_file_index>  (353) 
18

>  <i_lp_mmshare_version>  (353) 
48012

>  <i_f3d_flags>  (353) 
0

>  <s_epik_input>  (353) 
Tz1DKFtPSF0pQzEyW0NIMl1bQ0BIXTNbQ0gyXVtDQEBIXShbQ0gyXTIpW0NIMl1bQ0BIXShbQ0gyXTMpW0NIMl0x

>  <s_epik_cmdline>  (353) 
J2VwaWtfcHl0aG9uJywgJy1waHQnLCAnMi4wJywgJy1waCcsICc3LjAnLCAnLXRuJywgJzgnLCAnLW1hJywgJzIwMCcsICctaW1hZScsICc8aW5maWxlLm1hZT4nLCAnLW9tYWUnLCAnPG91dGZpbGUubWFlPic=

>  <r_epik_Ionization_Penalty>  (353) 
0.00908834

>  <r_epik_Ionization_Penalty_Charging>  (353) 
0.00908834

>  <r_epik_Ionization_Penalty_Neutral>  (353) 
0

>  <r_epik_State_Penalty>  (353) 
0.00688369

>  <r_epik_Charging_Adjusted_Penalty>  (353) 
0.015972

>  <i_epik_Tot_Q>  (353) 
-1

>  <i_epik_Tot_abs_Q>  (353) 
1

>  <s_lp_Force_Field>  (353) 
OPLS3e

>  <r_lp_Energy>  (353) 
11.5398

>  <b_lp_Chiralities_Consistent>  (353) 
1

>  <s_lp_Variant>  (353) 
99:0-1

>  <s_i_glide_gridfile>  (353) 
pfpi4k_grid

>  <i_i_glide_lignum>  (353) 
18

>  <i_i_glide_rotatable_bonds>  (353) 
1

>  <r_i_docking_score>  (353) 
-3.55574

>  <r_i_glide_ligand_efficiency>  (353) 
-0.273518

>  <r_i_glide_ligand_efficiency_sa>  (353) 
-0.643133

>  <r_i_glide_ligand_efficiency_ln>  (353) 
-0.997417

>  <r_i_glide_gscore>  (353) 
-3.55574

>  <r_i_glide_lipo>  (353) 
-0.476304

>  <r_i_glide_hbond>  (353) 
-0.0950698

>  <r_i_glide_metal>  (353) 
-0

>  <r_i_glide_rewards>  (353) 
-2.18703

>  <r_i_glide_evdw>  (353) 
-15.2981

>  <r_i_glide_ecoul>  (353) 
-0.0108066

>  <r_i_glide_erotb>  (353) 
0

>  <r_i_glide_esite>  (353) 
-0.0308101

>  <r_i_glide_emodel>  (353) 
-21.2065

>  <r_i_glide_energy>  (353) 
-15.3089

>  <r_i_glide_einternal>  (353) 
0.0166309

>  <r_i_glide_intrahb_reward>  (353) 
-0

>  <i_i_glide_confnum>  (353) 
1

>  <i_i_glide_posenum>  (353) 
28

>  <r_i_glide_eff_state_penalty>  (353) 
0

>  <ligand_id>  (353) 
99

>  <original_smiles>  (353) 
O=C(O)C12CC3CC(CC(C3)C1)C2

>  <smiles>  (353) 
[H]C1([H])C2([H])C([H])([H])C3([H])C([H])([H])C1([H])C([H])([H])C(C(=O)[O-])(C2([H])[H])C3([H])[H]

$$$$
99:1:0
     RDKit          3D

 29 31  0  0  1  0  0  0  0  0999 V2000
    0.6136   -5.8587    2.4326 O   0  0  0  0  0  0  0  0  0  0  0  0
    0.6143   -7.0309    2.0659 C   0  0  0  0  0  0  0  0  0  0  0  0
    0.0764   -7.4480    0.8861 O   0  0  0  0  0  0  0  0  0  0  0  0
    1.1952   -8.1690    2.9187 C   0  0  2  0  0  0  0  0  0  0  0  0
    2.2353   -8.9756    2.0913 C   0  0  0  0  0  0  0  0  0  0  0  0
    2.7996  -10.1241    2.9390 C   0  0  1  0  0  0  0  0  0  0  0  0
    3.5063   -9.5444    4.1781 C   0  0  0  0  0  0  0  0  0  0  0  0
    2.4887   -8.7578    5.0276 C   0  0  2  0  0  0  0  0  0  0  0  0
    1.3473   -9.6948    5.4714 C   0  0  0  0  0  0  0  0  0  0  0  0
    0.6453  -10.2605    4.2250 C   0  0  2  0  0  0  0  0  0  0  0  0
    1.6479  -11.0525    3.3733 C   0  0  0  0  0  0  0  0  0  0  0  0
    0.0526   -9.1131    3.3851 C   0  0  0  0  0  0  0  0  0  0  0  0
    1.9061   -7.6044    4.1891 C   0  0  0  0  0  0  0  0  0  0  0  0
    0.1715   -8.3853    0.7100 H   0  0  0  0  0  0  0  0  0  0  0  0
    1.8016   -9.4097    1.1897 H   0  0  0  0  0  0  0  0  0  0  0  0
    3.0458   -8.3230    1.7526 H   0  0  0  0  0  0  0  0  0  0  0  0
    3.5145  -10.6876    2.3402 H   0  0  0  0  0  0  0  0  0  0  0  0
    3.9473  -10.3463    4.7739 H   0  0  0  0  0  0  0  0  0  0  0  0
    4.3265   -8.8890    3.8709 H   0  0  0  0  0  0  0  0  0  0  0  0
    2.9897   -8.3559    5.9098 H   0  0  0  0  0  0  0  0  0  0  0  0
    1.7471  -10.5090    6.0779 H   0  0  0  0  0  0  0  0  0  0  0  0
    0.6357   -9.1564    6.0957 H   0  0  0  0  0  0  0  0  0  0  0  0
   -0.1473  -10.9359    4.5393 H   0  0  0  0  0  0  0  0  0  0  0  0
    1.1360  -11.4570    2.5026 H   0  0  0  0  0  0  0  0  0  0  0  0
    2.0402  -11.9006    3.9328 H   0  0  0  0  0  0  0  0  0  0  0  0
   -0.6822   -8.5695    3.9811 H   0  0  0  0  0  0  0  0  0  0  0  0
   -0.4936   -9.5303    2.5377 H   0  0  0  0  0  0  0  0  0  0  0  0
    2.7067   -6.9114    3.9113 H   0  0  0  0  0  0  0  0  0  0  0  0
    1.2111   -7.0264    4.8054 H   0  0  0  0  0  0  0  0  0  0  0  0
  1  2  2  0
  2  3  1  0
  4  2  1  6
  3 14  1  0
  4 12  1  0
  4 13  1  0
  4  5  1  0
  5  6  1  0
  5 15  1  0
  5 16  1  0
  6 11  1  0
  6  7  1  0
  6 17  1  6
  7  8  1  0
  7 18  1  0
  7 19  1  0
  8  9  1  0
  8 13  1  0
  8 20  1  1
  9 10  1  0
  9 21  1  0
  9 22  1  0
 10 11  1  0
 10 12  1  0
 10 23  1  1
 11 24  1  0
 11 25  1  0
 12 26  1  0
 12 27  1  0
 13 28  1  0
 13 29  1  0
M  END
>  <i_m_ct_stereo_status>  (354) 
1

>  <s_m_source_file>  (354) 
/var/tmp/pbs.5076255.sched01/tmp7b2cfgi2/13234zcpj2x.sdf

>  <i_m_source_file_index>  (354) 
19

>  <i_lp_mmshare_version>  (354) 
48012

>  <i_f3d_flags>  (354) 
0

>  <s_epik_input>  (354) 
Tz1DKFtPSF0pQzEyW0NIMl1bQ0BIXTNbQ0gyXVtDQEBIXShbQ0gyXTIpW0NIMl1bQ0BIXShbQ0gyXTMpW0NIMl0x

>  <s_epik_cmdline>  (354) 
J2VwaWtfcHl0aG9uJywgJy1waHQnLCAnMi4wJywgJy1waCcsICc3LjAnLCAnLXRuJywgJzgnLCAnLW1hJywgJzIwMCcsICctaW1hZScsICc8aW5maWxlLm1hZT4nLCAnLW9tYWUnLCAnPG91dGZpbGUubWFlPic=

>  <r_epik_Ionization_Penalty>  (354) 
2.47955

>  <r_epik_Ionization_Penalty_Charging>  (354) 
0

>  <r_epik_Ionization_Penalty_Neutral>  (354) 
2.47955

>  <r_epik_State_Penalty>  (354) 
2.64306

>  <r_epik_Charging_Adjusted_Penalty>  (354) 
2.64306

>  <i_epik_Tot_Q>  (354) 
0

>  <i_epik_Tot_abs_Q>  (354) 
0

>  <s_lp_Force_Field>  (354) 
OPLS3e

>  <r_lp_Energy>  (354) 
1.92064

>  <b_lp_Chiralities_Consistent>  (354) 
1

>  <s_lp_Variant>  (354) 
99:0-2

>  <s_i_glide_gridfile>  (354) 
pfpi4k_grid

>  <i_i_glide_lignum>  (354) 
19

>  <i_i_glide_rotatable_bonds>  (354) 
2

>  <r_i_docking_score>  (354) 
-4.3252

>  <r_i_glide_ligand_efficiency>  (354) 
-0.332707

>  <r_i_glide_ligand_efficiency_sa>  (354) 
-0.782307

>  <r_i_glide_ligand_efficiency_ln>  (354) 
-1.21326

>  <r_i_glide_gscore>  (354) 
-4.3252

>  <r_i_glide_lipo>  (354) 
-0.182929

>  <r_i_glide_hbond>  (354) 
-0.117682

>  <r_i_glide_metal>  (354) 
-0

>  <r_i_glide_rewards>  (354) 
-2.18016

>  <r_i_glide_evdw>  (354) 
-14.7039

>  <r_i_glide_ecoul>  (354) 
-6.94696

>  <r_i_glide_erotb>  (354) 
0

>  <r_i_glide_esite>  (354) 
-0.0671868

>  <r_i_glide_emodel>  (354) 
-27.8069

>  <r_i_glide_energy>  (354) 
-21.6509

>  <r_i_glide_einternal>  (354) 
1.27346

>  <r_i_glide_intrahb_reward>  (354) 
-0

>  <i_i_glide_confnum>  (354) 
1

>  <i_i_glide_posenum>  (354) 
16

>  <r_i_glide_eff_state_penalty>  (354) 
0

>  <ligand_id>  (354) 
99

>  <original_smiles>  (354) 
O=C(O)C12CC3CC(CC(C3)C1)C2

>  <smiles>  (354) 
[H]OC(=O)C12C([H])([H])C3([H])C([H])([H])C([H])(C([H])([H])C([H])(C3([H])[H])C1([H])[H])C2([H])[H]

$$$$
99:1:1
     RDKit          3D

 29 31  0  0  1  0  0  0  0  0999 V2000
    1.8336   -5.4912    0.4453 O   0  0  0  0  0  0  0  0  0  0  0  0
    3.0153   -5.3053    0.7406 C   0  0  0  0  0  0  0  0  0  0  0  0
    3.7397   -6.1397    1.5414 O   0  0  0  0  0  0  0  0  0  0  0  0
    3.8398   -4.0830    0.2750 C   0  0  2  0  0  0  0  0  0  0  0  0
    4.1892   -3.1816    1.4905 C   0  0  0  0  0  0  0  0  0  0  0  0
    5.0175   -1.9608    1.0348 C   0  0  1  0  0  0  0  0  0  0  0  0
    6.3256   -2.4453    0.3773 C   0  0  0  0  0  0  0  0  0  0  0  0
    5.9863   -3.3105   -0.8521 C   0  0  2  0  0  0  0  0  0  0  0  0
    5.1724   -2.4841   -1.8684 C   0  0  0  0  0  0  0  0  0  0  0  0
    3.8656   -2.0110   -1.2025 C   0  0  2  0  0  0  0  0  0  0  0  0
    4.1911   -1.1379    0.0262 C   0  0  0  0  0  0  0  0  0  0  0  0
    3.0389   -3.2342   -0.7529 C   0  0  0  0  0  0  0  0  0  0  0  0
    5.1614   -4.5381   -0.4024 C   0  0  0  0  0  0  0  0  0  0  0  0
    3.2371   -6.8918    1.8157 H   0  0  0  0  0  0  0  0  0  0  0  0
    3.2820   -2.8437    1.9939 H   0  0  0  0  0  0  0  0  0  0  0  0
    4.7566   -3.7388    2.2378 H   0  0  0  0  0  0  0  0  0  0  0  0
    5.2557   -1.3390    1.8979 H   0  0  0  0  0  0  0  0  0  0  0  0
    6.9452   -1.5963    0.0873 H   0  0  0  0  0  0  0  0  0  0  0  0
    6.9106   -3.0244    1.0934 H   0  0  0  0  0  0  0  0  0  0  0  0
    6.9102   -3.6454   -1.3209 H   0  0  0  0  0  0  0  0  0  0  0  0
    5.7547   -1.6280   -2.2141 H   0  0  0  0  0  0  0  0  0  0  0  0
    4.9488   -3.0865   -2.7506 H   0  0  0  0  0  0  0  0  0  0  0  0
    3.2813   -1.4267   -1.9153 H   0  0  0  0  0  0  0  0  0  0  0  0
    3.2668   -0.7903    0.4879 H   0  0  0  0  0  0  0  0  0  0  0  0
    4.7362   -0.2448   -0.2745 H   0  0  0  0  0  0  0  0  0  0  0  0
    2.7723   -3.8350   -1.6250 H   0  0  0  0  0  0  0  0  0  0  0  0
    2.1009   -2.8909   -0.3163 H   0  0  0  0  0  0  0  0  0  0  0  0
    5.7650   -5.1415    0.2783 H   0  0  0  0  0  0  0  0  0  0  0  0
    4.9477   -5.1765   -1.2632 H   0  0  0  0  0  0  0  0  0  0  0  0
  1  2  2  0
  2  3  1  0
  4  2  1  1
  3 14  1  0
  4 12  1  0
  4 13  1  0
  4  5  1  0
  5  6  1  0
  5 15  1  0
  5 16  1  0
  6 11  1  0
  6  7  1  0
  6 17  1  1
  7  8  1  0
  7 18  1  0
  7 19  1  0
  8  9  1  0
  8 13  1  0
  8 20  1  6
  9 10  1  0
  9 21  1  0
  9 22  1  0
 10 11  1  0
 10 12  1  0
 10 23  1  6
 11 24  1  0
 11 25  1  0
 12 26  1  0
 12 27  1  0
 13 28  1  0
 13 29  1  0
M  END
>  <i_m_ct_stereo_status>  (355) 
1

>  <s_m_source_file>  (355) 
/var/tmp/pbs.5076255.sched01/tmp7b2cfgi2/13234zcpj2x.sdf

>  <i_m_source_file_index>  (355) 
19

>  <i_lp_mmshare_version>  (355) 
48012

>  <i_f3d_flags>  (355) 
0

>  <s_epik_input>  (355) 
Tz1DKFtPSF0pQzEyW0NIMl1bQ0BIXTNbQ0gyXVtDQEBIXShbQ0gyXTIpW0NIMl1bQ0BIXShbQ0gyXTMpW0NIMl0x

>  <s_epik_cmdline>  (355) 
J2VwaWtfcHl0aG9uJywgJy1waHQnLCAnMi4wJywgJy1waCcsICc3LjAnLCAnLXRuJywgJzgnLCAnLW1hJywgJzIwMCcsICctaW1hZScsICc8aW5maWxlLm1hZT4nLCAnLW9tYWUnLCAnPG91dGZpbGUubWFlPic=

>  <r_epik_Ionization_Penalty>  (355) 
2.47955

>  <r_epik_Ionization_Penalty_Charging>  (355) 
0

>  <r_epik_Ionization_Penalty_Neutral>  (355) 
2.47955

>  <r_epik_State_Penalty>  (355) 
2.64306

>  <r_epik_Charging_Adjusted_Penalty>  (355) 
2.64306

>  <i_epik_Tot_Q>  (355) 
0

>  <i_epik_Tot_abs_Q>  (355) 
0

>  <s_lp_Force_Field>  (355) 
OPLS3e

>  <r_lp_Energy>  (355) 
1.92064

>  <b_lp_Chiralities_Consistent>  (355) 
1

>  <s_lp_Variant>  (355) 
99:0-2

>  <s_i_glide_gridfile>  (355) 
pfpi4k_grid

>  <i_i_glide_lignum>  (355) 
19

>  <i_i_glide_rotatable_bonds>  (355) 
2

>  <r_i_docking_score>  (355) 
-3.75298

>  <r_i_glide_ligand_efficiency>  (355) 
-0.288691

>  <r_i_glide_ligand_efficiency_sa>  (355) 
-0.678808

>  <r_i_glide_ligand_efficiency_ln>  (355) 
-1.05274

>  <r_i_glide_gscore>  (355) 
-3.75298

>  <r_i_glide_lipo>  (355) 
-0.299637

>  <r_i_glide_hbond>  (355) 
-0.0923522

>  <r_i_glide_metal>  (355) 
-0

>  <r_i_glide_rewards>  (355) 
-2.18016

>  <r_i_glide_evdw>  (355) 
-17.4434

>  <r_i_glide_ecoul>  (355) 
-1.91633

>  <r_i_glide_erotb>  (355) 
0

>  <r_i_glide_esite>  (355) 
-0.0212107

>  <r_i_glide_emodel>  (355) 
-25.1995

>  <r_i_glide_energy>  (355) 
-19.3597

>  <r_i_glide_einternal>  (355) 
0.124732

>  <r_i_glide_intrahb_reward>  (355) 
-0

>  <i_i_glide_confnum>  (355) 
2

>  <i_i_glide_posenum>  (355) 
22

>  <r_i_glide_eff_state_penalty>  (355) 
0

>  <ligand_id>  (355) 
99

>  <original_smiles>  (355) 
O=C(O)C12CC3CC(CC(C3)C1)C2

>  <smiles>  (355) 
[H]OC(=O)C12C([H])([H])C3([H])C([H])([H])C([H])(C([H])([H])C([H])(C3([H])[H])C1([H])[H])C2([H])[H]

$$$$
99:1:2
     RDKit          3D

 29 31  0  0  1  0  0  0  0  0999 V2000
    2.0756   -5.5177    1.7864 O   0  0  0  0  0  0  0  0  0  0  0  0
    1.4080   -6.5293    1.5671 C   0  0  0  0  0  0  0  0  0  0  0  0
    0.5997   -6.6923    0.4803 O   0  0  0  0  0  0  0  0  0  0  0  0
    1.3485   -7.7566    2.5053 C   0  0  2  0  0  0  0  0  0  0  0  0
    1.8990   -7.3860    3.9106 C   0  0  0  0  0  0  0  0  0  0  0  0
    1.8200   -8.6014    4.8539 C   0  0  1  0  0  0  0  0  0  0  0  0
    0.3498   -9.0487    4.9929 C   0  0  0  0  0  0  0  0  0  0  0  0
   -0.1847   -9.4492    3.6054 C   0  0  2  0  0  0  0  0  0  0  0  0
    0.6556  -10.6053    3.0364 C   0  0  0  0  0  0  0  0  0  0  0  0
    2.1213  -10.1451    2.8870 C   0  0  2  0  0  0  0  0  0  0  0  0
    2.6736   -9.7449    4.2703 C   0  0  0  0  0  0  0  0  0  0  0  0
    2.1961   -8.9293    1.9352 C   0  0  0  0  0  0  0  0  0  0  0  0
   -0.1246   -8.2421    2.6610 C   0  0  0  0  0  0  0  0  0  0  0  0
    0.2392   -7.5725    0.4697 H   0  0  0  0  0  0  0  0  0  0  0  0
    2.9323   -7.0418    3.8427 H   0  0  0  0  0  0  0  0  0  0  0  0
    1.3304   -6.5583    4.3344 H   0  0  0  0  0  0  0  0  0  0  0  0
    2.2094   -8.3248    5.8337 H   0  0  0  0  0  0  0  0  0  0  0  0
    0.2675   -9.8900    5.6836 H   0  0  0  0  0  0  0  0  0  0  0  0
   -0.2505   -8.2389    5.4090 H   0  0  0  0  0  0  0  0  0  0  0  0
   -1.2244   -9.7711    3.6808 H   0  0  0  0  0  0  0  0  0  0  0  0
    0.5957  -11.4748    3.6950 H   0  0  0  0  0  0  0  0  0  0  0  0
    0.2488  -10.9185    2.0762 H   0  0  0  0  0  0  0  0  0  0  0  0
    2.7171  -10.9640    2.4801 H   0  0  0  0  0  0  0  0  0  0  0  0
    3.7140   -9.4323    4.1806 H   0  0  0  0  0  0  0  0  0  0  0  0
    2.6698  -10.6009    4.9451 H   0  0  0  0  0  0  0  0  0  0  0  0
    1.8444   -9.2280    0.9470 H   0  0  0  0  0  0  0  0  0  0  0  0
    3.2373   -8.6280    1.8046 H   0  0  0  0  0  0  0  0  0  0  0  0
   -0.7533   -7.4394    3.0484 H   0  0  0  0  0  0  0  0  0  0  0  0
   -0.5679   -8.5526    1.7125 H   0  0  0  0  0  0  0  0  0  0  0  0
  1  2  2  0
  2  3  1  0
  4  2  1  6
  3 14  1  0
  4 12  1  0
  4 13  1  0
  4  5  1  0
  5  6  1  0
  5 15  1  0
  5 16  1  0
  6 11  1  0
  6  7  1  0
  6 17  1  1
  7  8  1  0
  7 18  1  0
  7 19  1  0
  8  9  1  0
  8 13  1  0
  8 20  1  1
  9 10  1  0
  9 21  1  0
  9 22  1  0
 10 11  1  0
 10 12  1  0
 10 23  1  6
 11 24  1  0
 11 25  1  0
 12 26  1  0
 12 27  1  0
 13 28  1  0
 13 29  1  0
M  END
>  <i_m_ct_stereo_status>  (356) 
1

>  <s_m_source_file>  (356) 
/var/tmp/pbs.5076255.sched01/tmp7b2cfgi2/13234zcpj2x.sdf

>  <i_m_source_file_index>  (356) 
19

>  <i_lp_mmshare_version>  (356) 
48012

>  <i_f3d_flags>  (356) 
0

>  <s_epik_input>  (356) 
Tz1DKFtPSF0pQzEyW0NIMl1bQ0BIXTNbQ0gyXVtDQEBIXShbQ0gyXTIpW0NIMl1bQ0BIXShbQ0gyXTMpW0NIMl0x

>  <s_epik_cmdline>  (356) 
J2VwaWtfcHl0aG9uJywgJy1waHQnLCAnMi4wJywgJy1waCcsICc3LjAnLCAnLXRuJywgJzgnLCAnLW1hJywgJzIwMCcsICctaW1hZScsICc8aW5maWxlLm1hZT4nLCAnLW9tYWUnLCAnPG91dGZpbGUubWFlPic=

>  <r_epik_Ionization_Penalty>  (356) 
2.47955

>  <r_epik_Ionization_Penalty_Charging>  (356) 
0

>  <r_epik_Ionization_Penalty_Neutral>  (356) 
2.47955

>  <r_epik_State_Penalty>  (356) 
2.64306

>  <r_epik_Charging_Adjusted_Penalty>  (356) 
2.64306

>  <i_epik_Tot_Q>  (356) 
0

>  <i_epik_Tot_abs_Q>  (356) 
0

>  <s_lp_Force_Field>  (356) 
OPLS3e

>  <r_lp_Energy>  (356) 
1.92064

>  <b_lp_Chiralities_Consistent>  (356) 
1

>  <s_lp_Variant>  (356) 
99:0-2

>  <s_i_glide_gridfile>  (356) 
pfpi4k_grid

>  <i_i_glide_lignum>  (356) 
19

>  <i_i_glide_rotatable_bonds>  (356) 
2

>  <r_i_docking_score>  (356) 
-3.73115

>  <r_i_glide_ligand_efficiency>  (356) 
-0.287012

>  <r_i_glide_ligand_efficiency_sa>  (356) 
-0.674861

>  <r_i_glide_ligand_efficiency_ln>  (356) 
-1.04662

>  <r_i_glide_gscore>  (356) 
-3.73115

>  <r_i_glide_lipo>  (356) 
-0.164911

>  <r_i_glide_hbond>  (356) 
0

>  <r_i_glide_metal>  (356) 
-0

>  <r_i_glide_rewards>  (356) 
-2.18016

>  <r_i_glide_evdw>  (356) 
-17.1187

>  <r_i_glide_ecoul>  (356) 
-3.16213

>  <r_i_glide_erotb>  (356) 
0

>  <r_i_glide_esite>  (356) 
-0.0558316

>  <r_i_glide_emodel>  (356) 
-25.2127

>  <r_i_glide_energy>  (356) 
-20.2808

>  <r_i_glide_einternal>  (356) 
1.69963

>  <r_i_glide_intrahb_reward>  (356) 
-0

>  <i_i_glide_confnum>  (356) 
2

>  <i_i_glide_posenum>  (356) 
25

>  <r_i_glide_eff_state_penalty>  (356) 
0

>  <ligand_id>  (356) 
99

>  <original_smiles>  (356) 
O=C(O)C12CC3CC(CC(C3)C1)C2

>  <smiles>  (356) 
[H]OC(=O)C12C([H])([H])C3([H])C([H])([H])C([H])(C([H])([H])C([H])(C3([H])[H])C1([H])[H])C2([H])[H]

$$$$
100:0:0
     RDKit          3D

 66 71  0  0  1  0  0  0  0  0999 V2000
    1.6960   -0.1004    8.8870 C   0  0  0  0  0  0  0  0  0  0  0  0
    2.1380    0.5318    7.7799 C   0  0  0  0  0  0  0  0  0  0  0  0
    3.6529    0.5729    7.5658 C   0  0  0  0  0  0  0  0  0  0  0  0
    1.2247    1.2154    6.7066 C   0  0  2  0  0  0  0  0  0  0  0  0
    1.6181    0.5963    5.3063 C   0  0  0  0  0  0  0  0  0  0  0  0
    1.3859    1.4287    4.0108 C   0  0  1  0  0  0  0  0  0  0  0  0
    0.6081    0.7179    2.8894 C   0  0  0  0  0  0  0  0  0  0  0  0
    0.9834    2.8965    4.2682 C   0  0  2  0  0  0  0  0  0  0  0  0
    1.5406    3.6724    3.2052 O   0  0  0  0  0  0  0  0  0  0  0  0
    1.8353    3.3758    5.4388 C   0  0  0  0  0  0  0  0  0  0  0  0
    1.4930    2.7811    6.8142 C   0  0  1  0  0  0  0  0  0  0  0  0
    0.5071    3.5992    7.6948 C   0  0  1  0  0  0  0  0  0  0  0  0
    0.6874    3.2744    9.1825 C   0  0  0  0  0  0  0  0  0  0  0  0
    0.0404    5.0615    7.5787 C   0  0  1  0  0  0  0  0  0  0  0  0
    0.5743    6.1096    6.6391 C   0  0  0  0  0  0  0  0  0  0  0  0
    2.0539    6.4807    6.7278 C   0  0  0  0  0  0  0  0  0  0  0  0
   -0.1751    6.7040    5.8632 O   0  0  0  0  0  0  0  0  0  0  0  0
   -0.8314    3.9209    7.0928 C   0  0  2  0  0  0  0  0  0  0  0  0
   -1.9545    3.7212    7.9262 O   0  0  0  0  0  0  0  0  0  0  0  0
   -1.2394    3.7720    5.6385 C   0  0  2  0  0  0  0  0  0  0  0  0
   -1.5503    2.3799    5.1696 C   0  0  1  0  0  0  0  0  0  0  0  0
   -2.7888    2.5177    4.4898 O   0  0  0  0  0  0  0  0  0  0  0  0
   -2.5597    2.7336    3.1137 C   0  0  1  0  0  0  0  0  0  0  0  0
   -3.7843    3.3524    2.4266 C   0  0  0  0  0  0  0  0  0  0  0  0
   -1.2339    3.4725    3.0668 C   0  0  1  0  0  0  0  0  0  0  0  0
   -1.3871    4.8676    2.8792 O   0  0  0  0  0  0  0  0  0  0  0  0
   -0.5433    3.1798    4.3922 C   0  0  2  0  0  0  0  0  0  0  0  0
   -1.4480    1.0737    5.9863 C   0  0  1  0  0  0  0  0  0  0  0  0
   -1.7856   -0.2091    5.1946 C   0  0  0  0  0  0  0  0  0  0  0  0
   -0.2778    0.8350    6.9826 C   0  0  0  0  0  0  0  0  0  0  0  0
    2.4001   -0.5508    9.5737 H   0  0  0  0  0  0  0  0  0  0  0  0
    0.6533   -0.1925    9.1545 H   0  0  0  0  0  0  0  0  0  0  0  0
    3.9897    1.4821    7.0728 H   0  0  0  0  0  0  0  0  0  0  0  0
    3.9725   -0.2749    6.9622 H   0  0  0  0  0  0  0  0  0  0  0  0
    4.1842    0.5059    8.5153 H   0  0  0  0  0  0  0  0  0  0  0  0
    2.6947    0.3971    5.2838 H   0  0  0  0  0  0  0  0  0  0  0  0
    1.1940   -0.4040    5.2088 H   0  0  0  0  0  0  0  0  0  0  0  0
    2.3854    1.4878    3.5855 H   0  0  0  0  0  0  0  0  0  0  0  0
   -0.4616    0.7155    3.0730 H   0  0  0  0  0  0  0  0  0  0  0  0
    0.9338   -0.3182    2.7584 H   0  0  0  0  0  0  0  0  0  0  0  0
    0.7590    1.2244    1.9331 H   0  0  0  0  0  0  0  0  0  0  0  0
    1.0009    3.6201    2.4176 H   0  0  0  0  0  0  0  0  0  0  0  0
    2.8575    3.0536    5.2352 H   0  0  0  0  0  0  0  0  0  0  0  0
    1.8986    4.4402    5.3974 H   0  0  0  0  0  0  0  0  0  0  0  0
    2.4243    2.9270    7.3604 H   0  0  0  0  0  0  0  0  0  0  0  0
   -0.0340    3.8155    9.7989 H   0  0  0  0  0  0  0  0  0  0  0  0
    1.6817    3.5750    9.5130 H   0  0  0  0  0  0  0  0  0  0  0  0
    0.5522    2.2216    9.4075 H   0  0  0  0  0  0  0  0  0  0  0  0
   -0.3391    5.5283    8.4817 H   0  0  0  0  0  0  0  0  0  0  0  0
    2.7106    5.6250    6.5715 H   0  0  0  0  0  0  0  0  0  0  0  0
    2.2557    6.9108    7.7089 H   0  0  0  0  0  0  0  0  0  0  0  0
    2.2956    7.2323    5.9787 H   0  0  0  0  0  0  0  0  0  0  0  0
   -1.6760    3.7610    8.8354 H   0  0  0  0  0  0  0  0  0  0  0  0
   -1.9885    4.5146    5.3821 H   0  0  0  0  0  0  0  0  0  0  0  0
   -2.3756    1.7710    2.6393 H   0  0  0  0  0  0  0  0  0  0  0  0
   -3.6640    3.4818    1.3535 H   0  0  0  0  0  0  0  0  0  0  0  0
   -4.0535    4.3136    2.8630 H   0  0  0  0  0  0  0  0  0  0  0  0
   -4.6282    2.6778    2.4912 H   0  0  0  0  0  0  0  0  0  0  0  0
   -0.6892    3.0170    2.2439 H   0  0  0  0  0  0  0  0  0  0  0  0
   -0.8036    5.1119    2.1672 H   0  0  0  0  0  0  0  0  0  0  0  0
   -2.3232    1.1667    6.6313 H   0  0  0  0  0  0  0  0  0  0  0  0
   -0.9342   -0.6402    4.6708 H   0  0  0  0  0  0  0  0  0  0  0  0
   -2.5850   -0.0404    4.4784 H   0  0  0  0  0  0  0  0  0  0  0  0
   -2.1473   -0.9902    5.8685 H   0  0  0  0  0  0  0  0  0  0  0  0
   -0.2966   -0.2434    7.1609 H   0  0  0  0  0  0  0  0  0  0  0  0
   -0.6078    1.2475    7.9294 H   0  0  0  0  0  0  0  0  0  0  0  0
  1  2  2  0
  1 31  1  0
  1 32  1  0
  2  3  1  0
  4  2  1  1
  3 33  1  0
  3 34  1  0
  3 35  1  0
  4 11  1  0
  4 30  1  0
  4  5  1  0
  5  6  1  0
  5 36  1  0
  5 37  1  0
  6  7  1  0
  6  8  1  0
  6 38  1  6
  7 39  1  0
  7 40  1  0
  7 41  1  0
 27  8  1  6
  8  9  1  6
  8 10  1  0
  9 42  1  0
 10 11  1  0
 10 43  1  0
 10 44  1  0
 11 12  1  0
 11 45  1  1
 12 18  1  0
 12 13  1  1
 12 14  1  0
 13 46  1  0
 13 47  1  0
 13 48  1  0
 14 15  1  0
 14 18  1  0
 14 49  1  1
 15 16  1  0
 15 17  2  0
 16 50  1  0
 16 51  1  0
 16 52  1  0
 18 19  1  1
 18 20  1  0
 19 53  1  0
 20 27  1  0
 20 21  1  0
 20 54  1  6
 21 27  1  0
 21 22  1  6
 21 28  1  0
 22 23  1  0
 23 24  1  0
 23 25  1  0
 23 55  1  6
 24 56  1  0
 24 57  1  0
 24 58  1  0
 25 26  1  0
 25 27  1  0
 25 59  1  6
 26 60  1  0
 28 29  1  0
 28 30  1  0
 28 61  1  1
 29 62  1  0
 29 63  1  0
 29 64  1  0
 30 65  1  0
 30 66  1  0
M  END
>  <i_m_ct_stereo_status>  (357) 
1

>  <s_m_source_file>  (357) 
/var/tmp/pbs.5076255.sched01/tmp7b2cfgi2/13234zcpj2x.sdf

>  <i_m_source_file_index>  (357) 
20

>  <i_lp_mmshare_version>  (357) 
48012

>  <i_f3d_flags>  (357) 
0

>  <s_epik_input>  (357) 
W0NIM11DKD1PKVtDQEhdMVtDQEBdKFtPSF0pKFtDQEhdMjMpW0NAQF0xKFtDSDNdKVtDQEhdKFtDSDJdNClbQ0BAXShDKD1bQ0gyXSlbQ0gzXSkoW0NIMl1bQ0BASF01W0NIM10pW0NIMl1bQ0BASF0oW0NIM10pW0NAQF00KFtPSF0pW0NAXTMoW0NAXTI1NilbQ0BIXShbT0hdKVtDQEBIXShPNilbQ0gzXQ==

>  <s_epik_cmdline>  (357) 
J2VwaWtfcHl0aG9uJywgJy1waHQnLCAnMi4wJywgJy1waCcsICc3LjAnLCAnLXRuJywgJzgnLCAnLW1hJywgJzIwMCcsICctaW1hZScsICc8aW5maWxlLm1hZT4nLCAnLW9tYWUnLCAnPG91dGZpbGUubWFlPic=

>  <r_lp_tautomer_probability>  (357) 
1

>  <r_epik_Ionization_Penalty>  (357) 
7.48903e-07

>  <r_epik_Ionization_Penalty_Charging>  (357) 
0

>  <r_epik_Ionization_Penalty_Neutral>  (357) 
7.48903e-07

>  <r_epik_State_Penalty>  (357) 
-0

>  <r_epik_Charging_Adjusted_Penalty>  (357) 
0

>  <i_epik_Tot_Q>  (357) 
0

>  <i_epik_Tot_abs_Q>  (357) 
0

>  <s_lp_Force_Field>  (357) 
OPLS3e

>  <r_lp_Energy>  (357) 
97.2525

>  <b_lp_Chiralities_Consistent>  (357) 
1

>  <s_lp_Variant>  (357) 
100:0-1

>  <s_i_glide_gridfile>  (357) 
pfpi4k_grid

>  <i_i_glide_lignum>  (357) 
20

>  <i_i_glide_rotatable_bonds>  (357) 
5

>  <r_i_docking_score>  (357) 
-3.07965

>  <r_i_glide_ligand_efficiency>  (357) 
-0.102655

>  <r_i_glide_ligand_efficiency_sa>  (357) 
-0.318972

>  <r_i_glide_ligand_efficiency_ln>  (357) 
-0.699729

>  <r_i_glide_gscore>  (357) 
-3.07965

>  <r_i_glide_lipo>  (357) 
-0.149101

>  <r_i_glide_hbond>  (357) 
-0.0322444

>  <r_i_glide_metal>  (357) 
-0

>  <r_i_glide_rewards>  (357) 
-0.568975

>  <r_i_glide_evdw>  (357) 
-17.6602

>  <r_i_glide_ecoul>  (357) 
-10.359

>  <r_i_glide_erotb>  (357) 
0.113864

>  <r_i_glide_esite>  (357) 
-0.00633366

>  <r_i_glide_emodel>  (357) 
-31.3225

>  <r_i_glide_energy>  (357) 
-28.0191

>  <r_i_glide_einternal>  (357) 
2.29928

>  <r_i_glide_intrahb_reward>  (357) 
-0

>  <i_i_glide_confnum>  (357) 
1

>  <i_i_glide_posenum>  (357) 
8

>  <r_i_glide_eff_state_penalty>  (357) 
0

>  <ligand_id>  (357) 
100

>  <original_smiles>  (357) 
C=C(C)C12CC(C)C3(O)CC1C1(C)C(C(C)=O)C1(O)C1C4(OC(C)C(O)C134)C(C)C2

>  <smiles>  (357) 
[H]OC1([H])C([H])(C([H])([H])[H])OC23C([H])(C([H])([H])[H])C([H])([H])C4(C(=C([H])[H])C([H])([H])[H])C([H])([H])C([H])(C([H])([H])[H])C5(O[H])C([H])([H])C4([H])C4(C([H])([H])[H])C([H])(C(=O)C([H])([H])[H])C4(O[H])C2([H])C153

$$$$
100:0:1
     RDKit          3D

 66 71  0  0  1  0  0  0  0  0999 V2000
   -0.9634    4.5851    7.4094 C   0  0  0  0  0  0  0  0  0  0  0  0
   -1.3639    3.4408    6.8021 C   0  0  0  0  0  0  0  0  0  0  0  0
   -2.8521    3.1057    6.8690 C   0  0  0  0  0  0  0  0  0  0  0  0
   -0.4233    2.4551    6.0408 C   0  0  2  0  0  0  0  0  0  0  0  0
   -0.9988    2.3185    4.5745 C   0  0  0  0  0  0  0  0  0  0  0  0
   -0.7169    1.0172    3.7658 C   0  0  1  0  0  0  0  0  0  0  0  0
   -0.1243    1.2188    2.3597 C   0  0  0  0  0  0  0  0  0  0  0  0
   -0.0715   -0.1052    4.6105 C   0  0  2  0  0  0  0  0  0  0  0  0
   -0.5578   -1.3373    4.0882 O   0  0  0  0  0  0  0  0  0  0  0  0
   -0.7891   -0.0852    5.9594 C   0  0  0  0  0  0  0  0  0  0  0  0
   -0.4366    1.0884    6.8705 C   0  0  1  0  0  0  0  0  0  0  0  0
    0.7167    0.8622    7.8790 C   0  0  1  0  0  0  0  0  0  0  0  0
    0.5804    1.8205    9.0723 C   0  0  0  0  0  0  0  0  0  0  0  0
    1.4378   -0.4277    8.3467 C   0  0  1  0  0  0  0  0  0  0  0  0
    1.0576   -1.8664    8.0737 C   0  0  0  0  0  0  0  0  0  0  0  0
    2.1937   -2.8435    7.7887 C   0  0  0  0  0  0  0  0  0  0  0  0
   -0.0853   -2.2865    8.2628 O   0  0  0  0  0  0  0  0  0  0  0  0
    2.0590    0.4737    7.3098 C   0  0  2  0  0  0  0  0  0  0  0  0
    3.1399    1.1759    7.8803 O   0  0  0  0  0  0  0  0  0  0  0  0
    2.3699    0.0014    5.8904 C   0  0  2  0  0  0  0  0  0  0  0  0
    2.4044    1.0472    4.8189 C   0  0  1  0  0  0  0  0  0  0  0  0
    3.5887    0.8129    4.0658 O   0  0  0  0  0  0  0  0  0  0  0  0
    3.3117   -0.0891    3.0044 C   0  0  1  0  0  0  0  0  0  0  0  0
    4.5802   -0.8343    2.5492 C   0  0  0  0  0  0  0  0  0  0  0  0
    2.1087   -0.9306    3.4677 C   0  0  1  0  0  0  0  0  0  0  0  0
    2.4833   -2.2231    3.9175 O   0  0  0  0  0  0  0  0  0  0  0  0
    1.4859   -0.1359    4.6167 C   0  0  2  0  0  0  0  0  0  0  0  0
    2.1480    2.5547    4.9857 C   0  0  1  0  0  0  0  0  0  0  0  0
    2.2381    3.3598    3.6670 C   0  0  0  0  0  0  0  0  0  0  0  0
    1.0205    3.0843    5.9157 C   0  0  0  0  0  0  0  0  0  0  0  0
   -1.6842    5.2089    7.9178 H   0  0  0  0  0  0  0  0  0  0  0  0
    0.0589    4.9267    7.4337 H   0  0  0  0  0  0  0  0  0  0  0  0
   -3.0625    2.0387    6.9095 H   0  0  0  0  0  0  0  0  0  0  0  0
   -3.3721    3.5069    5.9986 H   0  0  0  0  0  0  0  0  0  0  0  0
   -3.3104    3.5538    7.7511 H   0  0  0  0  0  0  0  0  0  0  0  0
   -2.0879    2.3666    4.6039 H   0  0  0  0  0  0  0  0  0  0  0  0
   -0.7349    3.1948    3.9862 H   0  0  0  0  0  0  0  0  0  0  0  0
   -1.7199    0.6557    3.5411 H   0  0  0  0  0  0  0  0  0  0  0  0
    0.9376    1.4300    2.3829 H   0  0  0  0  0  0  0  0  0  0  0  0
   -0.6133    2.0349    1.8296 H   0  0  0  0  0  0  0  0  0  0  0  0
   -0.2485    0.3253    1.7464 H   0  0  0  0  0  0  0  0  0  0  0  0
   -0.2653   -1.4365    3.2142 H   0  0  0  0  0  0  0  0  0  0  0  0
   -1.8559    0.0343    5.7429 H   0  0  0  0  0  0  0  0  0  0  0  0
   -0.7471   -1.0519    6.4437 H   0  0  0  0  0  0  0  0  0  0  0  0
   -1.2865    1.1148    7.5476 H   0  0  0  0  0  0  0  0  0  0  0  0
    1.4155    1.7170    9.7631 H   0  0  0  0  0  0  0  0  0  0  0  0
   -0.3285    1.6054    9.6323 H   0  0  0  0  0  0  0  0  0  0  0  0
    0.5597    2.8661    8.7838 H   0  0  0  0  0  0  0  0  0  0  0  0
    1.8652   -0.3527    9.3465 H   0  0  0  0  0  0  0  0  0  0  0  0
    2.8455   -2.8759    8.6621 H   0  0  0  0  0  0  0  0  0  0  0  0
    2.7997   -2.5795    6.9190 H   0  0  0  0  0  0  0  0  0  0  0  0
    1.8000   -3.8488    7.6328 H   0  0  0  0  0  0  0  0  0  0  0  0
    3.9163    0.6258    7.8507 H   0  0  0  0  0  0  0  0  0  0  0  0
    3.2159   -0.6790    5.8907 H   0  0  0  0  0  0  0  0  0  0  0  0
    2.9824    0.5306    2.1719 H   0  0  0  0  0  0  0  0  0  0  0  0
    4.3691   -1.4914    1.7057 H   0  0  0  0  0  0  0  0  0  0  0  0
    5.0201   -1.4317    3.3476 H   0  0  0  0  0  0  0  0  0  0  0  0
    5.3400   -0.1264    2.2167 H   0  0  0  0  0  0  0  0  0  0  0  0
    1.4314   -1.0594    2.6220 H   0  0  0  0  0  0  0  0  0  0  0  0
    2.9208   -2.6776    3.2119 H   0  0  0  0  0  0  0  0  0  0  0  0
    3.0605    2.8703    5.4966 H   0  0  0  0  0  0  0  0  0  0  0  0
    1.2960    3.4119    3.1283 H   0  0  0  0  0  0  0  0  0  0  0  0
    2.9966    2.9714    2.9905 H   0  0  0  0  0  0  0  0  0  0  0  0
    2.5195    4.3908    3.8823 H   0  0  0  0  0  0  0  0  0  0  0  0
    0.8859    4.1176    5.5914 H   0  0  0  0  0  0  0  0  0  0  0  0
    1.4665    3.1914    6.9016 H   0  0  0  0  0  0  0  0  0  0  0  0
  1  2  2  0
  1 31  1  0
  1 32  1  0
  2  3  1  0
  4  2  1  1
  3 33  1  0
  3 34  1  0
  3 35  1  0
  4 11  1  0
  4 30  1  0
  4  5  1  0
  5  6  1  0
  5 36  1  0
  5 37  1  0
  6  7  1  0
  6  8  1  0
  6 38  1  6
  7 39  1  0
  7 40  1  0
  7 41  1  0
 27  8  1  1
  8  9  1  6
  8 10  1  0
  9 42  1  0
 10 11  1  0
 10 43  1  0
 10 44  1  0
 11 12  1  0
 11 45  1  1
 12 18  1  0
 12 13  1  1
 12 14  1  0
 13 46  1  0
 13 47  1  0
 13 48  1  0
 14 15  1  0
 14 18  1  0
 14 49  1  1
 15 16  1  0
 15 17  2  0
 16 50  1  0
 16 51  1  0
 16 52  1  0
 18 19  1  1
 18 20  1  0
 19 53  1  0
 20 27  1  0
 20 21  1  0
 20 54  1  1
 21 27  1  0
 21 22  1  6
 21 28  1  0
 22 23  1  0
 23 24  1  0
 23 25  1  0
 23 55  1  6
 24 56  1  0
 24 57  1  0
 24 58  1  0
 25 26  1  0
 25 27  1  0
 25 59  1  6
 26 60  1  0
 28 29  1  0
 28 30  1  0
 28 61  1  1
 29 62  1  0
 29 63  1  0
 29 64  1  0
 30 65  1  0
 30 66  1  0
M  END
>  <i_m_ct_stereo_status>  (358) 
1

>  <s_m_source_file>  (358) 
/var/tmp/pbs.5076255.sched01/tmp7b2cfgi2/13234zcpj2x.sdf

>  <i_m_source_file_index>  (358) 
20

>  <i_lp_mmshare_version>  (358) 
48012

>  <i_f3d_flags>  (358) 
0

>  <s_epik_input>  (358) 
W0NIM11DKD1PKVtDQEhdMVtDQEBdKFtPSF0pKFtDQEhdMjMpW0NAQF0xKFtDSDNdKVtDQEhdKFtDSDJdNClbQ0BAXShDKD1bQ0gyXSlbQ0gzXSkoW0NIMl1bQ0BASF01W0NIM10pW0NIMl1bQ0BASF0oW0NIM10pW0NAQF00KFtPSF0pW0NAXTMoW0NAXTI1NilbQ0BIXShbT0hdKVtDQEBIXShPNilbQ0gzXQ==

>  <s_epik_cmdline>  (358) 
J2VwaWtfcHl0aG9uJywgJy1waHQnLCAnMi4wJywgJy1waCcsICc3LjAnLCAnLXRuJywgJzgnLCAnLW1hJywgJzIwMCcsICctaW1hZScsICc8aW5maWxlLm1hZT4nLCAnLW9tYWUnLCAnPG91dGZpbGUubWFlPic=

>  <r_lp_tautomer_probability>  (358) 
1

>  <r_epik_Ionization_Penalty>  (358) 
7.48903e-07

>  <r_epik_Ionization_Penalty_Charging>  (358) 
0

>  <r_epik_Ionization_Penalty_Neutral>  (358) 
7.48903e-07

>  <r_epik_State_Penalty>  (358) 
-0

>  <r_epik_Charging_Adjusted_Penalty>  (358) 
0

>  <i_epik_Tot_Q>  (358) 
0

>  <i_epik_Tot_abs_Q>  (358) 
0

>  <s_lp_Force_Field>  (358) 
OPLS3e

>  <r_lp_Energy>  (358) 
97.2525

>  <b_lp_Chiralities_Consistent>  (358) 
1

>  <s_lp_Variant>  (358) 
100:0-1

>  <s_i_glide_gridfile>  (358) 
pfpi4k_grid

>  <i_i_glide_lignum>  (358) 
20

>  <i_i_glide_rotatable_bonds>  (358) 
5

>  <r_i_docking_score>  (358) 
-2.69272

>  <r_i_glide_ligand_efficiency>  (358) 
-0.0897573

>  <r_i_glide_ligand_efficiency_sa>  (358) 
-0.278897

>  <r_i_glide_ligand_efficiency_ln>  (358) 
-0.611815

>  <r_i_glide_gscore>  (358) 
-2.69272

>  <r_i_glide_lipo>  (358) 
-0.275983

>  <r_i_glide_hbond>  (358) 
-0.137523

>  <r_i_glide_metal>  (358) 
-0

>  <r_i_glide_rewards>  (358) 
-0.568975

>  <r_i_glide_evdw>  (358) 
-21.5813

>  <r_i_glide_ecoul>  (358) 
-4.87777

>  <r_i_glide_erotb>  (358) 
0.113864

>  <r_i_glide_esite>  (358) 
-0.0133755

>  <r_i_glide_emodel>  (358) 
-30.9089

>  <r_i_glide_energy>  (358) 
-26.459

>  <r_i_glide_einternal>  (358) 
1.10337

>  <r_i_glide_intrahb_reward>  (358) 
-0

>  <i_i_glide_confnum>  (358) 
5

>  <i_i_glide_posenum>  (358) 
27

>  <r_i_glide_eff_state_penalty>  (358) 
0

>  <ligand_id>  (358) 
100

>  <original_smiles>  (358) 
C=C(C)C12CC(C)C3(O)CC1C1(C)C(C(C)=O)C1(O)C1C4(OC(C)C(O)C134)C(C)C2

>  <smiles>  (358) 
[H]OC1([H])C([H])(C([H])([H])[H])OC23C([H])(C([H])([H])[H])C([H])([H])C4(C(=C([H])[H])C([H])([H])[H])C([H])([H])C([H])(C([H])([H])[H])C5(O[H])C([H])([H])C4([H])C4(C([H])([H])[H])C([H])(C(=O)C([H])([H])[H])C4(O[H])C2([H])C153

$$$$
100:0:2
     RDKit          3D

 66 71  0  0  1  0  0  0  0  0999 V2000
   -0.2276    4.9913    8.4090 C   0  0  0  0  0  0  0  0  0  0  0  0
   -0.9208    4.0234    7.7792 C   0  0  0  0  0  0  0  0  0  0  0  0
   -2.3679    3.8067    8.2264 C   0  0  0  0  0  0  0  0  0  0  0  0
   -0.3645    3.1287    6.6223 C   0  0  2  0  0  0  0  0  0  0  0  0
   -1.3362    3.3188    5.3905 C   0  0  0  0  0  0  0  0  0  0  0  0
   -1.4639    2.1781    4.3377 C   0  0  1  0  0  0  0  0  0  0  0  0
   -1.2630    2.5924    2.8731 C   0  0  0  0  0  0  0  0  0  0  0  0
   -0.7754    0.8618    4.7481 C   0  0  2  0  0  0  0  0  0  0  0  0
   -1.5519   -0.1943    4.1915 O   0  0  0  0  0  0  0  0  0  0  0  0
   -1.0787    0.6903    6.2398 C   0  0  0  0  0  0  0  0  0  0  0  0
   -0.3336    1.6394    7.1879 C   0  0  1  0  0  0  0  0  0  0  0  0
    1.0116    1.1288    7.7635 C   0  0  1  0  0  0  0  0  0  0  0  0
    1.3308    1.8457    9.0803 C   0  0  0  0  0  0  0  0  0  0  0  0
    1.6541   -0.2874    7.7866 C   0  0  1  0  0  0  0  0  0  0  0  0
    1.0246   -1.6056    7.3958 C   0  0  0  0  0  0  0  0  0  0  0  0
    1.8948   -2.5995    6.6333 C   0  0  0  0  0  0  0  0  0  0  0  0
   -0.0546   -1.9775    7.8643 O   0  0  0  0  0  0  0  0  0  0  0  0
    2.0751    0.7391    6.7672 C   0  0  2  0  0  0  0  0  0  0  0  0
    3.3616    1.2203    7.1054 O   0  0  0  0  0  0  0  0  0  0  0  0
    1.9211    0.5350    5.2715 C   0  0  2  0  0  0  0  0  0  0  0  0
    1.7923    1.7564    4.4168 C   0  0  1  0  0  0  0  0  0  0  0  0
    2.6849    1.5788    3.3228 O   0  0  0  0  0  0  0  0  0  0  0  0
    2.0206    0.9162    2.2584 C   0  0  1  0  0  0  0  0  0  0  0  0
    3.0136    0.1709    1.3474 C   0  0  0  0  0  0  0  0  0  0  0  0
    0.8874    0.1022    2.9116 C   0  0  1  0  0  0  0  0  0  0  0  0
    1.2200   -1.2755    3.0134 O   0  0  0  0  0  0  0  0  0  0  0  0
    0.7163    0.7032    4.3023 C   0  0  2  0  0  0  0  0  0  0  0  0
    1.8050    3.2187    4.8894 C   0  0  1  0  0  0  0  0  0  0  0  0
    1.6393    4.2524    3.7513 C   0  0  0  0  0  0  0  0  0  0  0  0
    1.0554    3.6511    6.1826 C   0  0  0  0  0  0  0  0  0  0  0  0
   -0.6953    5.5714    9.1944 H   0  0  0  0  0  0  0  0  0  0  0  0
    0.7992    5.2438    8.1896 H   0  0  0  0  0  0  0  0  0  0  0  0
   -2.7056    2.7762    8.1490 H   0  0  0  0  0  0  0  0  0  0  0  0
   -3.0382    4.4213    7.6316 H   0  0  0  0  0  0  0  0  0  0  0  0
   -2.5035    4.1118    9.2653 H   0  0  0  0  0  0  0  0  0  0  0  0
   -2.3590    3.4551    5.7461 H   0  0  0  0  0  0  0  0  0  0  0  0
   -1.1239    4.2667    4.8996 H   0  0  0  0  0  0  0  0  0  0  0  0
   -2.5319    1.9600    4.3608 H   0  0  0  0  0  0  0  0  0  0  0  0
   -0.2177    2.7078    2.6164 H   0  0  0  0  0  0  0  0  0  0  0  0
   -1.7617    3.5312    2.6483 H   0  0  0  0  0  0  0  0  0  0  0  0
   -1.6663    1.8427    2.1984 H   0  0  0  0  0  0  0  0  0  0  0  0
   -2.3249    0.1732    3.7810 H   0  0  0  0  0  0  0  0  0  0  0  0
   -2.1408    0.9301    6.3764 H   0  0  0  0  0  0  0  0  0  0  0  0
   -1.0341   -0.3525    6.5208 H   0  0  0  0  0  0  0  0  0  0  0  0
   -0.9583    1.5954    8.0770 H   0  0  0  0  0  0  0  0  0  0  0  0
    2.3032    1.5443    9.4690 H   0  0  0  0  0  0  0  0  0  0  0  0
    0.5901    1.5998    9.8396 H   0  0  0  0  0  0  0  0  0  0  0  0
    1.3719    2.9254    8.9821 H   0  0  0  0  0  0  0  0  0  0  0  0
    2.3480   -0.4337    8.6147 H   0  0  0  0  0  0  0  0  0  0  0  0
    2.7548   -2.8519    7.2497 H   0  0  0  0  0  0  0  0  0  0  0  0
    2.2529   -2.2166    5.6801 H   0  0  0  0  0  0  0  0  0  0  0  0
    1.3384   -3.5133    6.4446 H   0  0  0  0  0  0  0  0  0  0  0  0
    4.0145    0.6812    6.6934 H   0  0  0  0  0  0  0  0  0  0  0  0
    2.6409   -0.1933    4.9071 H   0  0  0  0  0  0  0  0  0  0  0  0
    1.5602    1.7065    1.6693 H   0  0  0  0  0  0  0  0  0  0  0  0
    2.5033   -0.2929    0.5020 H   0  0  0  0  0  0  0  0  0  0  0  0
    3.5737   -0.6020    1.8745 H   0  0  0  0  0  0  0  0  0  0  0  0
    3.7369    0.8695    0.9242 H   0  0  0  0  0  0  0  0  0  0  0  0
   -0.0088    0.1847    2.2934 H   0  0  0  0  0  0  0  0  0  0  0  0
    1.3927   -1.5991    2.1446 H   0  0  0  0  0  0  0  0  0  0  0  0
    2.8554    3.3538    5.1548 H   0  0  0  0  0  0  0  0  0  0  0  0
    0.6028    4.4805    3.5219 H   0  0  0  0  0  0  0  0  0  0  0  0
    2.1241    3.9414    2.8250 H   0  0  0  0  0  0  0  0  0  0  0  0
    2.1027    5.1975    4.0359 H   0  0  0  0  0  0  0  0  0  0  0  0
    0.9751    4.7325    6.0817 H   0  0  0  0  0  0  0  0  0  0  0  0
    1.7633    3.5322    6.9950 H   0  0  0  0  0  0  0  0  0  0  0  0
  1  2  2  0
  1 31  1  0
  1 32  1  0
  2  3  1  0
  4  2  1  1
  3 33  1  0
  3 34  1  0
  3 35  1  0
  4 11  1  0
  4 30  1  0
  4  5  1  0
  5  6  1  0
  5 36  1  0
  5 37  1  0
  6  7  1  0
  6  8  1  0
  6 38  1  6
  7 39  1  0
  7 40  1  0
  7 41  1  0
 27  8  1  1
  8  9  1  6
  8 10  1  0
  9 42  1  0
 10 11  1  0
 10 43  1  0
 10 44  1  0
 11 12  1  0
 11 45  1  1
 12 18  1  0
 12 13  1  1
 12 14  1  0
 13 46  1  0
 13 47  1  0
 13 48  1  0
 14 15  1  0
 14 18  1  0
 14 49  1  1
 15 16  1  0
 15 17  2  0
 16 50  1  0
 16 51  1  0
 16 52  1  0
 18 19  1  6
 18 20  1  0
 19 53  1  0
 20 27  1  0
 20 21  1  0
 20 54  1  6
 21 27  1  0
 21 22  1  6
 21 28  1  0
 22 23  1  0
 23 24  1  0
 23 25  1  0
 23 55  1  6
 24 56  1  0
 24 57  1  0
 24 58  1  0
 25 26  1  0
 25 27  1  0
 25 59  1  6
 26 60  1  0
 28 29  1  0
 28 30  1  0
 28 61  1  1
 29 62  1  0
 29 63  1  0
 29 64  1  0
 30 65  1  0
 30 66  1  0
M  END
>  <i_m_ct_stereo_status>  (359) 
1

>  <s_m_source_file>  (359) 
/var/tmp/pbs.5076255.sched01/tmp7b2cfgi2/13234zcpj2x.sdf

>  <i_m_source_file_index>  (359) 
20

>  <i_lp_mmshare_version>  (359) 
48012

>  <i_f3d_flags>  (359) 
0

>  <s_epik_input>  (359) 
W0NIM11DKD1PKVtDQEhdMVtDQEBdKFtPSF0pKFtDQEhdMjMpW0NAQF0xKFtDSDNdKVtDQEhdKFtDSDJdNClbQ0BAXShDKD1bQ0gyXSlbQ0gzXSkoW0NIMl1bQ0BASF01W0NIM10pW0NIMl1bQ0BASF0oW0NIM10pW0NAQF00KFtPSF0pW0NAXTMoW0NAXTI1NilbQ0BIXShbT0hdKVtDQEBIXShPNilbQ0gzXQ==

>  <s_epik_cmdline>  (359) 
J2VwaWtfcHl0aG9uJywgJy1waHQnLCAnMi4wJywgJy1waCcsICc3LjAnLCAnLXRuJywgJzgnLCAnLW1hJywgJzIwMCcsICctaW1hZScsICc8aW5maWxlLm1hZT4nLCAnLW9tYWUnLCAnPG91dGZpbGUubWFlPic=

>  <r_lp_tautomer_probability>  (359) 
1

>  <r_epik_Ionization_Penalty>  (359) 
7.48903e-07

>  <r_epik_Ionization_Penalty_Charging>  (359) 
0

>  <r_epik_Ionization_Penalty_Neutral>  (359) 
7.48903e-07

>  <r_epik_State_Penalty>  (359) 
-0

>  <r_epik_Charging_Adjusted_Penalty>  (359) 
0

>  <i_epik_Tot_Q>  (359) 
0

>  <i_epik_Tot_abs_Q>  (359) 
0

>  <s_lp_Force_Field>  (359) 
OPLS3e

>  <r_lp_Energy>  (359) 
97.2525

>  <b_lp_Chiralities_Consistent>  (359) 
1

>  <s_lp_Variant>  (359) 
100:0-1

>  <s_i_glide_gridfile>  (359) 
pfpi4k_grid

>  <i_i_glide_lignum>  (359) 
20

>  <i_i_glide_rotatable_bonds>  (359) 
5

>  <r_i_docking_score>  (359) 
-2.48053

>  <r_i_glide_ligand_efficiency>  (359) 
-0.0826842

>  <r_i_glide_ligand_efficiency_sa>  (359) 
-0.256919

>  <r_i_glide_ligand_efficiency_ln>  (359) 
-0.563603

>  <r_i_glide_gscore>  (359) 
-2.48053

>  <r_i_glide_lipo>  (359) 
-0.0687637

>  <r_i_glide_hbond>  (359) 
-0.0844354

>  <r_i_glide_metal>  (359) 
-0

>  <r_i_glide_rewards>  (359) 
-0.568975

>  <r_i_glide_evdw>  (359) 
-23.653

>  <r_i_glide_ecoul>  (359) 
-4.5206

>  <r_i_glide_erotb>  (359) 
0.113864

>  <r_i_glide_esite>  (359) 
-0.0114761

>  <r_i_glide_emodel>  (359) 
-31.4215

>  <r_i_glide_energy>  (359) 
-28.1736

>  <r_i_glide_einternal>  (359) 
2.24985

>  <r_i_glide_intrahb_reward>  (359) 
-0

>  <i_i_glide_confnum>  (359) 
1

>  <i_i_glide_posenum>  (359) 
38

>  <r_i_glide_eff_state_penalty>  (359) 
0

>  <ligand_id>  (359) 
100

>  <original_smiles>  (359) 
C=C(C)C12CC(C)C3(O)CC1C1(C)C(C(C)=O)C1(O)C1C4(OC(C)C(O)C134)C(C)C2

>  <smiles>  (359) 
[H]OC1([H])C([H])(C([H])([H])[H])OC23C([H])(C([H])([H])[H])C([H])([H])C4(C(=C([H])[H])C([H])([H])[H])C([H])([H])C([H])(C([H])([H])[H])C5(O[H])C([H])([H])C4([H])C4(C([H])([H])[H])C([H])(C(=O)C([H])([H])[H])C4(O[H])C2([H])C153

$$$$
101:0:0
     RDKit          3D

 43 46  0  0  1  0  0  0  0  0999 V2000
    2.5201   -4.7569    2.7167 C   0  0  0  0  0  0  0  0  0  0  0  0
    3.1097   -5.0391    1.5400 C   0  0  0  0  0  0  0  0  0  0  0  0
    2.2838   -5.1625    0.2523 C   0  0  0  0  0  0  0  0  0  0  0  0
    2.3664   -3.9340   -0.7136 C   0  0  0  0  0  0  0  0  0  0  0  0
    3.7230   -3.2749   -0.5467 C   0  0  1  0  0  0  0  0  0  0  0  0
    4.7205   -4.2632   -0.8198 O   0  0  0  0  0  0  0  0  0  0  0  0
    5.4725   -4.5349    0.3012 C   0  0  2  0  0  0  0  0  0  0  0  0
    6.5102   -5.4147    0.0843 O   0  0  0  0  0  0  0  0  0  0  0  0
    7.3965   -5.1713    1.1347 C   0  0  2  0  0  0  0  0  0  0  0  0
    8.8081   -5.5923    0.7553 C   0  0  0  0  0  0  0  0  0  0  0  0
    6.8611   -5.8936    2.3915 C   0  0  0  0  0  0  0  0  0  0  0  0
    5.4440   -5.3794    2.6961 C   0  0  0  0  0  0  0  0  0  0  0  0
    4.6189   -5.3125    1.3940 C   0  0  1  0  0  0  0  0  0  0  0  0
    7.4003   -3.8006    1.3971 O   0  0  0  0  0  0  0  0  0  0  0  0
    6.3865   -3.3055    0.5630 C   0  0  2  0  0  0  0  0  0  0  0  0
    5.7388   -1.9633    0.9522 C   0  0  0  0  0  0  0  0  0  0  0  0
    5.1606   -1.1976   -0.2860 C   0  0  0  0  0  0  0  0  0  0  0  0
    4.0504   -1.9005   -1.1362 C   0  0  1  0  0  0  0  0  0  0  0  0
    4.3821   -1.9556   -2.6348 C   0  0  0  0  0  0  0  0  0  0  0  0
    3.0743   -4.6870    3.6394 H   0  0  0  0  0  0  0  0  0  0  0  0
    1.4541   -4.5828    2.7862 H   0  0  0  0  0  0  0  0  0  0  0  0
    2.6183   -6.0525   -0.2833 H   0  0  0  0  0  0  0  0  0  0  0  0
    1.2495   -5.3812    0.5176 H   0  0  0  0  0  0  0  0  0  0  0  0
    2.1908   -4.2349   -1.7475 H   0  0  0  0  0  0  0  0  0  0  0  0
    1.6085   -3.1929   -0.4771 H   0  0  0  0  0  0  0  0  0  0  0  0
    3.6399   -2.9969    0.4973 H   0  0  0  0  0  0  0  0  0  0  0  0
    9.1394   -5.0225   -0.1144 H   0  0  0  0  0  0  0  0  0  0  0  0
    8.8388   -6.6607    0.5310 H   0  0  0  0  0  0  0  0  0  0  0  0
    9.4759   -5.3873    1.5927 H   0  0  0  0  0  0  0  0  0  0  0  0
    6.8529   -6.9628    2.1909 H   0  0  0  0  0  0  0  0  0  0  0  0
    7.5301   -5.7194    3.2371 H   0  0  0  0  0  0  0  0  0  0  0  0
    4.9719   -6.0626    3.4055 H   0  0  0  0  0  0  0  0  0  0  0  0
    5.4876   -4.3972    3.1717 H   0  0  0  0  0  0  0  0  0  0  0  0
    4.5750   -6.3352    1.0141 H   0  0  0  0  0  0  0  0  0  0  0  0
    6.9030   -3.1221   -0.3808 H   0  0  0  0  0  0  0  0  0  0  0  0
    5.0232   -2.0714    1.7687 H   0  0  0  0  0  0  0  0  0  0  0  0
    6.5258   -1.3294    1.3628 H   0  0  0  0  0  0  0  0  0  0  0  0
    4.7559   -0.2476    0.0668 H   0  0  0  0  0  0  0  0  0  0  0  0
    5.9850   -0.9226   -0.9443 H   0  0  0  0  0  0  0  0  0  0  0  0
    3.1503   -1.2937   -1.0343 H   0  0  0  0  0  0  0  0  0  0  0  0
    5.2828   -2.5429   -2.8299 H   0  0  0  0  0  0  0  0  0  0  0  0
    4.5434   -0.9526   -3.0343 H   0  0  0  0  0  0  0  0  0  0  0  0
    3.5630   -2.4043   -3.1991 H   0  0  0  0  0  0  0  0  0  0  0  0
  1  2  2  0
  1 20  1  0
  1 21  1  0
  2 13  1  0
  2  3  1  0
  3  4  1  0
  3 22  1  0
  3 23  1  0
  4  5  1  0
  4 24  1  0
  4 25  1  0
  5 18  1  0
  5  6  1  0
  5 26  1  1
  7  6  1  6
  7 13  1  0
  7 15  1  0
  7  8  1  0
  8  9  1  0
  9 10  1  6
  9 11  1  0
  9 14  1  0
 10 27  1  0
 10 28  1  0
 10 29  1  0
 11 12  1  0
 11 30  1  0
 11 31  1  0
 12 13  1  0
 12 32  1  0
 12 33  1  0
 13 34  1  6
 14 15  1  0
 15 16  1  0
 15 35  1  6
 16 17  1  0
 16 36  1  0
 16 37  1  0
 17 18  1  0
 17 38  1  0
 17 39  1  0
 18 19  1  0
 18 40  1  6
 19 41  1  0
 19 42  1  0
 19 43  1  0
M  END
>  <i_m_ct_stereo_status>  (360) 
1

>  <s_m_source_file>  (360) 
/var/tmp/pbs.5076255.sched01/tmp7b2cfgi2/13234zcpj2x.sdf

>  <i_m_source_file_index>  (360) 
21

>  <i_lp_mmshare_version>  (360) 
48012

>  <i_f3d_flags>  (360) 
0

>  <s_epik_input>  (360) 
W0NAQF0xMjNbQ0BASF00Qyg9W0NIMl0pW0NIMl1bQ0gyXVtDQEBIXShPMSlbQ0BIXShbQ0gzXSlbQ0gyXVtDSDJdW0NASF0zT1tDQEBdKE8yKShbQ0gzXSlbQ0gyXVtDSDJdNA==

>  <s_epik_cmdline>  (360) 
J2VwaWtfcHl0aG9uJywgJy1waHQnLCAnMi4wJywgJy1waCcsICc3LjAnLCAnLXRuJywgJzgnLCAnLW1hJywgJzIwMCcsICctaW1hZScsICc8aW5maWxlLm1hZT4nLCAnLW9tYWUnLCAnPG91dGZpbGUubWFlPic=

>  <r_lp_tautomer_probability>  (360) 
1

>  <r_epik_Ionization_Penalty>  (360) 
1.60106e-13

>  <r_epik_Ionization_Penalty_Charging>  (360) 
0

>  <r_epik_Ionization_Penalty_Neutral>  (360) 
1.60106e-13

>  <r_epik_State_Penalty>  (360) 
-0

>  <r_epik_Charging_Adjusted_Penalty>  (360) 
0

>  <i_epik_Tot_Q>  (360) 
0

>  <i_epik_Tot_abs_Q>  (360) 
0

>  <s_lp_Force_Field>  (360) 
OPLS3e

>  <r_lp_Energy>  (360) 
56.6999

>  <b_lp_Chiralities_Consistent>  (360) 
1

>  <s_lp_Variant>  (360) 
101:0-1

>  <s_i_glide_gridfile>  (360) 
pfpi4k_grid

>  <i_i_glide_lignum>  (360) 
21

>  <i_i_glide_rotatable_bonds>  (360) 
0

>  <r_i_docking_score>  (360) 
-3.0655

>  <r_i_glide_ligand_efficiency>  (360) 
-0.161342

>  <r_i_glide_ligand_efficiency_sa>  (360) 
-0.430525

>  <r_i_glide_ligand_efficiency_ln>  (360) 
-0.777169

>  <r_i_glide_gscore>  (360) 
-3.0655

>  <r_i_glide_lipo>  (360) 
-0.323505

>  <r_i_glide_hbond>  (360) 
0

>  <r_i_glide_metal>  (360) 
-0

>  <r_i_glide_rewards>  (360) 
-1.85909

>  <r_i_glide_evdw>  (360) 
-18.3311

>  <r_i_glide_ecoul>  (360) 
0.224351

>  <r_i_glide_erotb>  (360) 
0

>  <r_i_glide_esite>  (360) 
0

>  <r_i_glide_emodel>  (360) 
-21.7065

>  <r_i_glide_energy>  (360) 
-18.1068

>  <r_i_glide_einternal>  (360) 
0

>  <r_i_glide_intrahb_reward>  (360) 
-0

>  <i_i_glide_confnum>  (360) 
1

>  <i_i_glide_posenum>  (360) 
7

>  <r_i_glide_eff_state_penalty>  (360) 
0

>  <ligand_id>  (360) 
101

>  <original_smiles>  (360) 
C=C1CCC2OC34OC(C)(CCC13)OC4CCC2C

>  <smiles>  (360) 
[H]C([H])=C1C([H])([H])C([H])([H])C2([H])OC34OC(C([H])([H])[H])(OC3([H])C([H])([H])C([H])([H])C2([H])C([H])([H])[H])C([H])([H])C([H])([H])C14[H]

$$$$
101:0:1
     RDKit          3D

 43 46  0  0  1  0  0  0  0  0999 V2000
    3.7107   -1.9404   -1.5710 C   0  0  0  0  0  0  0  0  0  0  0  0
    4.4078   -2.3627   -0.4978 C   0  0  0  0  0  0  0  0  0  0  0  0
    5.7511   -1.7014   -0.1385 C   0  0  0  0  0  0  0  0  0  0  0  0
    5.7006   -0.7250    1.0674 C   0  0  0  0  0  0  0  0  0  0  0  0
    4.5889   -1.1495    2.0120 C   0  0  1  0  0  0  0  0  0  0  0  0
    4.8652   -2.4904    2.4294 O   0  0  0  0  0  0  0  0  0  0  0  0
    3.8855   -3.3606    1.9835 C   0  0  2  0  0  0  0  0  0  0  0  0
    4.0445   -4.6591    2.4304 O   0  0  0  0  0  0  0  0  0  0  0  0
    2.7604   -5.2157    2.2955 C   0  0  2  0  0  0  0  0  0  0  0  0
    2.6002   -6.4117    3.2455 C   0  0  0  0  0  0  0  0  0  0  0  0
    2.5490   -5.5865    0.8065 C   0  0  0  0  0  0  0  0  0  0  0  0
    2.7100   -4.3120   -0.0496 C   0  0  0  0  0  0  0  0  0  0  0  0
    3.9639   -3.5360    0.4038 C   0  0  1  0  0  0  0  0  0  0  0  0
    1.8112   -4.2493    2.6216 O   0  0  0  0  0  0  0  0  0  0  0  0
    2.5940   -3.0931    2.8054 C   0  0  2  0  0  0  0  0  0  0  0  0
    1.8917   -1.7271    2.6690 C   0  0  0  0  0  0  0  0  0  0  0  0
    2.6007   -0.6017    3.4999 C   0  0  0  0  0  0  0  0  0  0  0  0
    4.0877   -0.2641    3.1594 C   0  0  1  0  0  0  0  0  0  0  0  0
    5.0099   -0.2924    4.3916 C   0  0  0  0  0  0  0  0  0  0  0  0
    2.7671   -2.3832   -1.8552 H   0  0  0  0  0  0  0  0  0  0  0  0
    4.0586   -1.1225   -2.1821 H   0  0  0  0  0  0  0  0  0  0  0  0
    6.4765   -2.4903    0.0639 H   0  0  0  0  0  0  0  0  0  0  0  0
    6.1233   -1.1586   -1.0066 H   0  0  0  0  0  0  0  0  0  0  0  0
    6.6626   -0.6836    1.5792 H   0  0  0  0  0  0  0  0  0  0  0  0
    5.4896    0.2834    0.7063 H   0  0  0  0  0  0  0  0  0  0  0  0
    3.7511   -1.0458    1.3371 H   0  0  0  0  0  0  0  0  0  0  0  0
    2.7362   -6.0870    4.2765 H   0  0  0  0  0  0  0  0  0  0  0  0
    3.3355   -7.1806    3.0069 H   0  0  0  0  0  0  0  0  0  0  0  0
    1.5997   -6.8335    3.1385 H   0  0  0  0  0  0  0  0  0  0  0  0
    3.2873   -6.3381    0.5301 H   0  0  0  0  0  0  0  0  0  0  0  0
    1.5610   -6.0278    0.6723 H   0  0  0  0  0  0  0  0  0  0  0  0
    2.8115   -4.6035   -1.0961 H   0  0  0  0  0  0  0  0  0  0  0  0
    1.8255   -3.6778    0.0176 H   0  0  0  0  0  0  0  0  0  0  0  0
    4.8029   -4.2130    0.2508 H   0  0  0  0  0  0  0  0  0  0  0  0
    2.8989   -3.1580    3.8544 H   0  0  0  0  0  0  0  0  0  0  0  0
    1.7189   -1.4545    1.6287 H   0  0  0  0  0  0  0  0  0  0  0  0
    0.8939   -1.8359    3.0918 H   0  0  0  0  0  0  0  0  0  0  0  0
    2.0164    0.3113    3.3779 H   0  0  0  0  0  0  0  0  0  0  0  0
    2.5192   -0.8423    4.5612 H   0  0  0  0  0  0  0  0  0  0  0  0
    4.0918    0.7630    2.7915 H   0  0  0  0  0  0  0  0  0  0  0  0
    5.0542   -1.2871    4.8379 H   0  0  0  0  0  0  0  0  0  0  0  0
    4.6574    0.3984    5.1569 H   0  0  0  0  0  0  0  0  0  0  0  0
    6.0281    0.0024    4.1302 H   0  0  0  0  0  0  0  0  0  0  0  0
  1  2  2  0
  1 20  1  0
  1 21  1  0
  2 13  1  0
  2  3  1  0
  3  4  1  0
  3 22  1  0
  3 23  1  0
  4  5  1  0
  4 24  1  0
  4 25  1  0
  5 18  1  0
  5  6  1  0
  5 26  1  6
  7  6  1  1
  7 13  1  0
  7 15  1  0
  7  8  1  0
  8  9  1  0
  9 10  1  1
  9 11  1  0
  9 14  1  0
 10 27  1  0
 10 28  1  0
 10 29  1  0
 11 12  1  0
 11 30  1  0
 11 31  1  0
 12 13  1  0
 12 32  1  0
 12 33  1  0
 13 34  1  1
 14 15  1  0
 15 16  1  0
 15 35  1  1
 16 17  1  0
 16 36  1  0
 16 37  1  0
 17 18  1  0
 17 38  1  0
 17 39  1  0
 18 19  1  0
 18 40  1  6
 19 41  1  0
 19 42  1  0
 19 43  1  0
M  END
>  <i_m_ct_stereo_status>  (361) 
1

>  <s_m_source_file>  (361) 
/var/tmp/pbs.5076255.sched01/tmp7b2cfgi2/13234zcpj2x.sdf

>  <i_m_source_file_index>  (361) 
21

>  <i_lp_mmshare_version>  (361) 
48012

>  <i_f3d_flags>  (361) 
0

>  <s_epik_input>  (361) 
W0NAQF0xMjNbQ0BASF00Qyg9W0NIMl0pW0NIMl1bQ0gyXVtDQEBIXShPMSlbQ0BIXShbQ0gzXSlbQ0gyXVtDSDJdW0NASF0zT1tDQEBdKE8yKShbQ0gzXSlbQ0gyXVtDSDJdNA==

>  <s_epik_cmdline>  (361) 
J2VwaWtfcHl0aG9uJywgJy1waHQnLCAnMi4wJywgJy1waCcsICc3LjAnLCAnLXRuJywgJzgnLCAnLW1hJywgJzIwMCcsICctaW1hZScsICc8aW5maWxlLm1hZT4nLCAnLW9tYWUnLCAnPG91dGZpbGUubWFlPic=

>  <r_lp_tautomer_probability>  (361) 
1

>  <r_epik_Ionization_Penalty>  (361) 
1.60106e-13

>  <r_epik_Ionization_Penalty_Charging>  (361) 
0

>  <r_epik_Ionization_Penalty_Neutral>  (361) 
1.60106e-13

>  <r_epik_State_Penalty>  (361) 
-0

>  <r_epik_Charging_Adjusted_Penalty>  (361) 
0

>  <i_epik_Tot_Q>  (361) 
0

>  <i_epik_Tot_abs_Q>  (361) 
0

>  <s_lp_Force_Field>  (361) 
OPLS3e

>  <r_lp_Energy>  (361) 
56.6999

>  <b_lp_Chiralities_Consistent>  (361) 
1

>  <s_lp_Variant>  (361) 
101:0-1

>  <s_i_glide_gridfile>  (361) 
pfpi4k_grid

>  <i_i_glide_lignum>  (361) 
21

>  <i_i_glide_rotatable_bonds>  (361) 
0

>  <r_i_docking_score>  (361) 
-2.85749

>  <r_i_glide_ligand_efficiency>  (361) 
-0.150394

>  <r_i_glide_ligand_efficiency_sa>  (361) 
-0.401312

>  <r_i_glide_ligand_efficiency_ln>  (361) 
-0.724436

>  <r_i_glide_gscore>  (361) 
-2.85749

>  <r_i_glide_lipo>  (361) 
-0.286221

>  <r_i_glide_hbond>  (361) 
0

>  <r_i_glide_metal>  (361) 
-0

>  <r_i_glide_rewards>  (361) 
-1.61219

>  <r_i_glide_evdw>  (361) 
-18.4686

>  <r_i_glide_ecoul>  (361) 
-0.196407

>  <r_i_glide_erotb>  (361) 
0

>  <r_i_glide_esite>  (361) 
-0.00618719

>  <r_i_glide_emodel>  (361) 
-22.041

>  <r_i_glide_energy>  (361) 
-18.665

>  <r_i_glide_einternal>  (361) 
0

>  <r_i_glide_intrahb_reward>  (361) 
-0

>  <i_i_glide_confnum>  (361) 
2

>  <i_i_glide_posenum>  (361) 
1

>  <r_i_glide_eff_state_penalty>  (361) 
0

>  <ligand_id>  (361) 
101

>  <original_smiles>  (361) 
C=C1CCC2OC34OC(C)(CCC13)OC4CCC2C

>  <smiles>  (361) 
[H]C([H])=C1C([H])([H])C([H])([H])C2([H])OC34OC(C([H])([H])[H])(OC3([H])C([H])([H])C([H])([H])C2([H])C([H])([H])[H])C([H])([H])C([H])([H])C14[H]

$$$$
101:0:2
     RDKit          3D

 43 46  0  0  1  0  0  0  0  0999 V2000
    3.1548   -0.7263    2.7896 C   0  0  0  0  0  0  0  0  0  0  0  0
    4.1882   -1.5229    2.4604 C   0  0  0  0  0  0  0  0  0  0  0  0
    5.0781   -2.1292    3.5581 C   0  0  0  0  0  0  0  0  0  0  0  0
    4.8552   -3.6383    3.8496 C   0  0  0  0  0  0  0  0  0  0  0  0
    4.3413   -4.3144    2.5894 C   0  0  1  0  0  0  0  0  0  0  0  0
    5.3118   -4.1165    1.5553 O   0  0  0  0  0  0  0  0  0  0  0  0
    4.8031   -3.3400    0.5271 C   0  0  2  0  0  0  0  0  0  0  0  0
    5.6601   -3.1904   -0.5477 O   0  0  0  0  0  0  0  0  0  0  0  0
    4.8004   -2.8230   -1.6052 C   0  0  2  0  0  0  0  0  0  0  0  0
    5.4399   -3.1861   -2.9455 C   0  0  0  0  0  0  0  0  0  0  0  0
    4.4834   -1.3217   -1.4677 C   0  0  0  0  0  0  0  0  0  0  0  0
    3.8250   -1.0840   -0.0951 C   0  0  0  0  0  0  0  0  0  0  0  0
    4.5971   -1.8369    1.0034 C   0  0  1  0  0  0  0  0  0  0  0  0
    3.5968   -3.5098   -1.4681 O   0  0  0  0  0  0  0  0  0  0  0  0
    3.7702   -4.1981   -0.2514 C   0  0  2  0  0  0  0  0  0  0  0  0
    2.4971   -4.6607    0.4724 C   0  0  0  0  0  0  0  0  0  0  0  0
    2.7264   -5.8890    1.4163 C   0  0  0  0  0  0  0  0  0  0  0  0
    3.7423   -5.7259    2.5905 C   0  0  1  0  0  0  0  0  0  0  0  0
    4.8104   -6.8316    2.6117 C   0  0  0  0  0  0  0  0  0  0  0  0
    2.5187   -0.2656    2.0493 H   0  0  0  0  0  0  0  0  0  0  0  0
    2.9265   -0.5155    3.8246 H   0  0  0  0  0  0  0  0  0  0  0  0
    6.1080   -1.9765    3.2399 H   0  0  0  0  0  0  0  0  0  0  0  0
    4.9625   -1.5685    4.4856 H   0  0  0  0  0  0  0  0  0  0  0  0
    5.7709   -4.1100    4.2082 H   0  0  0  0  0  0  0  0  0  0  0  0
    4.1145   -3.7468    4.6441 H   0  0  0  0  0  0  0  0  0  0  0  0
    3.4291   -3.7469    2.4689 H   0  0  0  0  0  0  0  0  0  0  0  0
    5.6202   -4.2559   -2.9902 H   0  0  0  0  0  0  0  0  0  0  0  0
    6.3892   -2.6629   -3.0566 H   0  0  0  0  0  0  0  0  0  0  0  0
    4.7759   -2.9101   -3.7654 H   0  0  0  0  0  0  0  0  0  0  0  0
    5.4085   -0.7547   -1.5642 H   0  0  0  0  0  0  0  0  0  0  0  0
    3.8119   -1.0148   -2.2732 H   0  0  0  0  0  0  0  0  0  0  0  0
    3.8180   -0.0160    0.1101 H   0  0  0  0  0  0  0  0  0  0  0  0
    2.7870   -1.4226   -0.1057 H   0  0  0  0  0  0  0  0  0  0  0  0
    5.6030   -1.4142    0.9945 H   0  0  0  0  0  0  0  0  0  0  0  0
    4.2950   -5.1167   -0.5352 H   0  0  0  0  0  0  0  0  0  0  0  0
    1.9989   -3.8256    0.9624 H   0  0  0  0  0  0  0  0  0  0  0  0
    1.8045   -4.9940   -0.2996 H   0  0  0  0  0  0  0  0  0  0  0  0
    1.7616   -6.1607    1.8473 H   0  0  0  0  0  0  0  0  0  0  0  0
    3.0085   -6.7502    0.8101 H   0  0  0  0  0  0  0  0  0  0  0  0
    3.1703   -5.8246    3.5153 H   0  0  0  0  0  0  0  0  0  0  0  0
    5.4219   -6.8131    1.7087 H   0  0  0  0  0  0  0  0  0  0  0  0
    4.3470   -7.8161    2.6792 H   0  0  0  0  0  0  0  0  0  0  0  0
    5.4735   -6.7210    3.4697 H   0  0  0  0  0  0  0  0  0  0  0  0
  1  2  2  0
  1 20  1  0
  1 21  1  0
  2 13  1  0
  2  3  1  0
  3  4  1  0
  3 22  1  0
  3 23  1  0
  4  5  1  0
  4 24  1  0
  4 25  1  0
  5 18  1  0
  5  6  1  0
  5 26  1  6
  7  6  1  1
  7 13  1  0
  7 15  1  0
  7  8  1  0
  8  9  1  0
  9 10  1  6
  9 11  1  0
  9 14  1  0
 10 27  1  0
 10 28  1  0
 10 29  1  0
 11 12  1  0
 11 30  1  0
 11 31  1  0
 12 13  1  0
 12 32  1  0
 12 33  1  0
 13 34  1  1
 14 15  1  0
 15 16  1  0
 15 35  1  6
 16 17  1  0
 16 36  1  0
 16 37  1  0
 17 18  1  0
 17 38  1  0
 17 39  1  0
 18 19  1  0
 18 40  1  1
 19 41  1  0
 19 42  1  0
 19 43  1  0
M  END
>  <i_m_ct_stereo_status>  (362) 
1

>  <s_m_source_file>  (362) 
/var/tmp/pbs.5076255.sched01/tmp7b2cfgi2/13234zcpj2x.sdf

>  <i_m_source_file_index>  (362) 
21

>  <i_lp_mmshare_version>  (362) 
48012

>  <i_f3d_flags>  (362) 
0

>  <s_epik_input>  (362) 
W0NAQF0xMjNbQ0BASF00Qyg9W0NIMl0pW0NIMl1bQ0gyXVtDQEBIXShPMSlbQ0BIXShbQ0gzXSlbQ0gyXVtDSDJdW0NASF0zT1tDQEBdKE8yKShbQ0gzXSlbQ0gyXVtDSDJdNA==

>  <s_epik_cmdline>  (362) 
J2VwaWtfcHl0aG9uJywgJy1waHQnLCAnMi4wJywgJy1waCcsICc3LjAnLCAnLXRuJywgJzgnLCAnLW1hJywgJzIwMCcsICctaW1hZScsICc8aW5maWxlLm1hZT4nLCAnLW9tYWUnLCAnPG91dGZpbGUubWFlPic=

>  <r_lp_tautomer_probability>  (362) 
1

>  <r_epik_Ionization_Penalty>  (362) 
1.60106e-13

>  <r_epik_Ionization_Penalty_Charging>  (362) 
0

>  <r_epik_Ionization_Penalty_Neutral>  (362) 
1.60106e-13

>  <r_epik_State_Penalty>  (362) 
-0

>  <r_epik_Charging_Adjusted_Penalty>  (362) 
0

>  <i_epik_Tot_Q>  (362) 
0

>  <i_epik_Tot_abs_Q>  (362) 
0

>  <s_lp_Force_Field>  (362) 
OPLS3e

>  <r_lp_Energy>  (362) 
56.6999

>  <b_lp_Chiralities_Consistent>  (362) 
1

>  <s_lp_Variant>  (362) 
101:0-1

>  <s_i_glide_gridfile>  (362) 
pfpi4k_grid

>  <i_i_glide_lignum>  (362) 
21

>  <i_i_glide_rotatable_bonds>  (362) 
0

>  <r_i_docking_score>  (362) 
-2.83903

>  <r_i_glide_ligand_efficiency>  (362) 
-0.149423

>  <r_i_glide_ligand_efficiency_sa>  (362) 
-0.39872

>  <r_i_glide_ligand_efficiency_ln>  (362) 
-0.719755

>  <r_i_glide_gscore>  (362) 
-2.83903

>  <r_i_glide_lipo>  (362) 
-0.316167

>  <r_i_glide_hbond>  (362) 
0

>  <r_i_glide_metal>  (362) 
-0

>  <r_i_glide_rewards>  (362) 
-1.6467

>  <r_i_glide_evdw>  (362) 
-18.7376

>  <r_i_glide_ecoul>  (362) 
0.445658

>  <r_i_glide_erotb>  (362) 
0

>  <r_i_glide_esite>  (362) 
-0.00612636

>  <r_i_glide_emodel>  (362) 
-21.6071

>  <r_i_glide_energy>  (362) 
-18.292

>  <r_i_glide_einternal>  (362) 
0

>  <r_i_glide_intrahb_reward>  (362) 
-0

>  <i_i_glide_confnum>  (362) 
1

>  <i_i_glide_posenum>  (362) 
9

>  <r_i_glide_eff_state_penalty>  (362) 
0

>  <ligand_id>  (362) 
101

>  <original_smiles>  (362) 
C=C1CCC2OC34OC(C)(CCC13)OC4CCC2C

>  <smiles>  (362) 
[H]C([H])=C1C([H])([H])C([H])([H])C2([H])OC34OC(C([H])([H])[H])(OC3([H])C([H])([H])C([H])([H])C2([H])C([H])([H])[H])C([H])([H])C([H])([H])C14[H]

$$$$
105:0:0
     RDKit          3D

 32 34  0  0  1  0  0  0  0  0999 V2000
    8.5756   -3.2567   -1.3953 N   0  0  0  0  0  0  0  0  0  0  0  0
    7.6712   -2.6783   -0.0618 S   0  0  0  0  0  0  0  0  0  0  0  0
    7.3457   -3.8396    0.7845 O   0  0  0  0  0  0  0  0  0  0  0  0
    8.3601   -1.4991    0.4782 O   0  0  0  0  0  0  0  0  0  0  0  0
    6.2310   -2.1071   -0.8606 N   0  0  0  0  0  0  0  0  0  0  0  0
    5.1143   -1.5272   -0.1033 C   0  0  1  0  0  0  0  0  0  0  0  0
    4.2410   -0.9424   -1.2213 C   0  0  0  0  0  0  0  0  0  0  0  0
    4.5563   -1.7866   -2.4594 C   0  0  0  0  0  0  0  0  0  0  0  0
    5.5881   -2.8151   -1.9653 C   0  0  2  0  0  0  0  0  0  0  0  0
    4.9093   -4.0772   -1.3985 C   0  0  0  0  0  0  0  0  0  0  0  0
    3.8600   -3.7745   -0.2943 C   0  0  1  0  0  0  0  0  0  0  0  0
    3.5228   -4.9821    0.4488 N   0  0  0  0  0  0  0  0  0  0  0  0
    4.3145   -5.8268    1.1250 C   0  0  0  0  0  0  0  0  0  0  0  0
    3.6670   -6.8337    1.6888 N   0  0  0  0  0  0  0  0  0  0  0  0
    2.3929   -6.5313    1.2996 C   0  0  0  0  0  0  0  0  0  0  0  0
    2.2461   -5.4304    0.5629 N   0  0  0  0  0  0  0  0  0  0  0  0
    4.3618   -2.6545    0.6537 C   0  0  0  0  0  0  0  0  0  0  0  0
    8.6809   -4.2667   -1.3657 H   0  0  0  0  0  0  0  0  0  0  0  0
    9.4829   -2.7848   -1.5405 H   0  0  0  0  0  0  0  0  0  0  0  0
    5.4650   -0.7555    0.5856 H   0  0  0  0  0  0  0  0  0  0  0  0
    3.1792   -0.9326   -0.9685 H   0  0  0  0  0  0  0  0  0  0  0  0
    4.5392    0.0856   -1.4082 H   0  0  0  0  0  0  0  0  0  0  0  0
    3.6635   -2.2404   -2.8932 H   0  0  0  0  0  0  0  0  0  0  0  0
    4.9997   -1.1480   -3.2208 H   0  0  0  0  0  0  0  0  0  0  0  0
    6.2987   -3.0706   -2.7548 H   0  0  0  0  0  0  0  0  0  0  0  0
    4.4420   -4.6170   -2.2132 H   0  0  0  0  0  0  0  0  0  0  0  0
    5.6816   -4.7408   -1.0159 H   0  0  0  0  0  0  0  0  0  0  0  0
    2.9533   -3.4106   -0.7860 H   0  0  0  0  0  0  0  0  0  0  0  0
    5.3838   -5.6941    1.2018 H   0  0  0  0  0  0  0  0  0  0  0  0
    1.5453   -7.1466    1.5756 H   0  0  0  0  0  0  0  0  0  0  0  0
    5.0189   -3.0682    1.4161 H   0  0  0  0  0  0  0  0  0  0  0  0
    3.5144   -2.2411    1.2015 H   0  0  0  0  0  0  0  0  0  0  0  0
  1  2  1  0
  1 18  1  0
  1 19  1  0
  2  3  2  0
  2  4  2  0
  2  5  1  0
  5  9  1  0
  5  6  1  0
  6 17  1  0
  6  7  1  0
  6 20  1  1
  7  8  1  0
  7 21  1  0
  7 22  1  0
  8  9  1  0
  8 23  1  0
  8 24  1  0
  9 10  1  0
  9 25  1  6
 10 11  1  0
 10 26  1  0
 10 27  1  0
 11 12  1  0
 11 17  1  0
 11 28  1  6
 12 16  1  0
 12 13  1  0
 13 14  2  0
 13 29  1  0
 14 15  1  0
 15 16  2  0
 15 30  1  0
 17 31  1  0
 17 32  1  0
M  END
>  <i_m_ct_stereo_status>  (363) 
1

>  <s_m_source_file>  (363) 
/var/tmp/pbs.5076255.sched01/tmp7b2cfgi2/13234zcpj2x.sdf

>  <i_m_source_file_index>  (363) 
26

>  <i_lp_mmshare_version>  (363) 
48012

>  <i_f3d_flags>  (363) 
0

>  <s_epik_input>  (363) 
W05IMl1TKD1PKSg9TylOKFtDQEBIXTEyKVtDQEhdKFtDSDJdW0NIMl0xKVtDSDJdW0NASF0oW0NIMl0yKW4zW2NIXW5bY0hdbjM=

>  <s_epik_cmdline>  (363) 
J2VwaWtfcHl0aG9uJywgJy1waHQnLCAnMi4wJywgJy1waCcsICc3LjAnLCAnLXRuJywgJzgnLCAnLW1hJywgJzIwMCcsICctaW1hZScsICc8aW5maWxlLm1hZT4nLCAnLW9tYWUnLCAnPG91dGZpbGUubWFlPic=

>  <r_lp_tautomer_probability>  (363) 
1

>  <r_epik_Ionization_Penalty>  (363) 
0.21744

>  <r_epik_Ionization_Penalty_Charging>  (363) 
0

>  <r_epik_Ionization_Penalty_Neutral>  (363) 
0.21744

>  <r_epik_State_Penalty>  (363) 
0.207682

>  <r_epik_Charging_Adjusted_Penalty>  (363) 
0.207682

>  <i_epik_Tot_Q>  (363) 
0

>  <i_epik_Tot_abs_Q>  (363) 
0

>  <s_lp_Force_Field>  (363) 
OPLS3e

>  <r_lp_Energy>  (363) 
11.479

>  <b_lp_Chiralities_Consistent>  (363) 
1

>  <s_lp_Variant>  (363) 
105:0-1

>  <s_i_glide_gridfile>  (363) 
pfpi4k_grid

>  <i_i_glide_lignum>  (363) 
26

>  <i_i_glide_rotatable_bonds>  (363) 
2

>  <r_i_docking_score>  (363) 
-3.79443

>  <r_i_glide_ligand_efficiency>  (363) 
-0.223202

>  <r_i_glide_ligand_efficiency_sa>  (363) 
-0.573915

>  <r_i_glide_ligand_efficiency_ln>  (363) 
-0.989882

>  <r_i_glide_gscore>  (363) 
-3.79443

>  <r_i_glide_lipo>  (363) 
-0.055323

>  <r_i_glide_hbond>  (363) 
-0.16

>  <r_i_glide_metal>  (363) 
-0

>  <r_i_glide_rewards>  (363) 
-1.85148

>  <r_i_glide_evdw>  (363) 
-22.8462

>  <r_i_glide_ecoul>  (363) 
-4.29448

>  <r_i_glide_erotb>  (363) 
0.266473

>  <r_i_glide_esite>  (363) 
-0.207619

>  <r_i_glide_emodel>  (363) 
-33.4609

>  <r_i_glide_energy>  (363) 
-27.1406

>  <r_i_glide_einternal>  (363) 
1.45646

>  <r_i_glide_intrahb_reward>  (363) 
-0

>  <i_i_glide_confnum>  (363) 
3

>  <i_i_glide_posenum>  (363) 
14

>  <r_i_glide_eff_state_penalty>  (363) 
0

>  <ligand_id>  (363) 
105

>  <original_smiles>  (363) 
NS(=O)(=O)N1C2CCC1CC(n1cncn1)C2

>  <smiles>  (363) 
[H]c1nc([H])n(C2([H])C([H])([H])C3([H])N(S(=O)(=O)N([H])[H])C([H])(C([H])([H])C3([H])[H])C2([H])[H])n1

$$$$
105:0:1
     RDKit          3D

 32 34  0  0  1  0  0  0  0  0999 V2000
    1.8816  -11.0074    5.2643 N   0  0  0  0  0  0  0  0  0  0  0  0
    1.7025   -9.3098    5.3948 S   0  0  0  0  0  0  0  0  0  0  0  0
    1.2168   -9.0025    6.7456 O   0  0  0  0  0  0  0  0  0  0  0  0
    2.9223   -8.6767    4.8691 O   0  0  0  0  0  0  0  0  0  0  0  0
    0.3840   -9.0466    4.2819 N   0  0  0  0  0  0  0  0  0  0  0  0
    0.3879   -9.5066    2.8910 C   0  0  1  0  0  0  0  0  0  0  0  0
   -1.0798   -9.2614    2.4802 C   0  0  0  0  0  0  0  0  0  0  0  0
   -1.5610   -8.1150    3.3760 C   0  0  0  0  0  0  0  0  0  0  0  0
   -0.3413   -7.7752    4.2490 C   0  0  2  0  0  0  0  0  0  0  0  0
    0.5641   -6.7095    3.5844 C   0  0  0  0  0  0  0  0  0  0  0  0
    1.0252   -7.1197    2.1616 C   0  0  1  0  0  0  0  0  0  0  0  0
    2.1536   -6.3067    1.7257 N   0  0  0  0  0  0  0  0  0  0  0  0
    3.3924   -6.2111    2.2203 C   0  0  0  0  0  0  0  0  0  0  0  0
    4.1673   -5.3630    1.5616 N   0  0  0  0  0  0  0  0  0  0  0  0
    3.2838   -4.9465    0.6041 C   0  0  0  0  0  0  0  0  0  0  0  0
    2.0595   -5.4703    0.6639 N   0  0  0  0  0  0  0  0  0  0  0  0
    1.3771   -8.6260    2.0898 C   0  0  0  0  0  0  0  0  0  0  0  0
    1.7251  -11.4913    6.1602 H   0  0  0  0  0  0  0  0  0  0  0  0
    2.7819  -11.2613    4.8587 H   0  0  0  0  0  0  0  0  0  0  0  0
    0.6505  -10.5664    2.8214 H   0  0  0  0  0  0  0  0  0  0  0  0
   -1.2051   -9.0352    1.4243 H   0  0  0  0  0  0  0  0  0  0  0  0
   -1.6703  -10.1506    2.6853 H   0  0  0  0  0  0  0  0  0  0  0  0
   -1.9297   -7.2604    2.8056 H   0  0  0  0  0  0  0  0  0  0  0  0
   -2.3786   -8.4667    4.0011 H   0  0  0  0  0  0  0  0  0  0  0  0
   -0.6368   -7.4725    5.2541 H   0  0  0  0  0  0  0  0  0  0  0  0
    0.0476   -5.7518    3.5393 H   0  0  0  0  0  0  0  0  0  0  0  0
    1.4261   -6.5426    4.2294 H   0  0  0  0  0  0  0  0  0  0  0  0
    0.1910   -6.9473    1.4786 H   0  0  0  0  0  0  0  0  0  0  0  0
    3.7261   -6.7734    3.0820 H   0  0  0  0  0  0  0  0  0  0  0  0
    3.5564   -4.2209   -0.1521 H   0  0  0  0  0  0  0  0  0  0  0  0
    2.3840   -8.8084    2.4547 H   0  0  0  0  0  0  0  0  0  0  0  0
    1.4153   -8.9307    1.0470 H   0  0  0  0  0  0  0  0  0  0  0  0
  1  2  1  0
  1 18  1  0
  1 19  1  0
  2  3  2  0
  2  4  2  0
  2  5  1  0
  5  9  1  0
  5  6  1  0
  6 17  1  0
  6  7  1  0
  6 20  1  1
  7  8  1  0
  7 21  1  0
  7 22  1  0
  8  9  1  0
  8 23  1  0
  8 24  1  0
  9 10  1  0
  9 25  1  1
 10 11  1  0
 10 26  1  0
 10 27  1  0
 11 12  1  0
 11 17  1  0
 11 28  1  6
 12 16  1  0
 12 13  1  0
 13 14  2  0
 13 29  1  0
 14 15  1  0
 15 16  2  0
 15 30  1  0
 17 31  1  0
 17 32  1  0
M  END
>  <i_m_ct_stereo_status>  (364) 
1

>  <s_m_source_file>  (364) 
/var/tmp/pbs.5076255.sched01/tmp7b2cfgi2/13234zcpj2x.sdf

>  <i_m_source_file_index>  (364) 
26

>  <i_lp_mmshare_version>  (364) 
48012

>  <i_f3d_flags>  (364) 
0

>  <s_epik_input>  (364) 
W05IMl1TKD1PKSg9TylOKFtDQEBIXTEyKVtDQEhdKFtDSDJdW0NIMl0xKVtDSDJdW0NASF0oW0NIMl0yKW4zW2NIXW5bY0hdbjM=

>  <s_epik_cmdline>  (364) 
J2VwaWtfcHl0aG9uJywgJy1waHQnLCAnMi4wJywgJy1waCcsICc3LjAnLCAnLXRuJywgJzgnLCAnLW1hJywgJzIwMCcsICctaW1hZScsICc8aW5maWxlLm1hZT4nLCAnLW9tYWUnLCAnPG91dGZpbGUubWFlPic=

>  <r_lp_tautomer_probability>  (364) 
1

>  <r_epik_Ionization_Penalty>  (364) 
0.21744

>  <r_epik_Ionization_Penalty_Charging>  (364) 
0

>  <r_epik_Ionization_Penalty_Neutral>  (364) 
0.21744

>  <r_epik_State_Penalty>  (364) 
0.207682

>  <r_epik_Charging_Adjusted_Penalty>  (364) 
0.207682

>  <i_epik_Tot_Q>  (364) 
0

>  <i_epik_Tot_abs_Q>  (364) 
0

>  <s_lp_Force_Field>  (364) 
OPLS3e

>  <r_lp_Energy>  (364) 
11.479

>  <b_lp_Chiralities_Consistent>  (364) 
1

>  <s_lp_Variant>  (364) 
105:0-1

>  <s_i_glide_gridfile>  (364) 
pfpi4k_grid

>  <i_i_glide_lignum>  (364) 
26

>  <i_i_glide_rotatable_bonds>  (364) 
2

>  <r_i_docking_score>  (364) 
-3.74764

>  <r_i_glide_ligand_efficiency>  (364) 
-0.220449

>  <r_i_glide_ligand_efficiency_sa>  (364) 
-0.566838

>  <r_i_glide_ligand_efficiency_ln>  (364) 
-0.977676

>  <r_i_glide_gscore>  (364) 
-3.74764

>  <r_i_glide_lipo>  (364) 
-0.19722

>  <r_i_glide_hbond>  (364) 
-0.19932

>  <r_i_glide_metal>  (364) 
-0

>  <r_i_glide_rewards>  (364) 
-1.66558

>  <r_i_glide_evdw>  (364) 
-20.4606

>  <r_i_glide_ecoul>  (364) 
-4.5009

>  <r_i_glide_erotb>  (364) 
0.266473

>  <r_i_glide_esite>  (364) 
-0.25383

>  <r_i_glide_emodel>  (364) 
-31.8393

>  <r_i_glide_energy>  (364) 
-24.9615

>  <r_i_glide_einternal>  (364) 
0.521706

>  <r_i_glide_intrahb_reward>  (364) 
-0

>  <i_i_glide_confnum>  (364) 
3

>  <i_i_glide_posenum>  (364) 
33

>  <r_i_glide_eff_state_penalty>  (364) 
0

>  <ligand_id>  (364) 
105

>  <original_smiles>  (364) 
NS(=O)(=O)N1C2CCC1CC(n1cncn1)C2

>  <smiles>  (364) 
[H]c1nc([H])n(C2([H])C([H])([H])C3([H])N(S(=O)(=O)N([H])[H])C([H])(C([H])([H])C3([H])[H])C2([H])[H])n1

$$$$
105:0:2
     RDKit          3D

 32 34  0  0  1  0  0  0  0  0999 V2000
    8.5512   -1.4718    0.3774 N   0  0  0  0  0  0  0  0  0  0  0  0
    7.7586   -2.9081   -0.1300 S   0  0  0  0  0  0  0  0  0  0  0  0
    8.5491   -3.4649   -1.2341 O   0  0  0  0  0  0  0  0  0  0  0  0
    7.4437   -3.7168    1.0547 O   0  0  0  0  0  0  0  0  0  0  0  0
    6.2972   -2.2128   -0.7909 N   0  0  0  0  0  0  0  0  0  0  0  0
    5.2157   -1.6525    0.0338 C   0  0  1  0  0  0  0  0  0  0  0  0
    4.3145   -0.9905   -1.0282 C   0  0  0  0  0  0  0  0  0  0  0  0
    4.5738   -1.7678   -2.3238 C   0  0  0  0  0  0  0  0  0  0  0  0
    5.6036   -2.8357   -1.9194 C   0  0  2  0  0  0  0  0  0  0  0  0
    4.9149   -4.1167   -1.4076 C   0  0  0  0  0  0  0  0  0  0  0  0
    3.9067   -3.8616   -0.2525 C   0  0  1  0  0  0  0  0  0  0  0  0
    3.5709   -5.1069    0.4284 N   0  0  0  0  0  0  0  0  0  0  0  0
    4.3675   -6.0579    0.9370 C   0  0  0  0  0  0  0  0  0  0  0  0
    3.7130   -7.0583    1.5031 N   0  0  0  0  0  0  0  0  0  0  0  0
    2.4304   -6.6294    1.3098 C   0  0  0  0  0  0  0  0  0  0  0  0
    2.2851   -5.4611    0.6869 N   0  0  0  0  0  0  0  0  0  0  0  0
    4.4542   -2.8068    0.7443 C   0  0  0  0  0  0  0  0  0  0  0  0
    9.4594   -1.3452   -0.0877 H   0  0  0  0  0  0  0  0  0  0  0  0
    8.6292   -1.4258    1.3926 H   0  0  0  0  0  0  0  0  0  0  0  0
    5.6015   -0.9220    0.7513 H   0  0  0  0  0  0  0  0  0  0  0  0
    3.2589   -0.9825   -0.7448 H   0  0  0  0  0  0  0  0  0  0  0  0
    4.6119    0.0429   -1.1810 H   0  0  0  0  0  0  0  0  0  0  0  0
    3.6611   -2.1933   -2.7500 H   0  0  0  0  0  0  0  0  0  0  0  0
    4.9977   -1.1067   -3.0773 H   0  0  0  0  0  0  0  0  0  0  0  0
    6.2929   -3.0636   -2.7348 H   0  0  0  0  0  0  0  0  0  0  0  0
    4.4059   -4.5898   -2.2358 H   0  0  0  0  0  0  0  0  0  0  0  0
    5.6889   -4.8160   -1.0976 H   0  0  0  0  0  0  0  0  0  0  0  0
    2.9918   -3.4608   -0.6959 H   0  0  0  0  0  0  0  0  0  0  0  0
    5.4457   -6.0107    0.8901 H   0  0  0  0  0  0  0  0  0  0  0  0
    1.5781   -7.2073    1.6463 H   0  0  0  0  0  0  0  0  0  0  0  0
    5.1061   -3.2927    1.4659 H   0  0  0  0  0  0  0  0  0  0  0  0
    3.6300   -2.4064    1.3339 H   0  0  0  0  0  0  0  0  0  0  0  0
  1  2  1  0
  1 18  1  0
  1 19  1  0
  2  3  2  0
  2  4  2  0
  2  5  1  0
  5  9  1  0
  5  6  1  0
  6 17  1  0
  6  7  1  0
  6 20  1  1
  7  8  1  0
  7 21  1  0
  7 22  1  0
  8  9  1  0
  8 23  1  0
  8 24  1  0
  9 10  1  0
  9 25  1  6
 10 11  1  0
 10 26  1  0
 10 27  1  0
 11 12  1  0
 11 17  1  0
 11 28  1  6
 12 16  1  0
 12 13  1  0
 13 14  2  0
 13 29  1  0
 14 15  1  0
 15 16  2  0
 15 30  1  0
 17 31  1  0
 17 32  1  0
M  END
>  <i_m_ct_stereo_status>  (365) 
1

>  <s_m_source_file>  (365) 
/var/tmp/pbs.5076255.sched01/tmp7b2cfgi2/13234zcpj2x.sdf

>  <i_m_source_file_index>  (365) 
26

>  <i_lp_mmshare_version>  (365) 
48012

>  <i_f3d_flags>  (365) 
0

>  <s_epik_input>  (365) 
W05IMl1TKD1PKSg9TylOKFtDQEBIXTEyKVtDQEhdKFtDSDJdW0NIMl0xKVtDSDJdW0NASF0oW0NIMl0yKW4zW2NIXW5bY0hdbjM=

>  <s_epik_cmdline>  (365) 
J2VwaWtfcHl0aG9uJywgJy1waHQnLCAnMi4wJywgJy1waCcsICc3LjAnLCAnLXRuJywgJzgnLCAnLW1hJywgJzIwMCcsICctaW1hZScsICc8aW5maWxlLm1hZT4nLCAnLW9tYWUnLCAnPG91dGZpbGUubWFlPic=

>  <r_lp_tautomer_probability>  (365) 
1

>  <r_epik_Ionization_Penalty>  (365) 
0.21744

>  <r_epik_Ionization_Penalty_Charging>  (365) 
0

>  <r_epik_Ionization_Penalty_Neutral>  (365) 
0.21744

>  <r_epik_State_Penalty>  (365) 
0.207682

>  <r_epik_Charging_Adjusted_Penalty>  (365) 
0.207682

>  <i_epik_Tot_Q>  (365) 
0

>  <i_epik_Tot_abs_Q>  (365) 
0

>  <s_lp_Force_Field>  (365) 
OPLS3e

>  <r_lp_Energy>  (365) 
11.479

>  <b_lp_Chiralities_Consistent>  (365) 
1

>  <s_lp_Variant>  (365) 
105:0-1

>  <s_i_glide_gridfile>  (365) 
pfpi4k_grid

>  <i_i_glide_lignum>  (365) 
26

>  <i_i_glide_rotatable_bonds>  (365) 
2

>  <r_i_docking_score>  (365) 
-3.68842

>  <r_i_glide_ligand_efficiency>  (365) 
-0.216966

>  <r_i_glide_ligand_efficiency_sa>  (365) 
-0.557881

>  <r_i_glide_ligand_efficiency_ln>  (365) 
-0.962228

>  <r_i_glide_gscore>  (365) 
-3.68842

>  <r_i_glide_lipo>  (365) 
-0.0657635

>  <r_i_glide_hbond>  (365) 
-0.16

>  <r_i_glide_metal>  (365) 
-0

>  <r_i_glide_rewards>  (365) 
-1.93411

>  <r_i_glide_evdw>  (365) 
-22.9117

>  <r_i_glide_ecoul>  (365) 
-3.04996

>  <r_i_glide_erotb>  (365) 
0.266473

>  <r_i_glide_esite>  (365) 
-0.19194

>  <r_i_glide_emodel>  (365) 
-31.901

>  <r_i_glide_energy>  (365) 
-25.9617

>  <r_i_glide_einternal>  (365) 
1.94576

>  <r_i_glide_intrahb_reward>  (365) 
-0

>  <i_i_glide_confnum>  (365) 
3

>  <i_i_glide_posenum>  (365) 
15

>  <r_i_glide_eff_state_penalty>  (365) 
0

>  <ligand_id>  (365) 
105

>  <original_smiles>  (365) 
NS(=O)(=O)N1C2CCC1CC(n1cncn1)C2

>  <smiles>  (365) 
[H]c1nc([H])n(C2([H])C([H])([H])C3([H])N(S(=O)(=O)N([H])[H])C([H])(C([H])([H])C3([H])[H])C2([H])[H])n1

$$$$
105:1:0
     RDKit          3D

 32 34  0  0  1  0  0  0  0  0999 V2000
    6.3808   -5.2860    2.3651 N   0  0  0  0  0  0  0  0  0  0  0  0
    5.1304   -4.1138    2.3905 S   0  0  0  0  0  0  0  0  0  0  0  0
    3.8603   -4.8029    2.1504 O   0  0  0  0  0  0  0  0  0  0  0  0
    5.3221   -3.2620    3.5774 O   0  0  0  0  0  0  0  0  0  0  0  0
    5.5754   -3.1740    0.9886 N   0  0  0  0  0  0  0  0  0  0  0  0
    4.9159   -1.9042    0.6848 C   0  0  1  0  0  0  0  0  0  0  0  0
    5.8521   -1.3403   -0.4024 C   0  0  0  0  0  0  0  0  0  0  0  0
    6.4659   -2.5962   -1.0751 C   0  0  0  0  0  0  0  0  0  0  0  0
    5.8437   -3.7799   -0.3200 C   0  0  2  0  0  0  0  0  0  0  0  0
    4.4947   -4.2583   -0.9244 C   0  0  0  0  0  0  0  0  0  0  0  0
    3.4353   -3.1264   -1.0777 C   0  0  2  0  0  0  0  0  0  0  0  0
    3.6313   -2.3760   -2.3170 N   0  0  0  0  0  0  0  0  0  0  0  0
    4.0394   -2.7657   -3.5273 C   0  0  0  0  0  0  0  0  0  0  0  0
    4.2073   -1.7609   -4.3792 N   0  0  0  0  0  0  0  0  0  0  0  0
    3.7225   -0.7344   -3.6256 C   0  0  0  0  0  0  0  0  0  0  0  0
    3.3622   -1.0546   -2.3961 N   0  0  0  0  0  0  0  0  0  0  0  0
    3.4708   -2.2100    0.1860 C   0  0  0  0  0  0  0  0  0  0  0  0
    6.0098   -6.2230    2.2152 H   0  0  0  0  0  0  0  0  0  0  0  0
    6.9759   -5.2181    3.1889 H   0  0  0  0  0  0  0  0  0  0  0  0
    4.8946   -1.2650    1.5659 H   0  0  0  0  0  0  0  0  0  0  0  0
    5.3508   -0.6660   -1.0991 H   0  0  0  0  0  0  0  0  0  0  0  0
    6.6488   -0.7697    0.0785 H   0  0  0  0  0  0  0  0  0  0  0  0
    6.2875   -2.6466   -2.1469 H   0  0  0  0  0  0  0  0  0  0  0  0
    7.5482   -2.5926   -0.9508 H   0  0  0  0  0  0  0  0  0  0  0  0
    6.5472   -4.6133   -0.2309 H   0  0  0  0  0  0  0  0  0  0  0  0
    4.6911   -4.7605   -1.8656 H   0  0  0  0  0  0  0  0  0  0  0  0
    4.0748   -5.0433   -0.2968 H   0  0  0  0  0  0  0  0  0  0  0  0
    2.4431   -3.5811   -1.1592 H   0  0  0  0  0  0  0  0  0  0  0  0
    4.3252   -3.7861   -3.7616 H   0  0  0  0  0  0  0  0  0  0  0  0
    3.7388    0.2821   -3.9788 H   0  0  0  0  0  0  0  0  0  0  0  0
    2.9028   -2.6924    0.9841 H   0  0  0  0  0  0  0  0  0  0  0  0
    2.9460   -1.2653    0.0262 H   0  0  0  0  0  0  0  0  0  0  0  0
  1  2  1  0
  1 18  1  0
  1 19  1  0
  2  3  2  0
  2  4  2  0
  2  5  1  0
  5  9  1  0
  5  6  1  0
  6 17  1  0
  6  7  1  0
  6 20  1  1
  7  8  1  0
  7 21  1  0
  7 22  1  0
  8  9  1  0
  8 23  1  0
  8 24  1  0
  9 10  1  0
  9 25  1  1
 10 11  1  0
 10 26  1  0
 10 27  1  0
 11 12  1  0
 11 17  1  0
 11 28  1  6
 12 16  1  0
 12 13  1  0
 13 14  2  0
 13 29  1  0
 14 15  1  0
 15 16  2  0
 15 30  1  0
 17 31  1  0
 17 32  1  0
M  END
>  <i_m_ct_stereo_status>  (366) 
1

>  <s_m_source_file>  (366) 
/var/tmp/pbs.5076255.sched01/tmp7b2cfgi2/13234zcpj2x.sdf

>  <i_m_source_file_index>  (366) 
27

>  <i_lp_mmshare_version>  (366) 
48012

>  <i_f3d_flags>  (366) 
0

>  <s_epik_input>  (366) 
W05IMl1TKD1PKSg9TylOKFtDQEBIXTEyKVtDQEhdKFtDSDJdW0NIMl0xKVtDSDJdW0NASF0oW0NIMl0yKW4zW2NIXW5bY0hdbjM=

>  <s_epik_cmdline>  (366) 
J2VwaWtfcHl0aG9uJywgJy1waHQnLCAnMi4wJywgJy1waCcsICc3LjAnLCAnLXRuJywgJzgnLCAnLW1hJywgJzIwMCcsICctaW1hZScsICc8aW5maWxlLm1hZT4nLCAnLW9tYWUnLCAnPG91dGZpbGUubWFlPic=

>  <r_lp_tautomer_probability>  (366) 
1

>  <r_epik_Ionization_Penalty>  (366) 
0.21744

>  <r_epik_Ionization_Penalty_Charging>  (366) 
0

>  <r_epik_Ionization_Penalty_Neutral>  (366) 
0.21744

>  <r_epik_State_Penalty>  (366) 
0.207682

>  <r_epik_Charging_Adjusted_Penalty>  (366) 
0.207682

>  <i_epik_Tot_Q>  (366) 
0

>  <i_epik_Tot_abs_Q>  (366) 
0

>  <s_lp_Force_Field>  (366) 
OPLS3e

>  <r_lp_Energy>  (366) 
18.2592

>  <b_lp_Chiralities_Consistent>  (366) 
1

>  <s_lp_Variant>  (366) 
105:0-2

>  <s_i_glide_gridfile>  (366) 
pfpi4k_grid

>  <i_i_glide_lignum>  (366) 
27

>  <i_i_glide_rotatable_bonds>  (366) 
2

>  <r_i_docking_score>  (366) 
-4.36609

>  <r_i_glide_ligand_efficiency>  (366) 
-0.256829

>  <r_i_glide_ligand_efficiency_sa>  (366) 
-0.66038

>  <r_i_glide_ligand_efficiency_ln>  (366) 
-1.13902

>  <r_i_glide_gscore>  (366) 
-4.36609

>  <r_i_glide_lipo>  (366) 
-0.0996592

>  <r_i_glide_hbond>  (366) 
-0.32

>  <r_i_glide_metal>  (366) 
-0

>  <r_i_glide_rewards>  (366) 
-2.39026

>  <r_i_glide_evdw>  (366) 
-22.4704

>  <r_i_glide_ecoul>  (366) 
-4.56206

>  <r_i_glide_erotb>  (366) 
0.266473

>  <r_i_glide_esite>  (366) 
-0.0148148

>  <r_i_glide_emodel>  (366) 
-35.3847

>  <r_i_glide_energy>  (366) 
-27.0325

>  <r_i_glide_einternal>  (366) 
0.374168

>  <r_i_glide_intrahb_reward>  (366) 
-0

>  <i_i_glide_confnum>  (366) 
5

>  <i_i_glide_posenum>  (366) 
8

>  <r_i_glide_eff_state_penalty>  (366) 
0

>  <ligand_id>  (366) 
105

>  <original_smiles>  (366) 
NS(=O)(=O)N1C2CCC1CC(n1cncn1)C2

>  <smiles>  (366) 
[H]c1nc([H])n(C2([H])C([H])([H])C3([H])N(S(=O)(=O)N([H])[H])C([H])(C([H])([H])C3([H])[H])C2([H])[H])n1

$$$$
105:1:1
     RDKit          3D

 32 34  0  0  1  0  0  0  0  0999 V2000
    2.3519   -3.0534   -3.0008 N   0  0  0  0  0  0  0  0  0  0  0  0
    3.9362   -2.6537   -3.5315 S   0  0  0  0  0  0  0  0  0  0  0  0
    4.4776   -3.8182   -4.2547 O   0  0  0  0  0  0  0  0  0  0  0  0
    3.8633   -1.3363   -4.1728 O   0  0  0  0  0  0  0  0  0  0  0  0
    4.7851   -2.5000   -2.0015 N   0  0  0  0  0  0  0  0  0  0  0  0
    4.2309   -1.6215   -0.9589 C   0  0  1  0  0  0  0  0  0  0  0  0
    3.3160   -2.5844   -0.1653 C   0  0  0  0  0  0  0  0  0  0  0  0
    3.9147   -3.9948   -0.4108 C   0  0  0  0  0  0  0  0  0  0  0  0
    5.1734   -3.7077   -1.2667 C   0  0  2  0  0  0  0  0  0  0  0  0
    6.4638   -3.3652   -0.4533 C   0  0  0  0  0  0  0  0  0  0  0  0
    6.2547   -2.2189    0.5837 C   0  0  2  0  0  0  0  0  0  0  0  0
    5.6305   -2.7069    1.8276 N   0  0  0  0  0  0  0  0  0  0  0  0
    5.4854   -3.9408    2.3366 C   0  0  0  0  0  0  0  0  0  0  0  0
    4.8155   -3.9787    3.4752 N   0  0  0  0  0  0  0  0  0  0  0  0
    4.6011   -2.6502    3.6604 C   0  0  0  0  0  0  0  0  0  0  0  0
    5.1308   -1.8362    2.7459 N   0  0  0  0  0  0  0  0  0  0  0  0
    5.4152   -1.0866   -0.0953 C   0  0  0  0  0  0  0  0  0  0  0  0
    2.0638   -4.0038   -3.2410 H   0  0  0  0  0  0  0  0  0  0  0  0
    1.6628   -2.3288   -3.1976 H   0  0  0  0  0  0  0  0  0  0  0  0
    3.6817   -0.7862   -1.4054 H   0  0  0  0  0  0  0  0  0  0  0  0
    3.2308   -2.3087    0.8816 H   0  0  0  0  0  0  0  0  0  0  0  0
    2.2960   -2.5511   -0.5443 H   0  0  0  0  0  0  0  0  0  0  0  0
    4.0904   -4.5730    0.4870 H   0  0  0  0  0  0  0  0  0  0  0  0
    3.2048   -4.5627   -1.0223 H   0  0  0  0  0  0  0  0  0  0  0  0
    5.3836   -4.5255   -1.9606 H   0  0  0  0  0  0  0  0  0  0  0  0
    6.8573   -4.2651    0.0201 H   0  0  0  0  0  0  0  0  0  0  0  0
    7.2522   -3.0646   -1.1492 H   0  0  0  0  0  0  0  0  0  0  0  0
    7.2377   -1.8052    0.8482 H   0  0  0  0  0  0  0  0  0  0  0  0
    5.8580   -4.8401    1.8368 H   0  0  0  0  0  0  0  0  0  0  0  0
    4.0328   -2.2788    4.5098 H   0  0  0  0  0  0  0  0  0  0  0  0
    6.0734   -0.5006   -0.7368 H   0  0  0  0  0  0  0  0  0  0  0  0
    5.0411   -0.3643    0.6335 H   0  0  0  0  0  0  0  0  0  0  0  0
  1  2  1  0
  1 18  1  0
  1 19  1  0
  2  3  2  0
  2  4  2  0
  2  5  1  0
  5  9  1  0
  5  6  1  0
  6 17  1  0
  6  7  1  0
  6 20  1  6
  7  8  1  0
  7 21  1  0
  7 22  1  0
  8  9  1  0
  8 23  1  0
  8 24  1  0
  9 10  1  0
  9 25  1  6
 10 11  1  0
 10 26  1  0
 10 27  1  0
 11 12  1  0
 11 17  1  0
 11 28  1  1
 12 16  1  0
 12 13  1  0
 13 14  2  0
 13 29  1  0
 14 15  1  0
 15 16  2  0
 15 30  1  0
 17 31  1  0
 17 32  1  0
M  END
>  <i_m_ct_stereo_status>  (367) 
1

>  <s_m_source_file>  (367) 
/var/tmp/pbs.5076255.sched01/tmp7b2cfgi2/13234zcpj2x.sdf

>  <i_m_source_file_index>  (367) 
27

>  <i_lp_mmshare_version>  (367) 
48012

>  <i_f3d_flags>  (367) 
0

>  <s_epik_input>  (367) 
W05IMl1TKD1PKSg9TylOKFtDQEBIXTEyKVtDQEhdKFtDSDJdW0NIMl0xKVtDSDJdW0NASF0oW0NIMl0yKW4zW2NIXW5bY0hdbjM=

>  <s_epik_cmdline>  (367) 
J2VwaWtfcHl0aG9uJywgJy1waHQnLCAnMi4wJywgJy1waCcsICc3LjAnLCAnLXRuJywgJzgnLCAnLW1hJywgJzIwMCcsICctaW1hZScsICc8aW5maWxlLm1hZT4nLCAnLW9tYWUnLCAnPG91dGZpbGUubWFlPic=

>  <r_lp_tautomer_probability>  (367) 
1

>  <r_epik_Ionization_Penalty>  (367) 
0.21744

>  <r_epik_Ionization_Penalty_Charging>  (367) 
0

>  <r_epik_Ionization_Penalty_Neutral>  (367) 
0.21744

>  <r_epik_State_Penalty>  (367) 
0.207682

>  <r_epik_Charging_Adjusted_Penalty>  (367) 
0.207682

>  <i_epik_Tot_Q>  (367) 
0

>  <i_epik_Tot_abs_Q>  (367) 
0

>  <s_lp_Force_Field>  (367) 
OPLS3e

>  <r_lp_Energy>  (367) 
18.2592

>  <b_lp_Chiralities_Consistent>  (367) 
1

>  <s_lp_Variant>  (367) 
105:0-2

>  <s_i_glide_gridfile>  (367) 
pfpi4k_grid

>  <i_i_glide_lignum>  (367) 
27

>  <i_i_glide_rotatable_bonds>  (367) 
2

>  <r_i_docking_score>  (367) 
-4.27741

>  <r_i_glide_ligand_efficiency>  (367) 
-0.251612

>  <r_i_glide_ligand_efficiency_sa>  (367) 
-0.646966

>  <r_i_glide_ligand_efficiency_ln>  (367) 
-1.11588

>  <r_i_glide_gscore>  (367) 
-4.27741

>  <r_i_glide_lipo>  (367) 
-0.228927

>  <r_i_glide_hbond>  (367) 
-0.0800188

>  <r_i_glide_metal>  (367) 
-0

>  <r_i_glide_rewards>  (367) 
-2.11038

>  <r_i_glide_evdw>  (367) 
-26.7646

>  <r_i_glide_ecoul>  (367) 
-4.96208

>  <r_i_glide_erotb>  (367) 
0.266473

>  <r_i_glide_esite>  (367) 
-0.042012

>  <r_i_glide_emodel>  (367) 
-38.8313

>  <r_i_glide_energy>  (367) 
-31.7267

>  <r_i_glide_einternal>  (367) 
0.834339

>  <r_i_glide_intrahb_reward>  (367) 
-0

>  <i_i_glide_confnum>  (367) 
3

>  <i_i_glide_posenum>  (367) 
1

>  <r_i_glide_eff_state_penalty>  (367) 
0

>  <ligand_id>  (367) 
105

>  <original_smiles>  (367) 
NS(=O)(=O)N1C2CCC1CC(n1cncn1)C2

>  <smiles>  (367) 
[H]c1nc([H])n(C2([H])C([H])([H])C3([H])N(S(=O)(=O)N([H])[H])C([H])(C([H])([H])C3([H])[H])C2([H])[H])n1

$$$$
105:1:2
     RDKit          3D

 32 34  0  0  1  0  0  0  0  0999 V2000
    5.0140   -2.5223    3.8657 N   0  0  0  0  0  0  0  0  0  0  0  0
    4.8301   -3.8276    2.7693 S   0  0  0  0  0  0  0  0  0  0  0  0
    5.8108   -4.8711    3.1340 O   0  0  0  0  0  0  0  0  0  0  0  0
    3.3996   -4.1288    2.6697 O   0  0  0  0  0  0  0  0  0  0  0  0
    5.3879   -3.0664    1.3066 N   0  0  0  0  0  0  0  0  0  0  0  0
    4.8985   -1.7643    0.8561 C   0  0  1  0  0  0  0  0  0  0  0  0
    5.9186   -1.4404   -0.2551 C   0  0  0  0  0  0  0  0  0  0  0  0
    6.3614   -2.8198   -0.7962 C   0  0  0  0  0  0  0  0  0  0  0  0
    5.5950   -3.8313    0.0750 C   0  0  2  0  0  0  0  0  0  0  0  0
    4.1989   -4.2051   -0.5061 C   0  0  0  0  0  0  0  0  0  0  0  0
    3.2940   -2.9708   -0.8136 C   0  0  2  0  0  0  0  0  0  0  0  0
    3.5713   -2.3765   -2.1205 N   0  0  0  0  0  0  0  0  0  0  0  0
    3.9084   -2.9451   -3.3046 C   0  0  0  0  0  0  0  0  0  0  0  0
    4.1865   -2.0598   -4.2489 N   0  0  0  0  0  0  0  0  0  0  0  0
    3.8933   -0.9001   -3.5943 C   0  0  0  0  0  0  0  0  0  0  0  0
    3.4489   -1.0575   -2.3377 N   0  0  0  0  0  0  0  0  0  0  0  0
    3.4307   -1.9387    0.3593 C   0  0  0  0  0  0  0  0  0  0  0  0
    5.7044   -2.7307    4.5856 H   0  0  0  0  0  0  0  0  0  0  0  0
    4.1184   -2.2156    4.2451 H   0  0  0  0  0  0  0  0  0  0  0  0
    4.9471   -1.0235    1.6562 H   0  0  0  0  0  0  0  0  0  0  0  0
    5.5397   -0.7652   -1.0180 H   0  0  0  0  0  0  0  0  0  0  0  0
    6.7832   -0.9342    0.1730 H   0  0  0  0  0  0  0  0  0  0  0  0
    6.1752   -2.9596   -1.8578 H   0  0  0  0  0  0  0  0  0  0  0  0
    7.4357   -2.9424   -0.6686 H   0  0  0  0  0  0  0  0  0  0  0  0
    6.1891   -4.7290    0.2704 H   0  0  0  0  0  0  0  0  0  0  0  0
    4.3489   -4.8200   -1.3897 H   0  0  0  0  0  0  0  0  0  0  0  0
    3.6856   -4.8727    0.1900 H   0  0  0  0  0  0  0  0  0  0  0  0
    2.2539   -3.3090   -0.8554 H   0  0  0  0  0  0  0  0  0  0  0  0
    4.0378   -4.0102   -3.4202 H   0  0  0  0  0  0  0  0  0  0  0  0
    4.0831    0.0721   -4.0069 H   0  0  0  0  0  0  0  0  0  0  0  0
    2.7955   -2.2599    1.1883 H   0  0  0  0  0  0  0  0  0  0  0  0
    3.0154   -0.9653    0.1006 H   0  0  0  0  0  0  0  0  0  0  0  0
  1  2  1  0
  1 18  1  0
  1 19  1  0
  2  3  2  0
  2  4  2  0
  2  5  1  0
  5  9  1  0
  5  6  1  0
  6 17  1  0
  6  7  1  0
  6 20  1  1
  7  8  1  0
  7 21  1  0
  7 22  1  0
  8  9  1  0
  8 23  1  0
  8 24  1  0
  9 10  1  0
  9 25  1  1
 10 11  1  0
 10 26  1  0
 10 27  1  0
 11 12  1  0
 11 17  1  0
 11 28  1  6
 12 16  1  0
 12 13  1  0
 13 14  2  0
 13 29  1  0
 14 15  1  0
 15 16  2  0
 15 30  1  0
 17 31  1  0
 17 32  1  0
M  END
>  <i_m_ct_stereo_status>  (368) 
1

>  <s_m_source_file>  (368) 
/var/tmp/pbs.5076255.sched01/tmp7b2cfgi2/13234zcpj2x.sdf

>  <i_m_source_file_index>  (368) 
27

>  <i_lp_mmshare_version>  (368) 
48012

>  <i_f3d_flags>  (368) 
0

>  <s_epik_input>  (368) 
W05IMl1TKD1PKSg9TylOKFtDQEBIXTEyKVtDQEhdKFtDSDJdW0NIMl0xKVtDSDJdW0NASF0oW0NIMl0yKW4zW2NIXW5bY0hdbjM=

>  <s_epik_cmdline>  (368) 
J2VwaWtfcHl0aG9uJywgJy1waHQnLCAnMi4wJywgJy1waCcsICc3LjAnLCAnLXRuJywgJzgnLCAnLW1hJywgJzIwMCcsICctaW1hZScsICc8aW5maWxlLm1hZT4nLCAnLW9tYWUnLCAnPG91dGZpbGUubWFlPic=

>  <r_lp_tautomer_probability>  (368) 
1

>  <r_epik_Ionization_Penalty>  (368) 
0.21744

>  <r_epik_Ionization_Penalty_Charging>  (368) 
0

>  <r_epik_Ionization_Penalty_Neutral>  (368) 
0.21744

>  <r_epik_State_Penalty>  (368) 
0.207682

>  <r_epik_Charging_Adjusted_Penalty>  (368) 
0.207682

>  <i_epik_Tot_Q>  (368) 
0

>  <i_epik_Tot_abs_Q>  (368) 
0

>  <s_lp_Force_Field>  (368) 
OPLS3e

>  <r_lp_Energy>  (368) 
18.2592

>  <b_lp_Chiralities_Consistent>  (368) 
1

>  <s_lp_Variant>  (368) 
105:0-2

>  <s_i_glide_gridfile>  (368) 
pfpi4k_grid

>  <i_i_glide_lignum>  (368) 
27

>  <i_i_glide_rotatable_bonds>  (368) 
2

>  <r_i_docking_score>  (368) 
-4.22972

>  <r_i_glide_ligand_efficiency>  (368) 
-0.248807

>  <r_i_glide_ligand_efficiency_sa>  (368) 
-0.639754

>  <r_i_glide_ligand_efficiency_ln>  (368) 
-1.10344

>  <r_i_glide_gscore>  (368) 
-4.22972

>  <r_i_glide_lipo>  (368) 
-0.0977513

>  <r_i_glide_hbond>  (368) 
-0.32

>  <r_i_glide_metal>  (368) 
-0

>  <r_i_glide_rewards>  (368) 
-2.27634

>  <r_i_glide_evdw>  (368) 
-22.8315

>  <r_i_glide_ecoul>  (368) 
-4.22669

>  <r_i_glide_erotb>  (368) 
0.266473

>  <r_i_glide_esite>  (368) 
-0.0265264

>  <r_i_glide_emodel>  (368) 
-34.9839

>  <r_i_glide_energy>  (368) 
-27.0582

>  <r_i_glide_einternal>  (368) 
0.575369

>  <r_i_glide_intrahb_reward>  (368) 
-0

>  <i_i_glide_confnum>  (368) 
1

>  <i_i_glide_posenum>  (368) 
13

>  <r_i_glide_eff_state_penalty>  (368) 
0

>  <ligand_id>  (368) 
105

>  <original_smiles>  (368) 
NS(=O)(=O)N1C2CCC1CC(n1cncn1)C2

>  <smiles>  (368) 
[H]c1nc([H])n(C2([H])C([H])([H])C3([H])N(S(=O)(=O)N([H])[H])C([H])(C([H])([H])C3([H])[H])C2([H])[H])n1

$$$$
105:2:0
     RDKit          3D

 31 33  0  0  1  0  0  0  0  0999 V2000
    0.2001   -6.2580    1.1505 N   0  0  0  0  0  0  0  0  0  0  0  0
    1.3074   -6.3861    2.3196 S   0  0  0  0  0  0  0  0  0  0  0  0
    2.6666   -6.1554    1.8127 O   0  0  0  0  0  0  0  0  0  0  0  0
    0.8975   -5.6870    3.5504 O   0  0  0  0  0  0  0  0  0  0  0  0
    1.1923   -8.1078    2.5907 N   0  0  0  0  0  0  0  0  0  0  0  0
   -0.0459   -8.7947    2.9639 C   0  0  1  0  0  0  0  0  0  0  0  0
    0.3575  -10.2757    2.8369 C   0  0  0  0  0  0  0  0  0  0  0  0
    1.8781  -10.2968    3.0653 C   0  0  0  0  0  0  0  0  0  0  0  0
    2.2412   -8.8258    3.3156 C   0  0  2  0  0  0  0  0  0  0  0  0
    2.1412   -8.4583    4.8171 C   0  0  0  0  0  0  0  0  0  0  0  0
    0.7493   -8.7771    5.4199 C   0  0  1  0  0  0  0  0  0  0  0  0
    0.5646   -8.1183    6.7114 N   0  0  0  0  0  0  0  0  0  0  0  0
    0.3524   -8.6403    7.9223 C   0  0  0  0  0  0  0  0  0  0  0  0
    0.2137   -7.7308    8.8804 N   0  0  0  0  0  0  0  0  0  0  0  0
    0.3775   -6.5899    8.1375 C   0  0  0  0  0  0  0  0  0  0  0  0
    0.5763   -6.7686    6.8313 N   0  0  0  0  0  0  0  0  0  0  0  0
   -0.3958   -8.4327    4.4301 C   0  0  0  0  0  0  0  0  0  0  0  0
    0.6647   -6.4828    0.2603 H   0  0  0  0  0  0  0  0  0  0  0  0
   -0.8603   -8.5422    2.2807 H   0  0  0  0  0  0  0  0  0  0  0  0
   -0.1847  -10.9231    3.5291 H   0  0  0  0  0  0  0  0  0  0  0  0
    0.1428  -10.6392    1.8325 H   0  0  0  0  0  0  0  0  0  0  0  0
    2.1726  -10.9600    3.8828 H   0  0  0  0  0  0  0  0  0  0  0  0
    2.3849  -10.6555    2.1685 H   0  0  0  0  0  0  0  0  0  0  0  0
    3.2318   -8.5879    2.9209 H   0  0  0  0  0  0  0  0  0  0  0  0
    2.9086   -8.9846    5.3878 H   0  0  0  0  0  0  0  0  0  0  0  0
    2.3744   -7.3995    4.9246 H   0  0  0  0  0  0  0  0  0  0  0  0
    0.7108   -9.8573    5.5870 H   0  0  0  0  0  0  0  0  0  0  0  0
    0.2914   -9.7101    8.0910 H   0  0  0  0  0  0  0  0  0  0  0  0
    0.3289   -5.6040    8.5669 H   0  0  0  0  0  0  0  0  0  0  0  0
   -0.6486   -7.3762    4.4833 H   0  0  0  0  0  0  0  0  0  0  0  0
   -1.3060   -8.9508    4.7331 H   0  0  0  0  0  0  0  0  0  0  0  0
  1  2  1  0
  1 18  1  0
  2  3  2  0
  2  4  2  0
  2  5  1  0
  5  9  1  0
  5  6  1  0
  6 17  1  0
  6  7  1  0
  6 19  1  6
  7  8  1  0
  7 20  1  0
  7 21  1  0
  8  9  1  0
  8 22  1  0
  8 23  1  0
  9 10  1  0
  9 24  1  6
 10 11  1  0
 10 25  1  0
 10 26  1  0
 11 12  1  0
 11 17  1  0
 11 27  1  1
 12 16  1  0
 12 13  1  0
 13 14  2  0
 13 28  1  0
 14 15  1  0
 15 16  2  0
 15 29  1  0
 17 30  1  0
 17 31  1  0
M  CHG  1   1  -1
M  END
>  <i_m_ct_stereo_status>  (369) 
1

>  <s_m_source_file>  (369) 
/var/tmp/pbs.5076255.sched01/tmp7b2cfgi2/13234zcpj2x.sdf

>  <i_m_source_file_index>  (369) 
28

>  <i_lp_mmshare_version>  (369) 
48012

>  <i_f3d_flags>  (369) 
0

>  <s_epik_input>  (369) 
W05IMl1TKD1PKSg9TylOKFtDQEBIXTEyKVtDQEhdKFtDSDJdW0NIMl0xKVtDSDJdW0NASF0oW0NIMl0yKW4zW2NIXW5bY0hdbjM=

>  <s_epik_cmdline>  (369) 
J2VwaWtfcHl0aG9uJywgJy1waHQnLCAnMi4wJywgJy1waCcsICc3LjAnLCAnLXRuJywgJzgnLCAnLW1hJywgJzIwMCcsICctaW1hZScsICc8aW5maWxlLm1hZT4nLCAnLW9tYWUnLCAnPG91dGZpbGUubWFlPic=

>  <r_lp_tautomer_probability>  (369) 
1

>  <r_epik_Ionization_Penalty>  (369) 
0.699359

>  <r_epik_Ionization_Penalty_Charging>  (369) 
0.699342

>  <r_epik_Ionization_Penalty_Neutral>  (369) 
1.68529e-05

>  <r_epik_State_Penalty>  (369) 
0.721925

>  <r_epik_Charging_Adjusted_Penalty>  (369) 
1.42127

>  <i_epik_Tot_Q>  (369) 
-1

>  <i_epik_Tot_abs_Q>  (369) 
1

>  <s_lp_Force_Field>  (369) 
OPLS3e

>  <r_lp_Energy>  (369) 
9.40406

>  <b_lp_Chiralities_Consistent>  (369) 
1

>  <s_lp_Variant>  (369) 
105:0-3

>  <s_i_glide_gridfile>  (369) 
pfpi4k_grid

>  <i_i_glide_lignum>  (369) 
28

>  <i_i_glide_rotatable_bonds>  (369) 
2

>  <r_i_docking_score>  (369) 
-4.03234

>  <r_i_glide_ligand_efficiency>  (369) 
-0.237197

>  <r_i_glide_ligand_efficiency_sa>  (369) 
-0.6099

>  <r_i_glide_ligand_efficiency_ln>  (369) 
-1.05195

>  <r_i_glide_gscore>  (369) 
-4.03234

>  <r_i_glide_lipo>  (369) 
-0.169692

>  <r_i_glide_hbond>  (369) 
-0.35852

>  <r_i_glide_metal>  (369) 
-0

>  <r_i_glide_rewards>  (369) 
-1.66155

>  <r_i_glide_evdw>  (369) 
-18.7999

>  <r_i_glide_ecoul>  (369) 
-6.51624

>  <r_i_glide_erotb>  (369) 
0.268278

>  <r_i_glide_esite>  (369) 
-0.193431

>  <r_i_glide_emodel>  (369) 
-36.0681

>  <r_i_glide_energy>  (369) 
-25.3161

>  <r_i_glide_einternal>  (369) 
0.109776

>  <r_i_glide_intrahb_reward>  (369) 
-0

>  <i_i_glide_confnum>  (369) 
3

>  <i_i_glide_posenum>  (369) 
7

>  <r_i_glide_eff_state_penalty>  (369) 
0

>  <ligand_id>  (369) 
105

>  <original_smiles>  (369) 
NS(=O)(=O)N1C2CCC1CC(n1cncn1)C2

>  <smiles>  (369) 
[H][N-]S(=O)(=O)N1C2([H])C([H])([H])C([H])([H])C1([H])C([H])([H])C([H])(n1nc([H])nc1[H])C2([H])[H]

$$$$
105:2:1
     RDKit          3D

 31 33  0  0  1  0  0  0  0  0999 V2000
    7.7570   -1.8835   -0.3882 N   0  0  0  0  0  0  0  0  0  0  0  0
    6.4301   -1.9418    0.5201 S   0  0  0  0  0  0  0  0  0  0  0  0
    6.3368   -3.1556    1.3416 O   0  0  0  0  0  0  0  0  0  0  0  0
    6.1265   -0.6571    1.1617 O   0  0  0  0  0  0  0  0  0  0  0  0
    5.3106   -2.0775   -0.7988 N   0  0  0  0  0  0  0  0  0  0  0  0
    3.9207   -1.6622   -0.6511 C   0  0  1  0  0  0  0  0  0  0  0  0
    3.4215   -1.6967   -2.1045 C   0  0  0  0  0  0  0  0  0  0  0  0
    4.3094   -2.7408   -2.8000 C   0  0  0  0  0  0  0  0  0  0  0  0
    5.2653   -3.2315   -1.6971 C   0  0  2  0  0  0  0  0  0  0  0  0
    4.6757   -4.4303   -0.9096 C   0  0  0  0  0  0  0  0  0  0  0  0
    3.2777   -4.1352   -0.3084 C   0  0  1  0  0  0  0  0  0  0  0  0
    2.9333   -5.1158    0.7109 N   0  0  0  0  0  0  0  0  0  0  0  0
    3.5881   -5.4529    1.8315 C   0  0  0  0  0  0  0  0  0  0  0  0
    2.9744   -6.3864    2.5442 N   0  0  0  0  0  0  0  0  0  0  0  0
    1.8860   -6.6043    1.7499 C   0  0  0  0  0  0  0  0  0  0  0  0
    1.7969   -5.8525    0.6488 N   0  0  0  0  0  0  0  0  0  0  0  0
    3.2038   -2.6951    0.2544 C   0  0  0  0  0  0  0  0  0  0  0  0
    8.1125   -2.8405   -0.5154 H   0  0  0  0  0  0  0  0  0  0  0  0
    3.8558   -0.6578   -0.2278 H   0  0  0  0  0  0  0  0  0  0  0  0
    2.3590   -1.9364   -2.1811 H   0  0  0  0  0  0  0  0  0  0  0  0
    3.5583   -0.7186   -2.5661 H   0  0  0  0  0  0  0  0  0  0  0  0
    3.7301   -3.5502   -3.2481 H   0  0  0  0  0  0  0  0  0  0  0  0
    4.8756   -2.2603   -3.5982 H   0  0  0  0  0  0  0  0  0  0  0  0
    6.2535   -3.4670   -2.1001 H   0  0  0  0  0  0  0  0  0  0  0  0
    4.6190   -5.3107   -1.5405 H   0  0  0  0  0  0  0  0  0  0  0  0
    5.3760   -4.7362   -0.1388 H   0  0  0  0  0  0  0  0  0  0  0  0
    2.5480   -4.2150   -1.1198 H   0  0  0  0  0  0  0  0  0  0  0  0
    4.5253   -4.9985    2.1235 H   0  0  0  0  0  0  0  0  0  0  0  0
    1.1205   -7.3221    2.0061 H   0  0  0  0  0  0  0  0  0  0  0  0
    3.6458   -2.6532    1.2500 H   0  0  0  0  0  0  0  0  0  0  0  0
    2.1631   -2.4109    0.3910 H   0  0  0  0  0  0  0  0  0  0  0  0
  1  2  1  0
  1 18  1  0
  2  3  2  0
  2  4  2  0
  2  5  1  0
  5  9  1  0
  5  6  1  0
  6 17  1  0
  6  7  1  0
  6 19  1  1
  7  8  1  0
  7 20  1  0
  7 21  1  0
  8  9  1  0
  8 22  1  0
  8 23  1  0
  9 10  1  0
  9 24  1  6
 10 11  1  0
 10 25  1  0
 10 26  1  0
 11 12  1  0
 11 17  1  0
 11 27  1  6
 12 16  1  0
 12 13  1  0
 13 14  2  0
 13 28  1  0
 14 15  1  0
 15 16  2  0
 15 29  1  0
 17 30  1  0
 17 31  1  0
M  CHG  1   1  -1
M  END
>  <i_m_ct_stereo_status>  (370) 
1

>  <s_m_source_file>  (370) 
/var/tmp/pbs.5076255.sched01/tmp7b2cfgi2/13234zcpj2x.sdf

>  <i_m_source_file_index>  (370) 
28

>  <i_lp_mmshare_version>  (370) 
48012

>  <i_f3d_flags>  (370) 
0

>  <s_epik_input>  (370) 
W05IMl1TKD1PKSg9TylOKFtDQEBIXTEyKVtDQEhdKFtDSDJdW0NIMl0xKVtDSDJdW0NASF0oW0NIMl0yKW4zW2NIXW5bY0hdbjM=

>  <s_epik_cmdline>  (370) 
J2VwaWtfcHl0aG9uJywgJy1waHQnLCAnMi4wJywgJy1waCcsICc3LjAnLCAnLXRuJywgJzgnLCAnLW1hJywgJzIwMCcsICctaW1hZScsICc8aW5maWxlLm1hZT4nLCAnLW9tYWUnLCAnPG91dGZpbGUubWFlPic=

>  <r_lp_tautomer_probability>  (370) 
1

>  <r_epik_Ionization_Penalty>  (370) 
0.699359

>  <r_epik_Ionization_Penalty_Charging>  (370) 
0.699342

>  <r_epik_Ionization_Penalty_Neutral>  (370) 
1.68529e-05

>  <r_epik_State_Penalty>  (370) 
0.721925

>  <r_epik_Charging_Adjusted_Penalty>  (370) 
1.42127

>  <i_epik_Tot_Q>  (370) 
-1

>  <i_epik_Tot_abs_Q>  (370) 
1

>  <s_lp_Force_Field>  (370) 
OPLS3e

>  <r_lp_Energy>  (370) 
9.40406

>  <b_lp_Chiralities_Consistent>  (370) 
1

>  <s_lp_Variant>  (370) 
105:0-3

>  <s_i_glide_gridfile>  (370) 
pfpi4k_grid

>  <i_i_glide_lignum>  (370) 
28

>  <i_i_glide_rotatable_bonds>  (370) 
2

>  <r_i_docking_score>  (370) 
-3.80814

>  <r_i_glide_ligand_efficiency>  (370) 
-0.224008

>  <r_i_glide_ligand_efficiency_sa>  (370) 
-0.575988

>  <r_i_glide_ligand_efficiency_ln>  (370) 
-0.993458

>  <r_i_glide_gscore>  (370) 
-3.80814

>  <r_i_glide_lipo>  (370) 
-0.170605

>  <r_i_glide_hbond>  (370) 
-0.253547

>  <r_i_glide_metal>  (370) 
-0

>  <r_i_glide_rewards>  (370) 
-1.7618

>  <r_i_glide_evdw>  (370) 
-21.0783

>  <r_i_glide_ecoul>  (370) 
-5.0682

>  <r_i_glide_erotb>  (370) 
0.268278

>  <r_i_glide_esite>  (370) 
-0.0763101

>  <r_i_glide_emodel>  (370) 
-35.7761

>  <r_i_glide_energy>  (370) 
-26.1465

>  <r_i_glide_einternal>  (370) 
1.01098

>  <r_i_glide_intrahb_reward>  (370) 
-0

>  <i_i_glide_confnum>  (370) 
2

>  <i_i_glide_posenum>  (370) 
11

>  <r_i_glide_eff_state_penalty>  (370) 
0

>  <ligand_id>  (370) 
105

>  <original_smiles>  (370) 
NS(=O)(=O)N1C2CCC1CC(n1cncn1)C2

>  <smiles>  (370) 
[H][N-]S(=O)(=O)N1C2([H])C([H])([H])C([H])([H])C1([H])C([H])([H])C([H])(n1nc([H])nc1[H])C2([H])[H]

$$$$
105:2:2
     RDKit          3D

 31 33  0  0  1  0  0  0  0  0999 V2000
    0.9511   -5.9966    0.9496 N   0  0  0  0  0  0  0  0  0  0  0  0
    1.7959   -6.5970    2.1838 S   0  0  0  0  0  0  0  0  0  0  0  0
    3.1095   -7.1087    1.7715 O   0  0  0  0  0  0  0  0  0  0  0  0
    1.7222   -5.7644    3.3941 O   0  0  0  0  0  0  0  0  0  0  0  0
    0.7898   -7.9972    2.4398 N   0  0  0  0  0  0  0  0  0  0  0  0
   -0.6299   -7.9304    2.8006 C   0  0  1  0  0  0  0  0  0  0  0  0
   -1.0805   -9.3854    2.6107 C   0  0  0  0  0  0  0  0  0  0  0  0
    0.1945  -10.2189    2.8298 C   0  0  0  0  0  0  0  0  0  0  0  0
    1.2947   -9.1880    3.1142 C   0  0  2  0  0  0  0  0  0  0  0  0
    1.4121   -8.8692    4.6221 C   0  0  0  0  0  0  0  0  0  0  0  0
    0.0637   -8.4186    5.2407 C   0  0  1  0  0  0  0  0  0  0  0  0
    0.2626   -7.8186    6.5529 N   0  0  0  0  0  0  0  0  0  0  0  0
    0.2183   -8.3663    7.7730 C   0  0  0  0  0  0  0  0  0  0  0  0
    0.4243   -7.5016    8.7585 N   0  0  0  0  0  0  0  0  0  0  0  0
    0.6760   -6.3759    8.0217 C   0  0  0  0  0  0  0  0  0  0  0  0
    0.5951   -6.5107    6.7019 N   0  0  0  0  0  0  0  0  0  0  0  0
   -0.7421   -7.4934    4.2806 C   0  0  0  0  0  0  0  0  0  0  0  0
    1.3909   -6.3341    0.0863 H   0  0  0  0  0  0  0  0  0  0  0  0
   -1.1775   -7.2536    2.1414 H   0  0  0  0  0  0  0  0  0  0  0  0
   -1.8913   -9.6703    3.2824 H   0  0  0  0  0  0  0  0  0  0  0  0
   -1.4459   -9.5309    1.5961 H   0  0  0  0  0  0  0  0  0  0  0  0
    0.0942  -10.9675    3.6180 H   0  0  0  0  0  0  0  0  0  0  0  0
    0.4190  -10.7508    1.9098 H   0  0  0  0  0  0  0  0  0  0  0  0
    2.2522   -9.4993    2.6925 H   0  0  0  0  0  0  0  0  0  0  0  0
    1.7817   -9.7473    5.1544 H   0  0  0  0  0  0  0  0  0  0  0  0
    2.1650   -8.0924    4.7606 H   0  0  0  0  0  0  0  0  0  0  0  0
   -0.5381   -9.3183    5.3874 H   0  0  0  0  0  0  0  0  0  0  0  0
    0.0065   -9.4126    7.9300 H   0  0  0  0  0  0  0  0  0  0  0  0
    0.9130   -5.4185    8.4759 H   0  0  0  0  0  0  0  0  0  0  0  0
   -0.4014   -6.4628    4.3481 H   0  0  0  0  0  0  0  0  0  0  0  0
   -1.7866   -7.4641    4.5929 H   0  0  0  0  0  0  0  0  0  0  0  0
  1  2  1  0
  1 18  1  0
  2  3  2  0
  2  4  2  0
  2  5  1  0
  5  9  1  0
  5  6  1  0
  6 17  1  0
  6  7  1  0
  6 19  1  6
  7  8  1  0
  7 20  1  0
  7 21  1  0
  8  9  1  0
  8 22  1  0
  8 23  1  0
  9 10  1  0
  9 24  1  6
 10 11  1  0
 10 25  1  0
 10 26  1  0
 11 12  1  0
 11 17  1  0
 11 27  1  1
 12 16  1  0
 12 13  1  0
 13 14  2  0
 13 28  1  0
 14 15  1  0
 15 16  2  0
 15 29  1  0
 17 30  1  0
 17 31  1  0
M  CHG  1   1  -1
M  END
>  <i_m_ct_stereo_status>  (371) 
1

>  <s_m_source_file>  (371) 
/var/tmp/pbs.5076255.sched01/tmp7b2cfgi2/13234zcpj2x.sdf

>  <i_m_source_file_index>  (371) 
28

>  <i_lp_mmshare_version>  (371) 
48012

>  <i_f3d_flags>  (371) 
0

>  <s_epik_input>  (371) 
W05IMl1TKD1PKSg9TylOKFtDQEBIXTEyKVtDQEhdKFtDSDJdW0NIMl0xKVtDSDJdW0NASF0oW0NIMl0yKW4zW2NIXW5bY0hdbjM=

>  <s_epik_cmdline>  (371) 
J2VwaWtfcHl0aG9uJywgJy1waHQnLCAnMi4wJywgJy1waCcsICc3LjAnLCAnLXRuJywgJzgnLCAnLW1hJywgJzIwMCcsICctaW1hZScsICc8aW5maWxlLm1hZT4nLCAnLW9tYWUnLCAnPG91dGZpbGUubWFlPic=

>  <r_lp_tautomer_probability>  (371) 
1

>  <r_epik_Ionization_Penalty>  (371) 
0.699359

>  <r_epik_Ionization_Penalty_Charging>  (371) 
0.699342

>  <r_epik_Ionization_Penalty_Neutral>  (371) 
1.68529e-05

>  <r_epik_State_Penalty>  (371) 
0.721925

>  <r_epik_Charging_Adjusted_Penalty>  (371) 
1.42127

>  <i_epik_Tot_Q>  (371) 
-1

>  <i_epik_Tot_abs_Q>  (371) 
1

>  <s_lp_Force_Field>  (371) 
OPLS3e

>  <r_lp_Energy>  (371) 
9.40406

>  <b_lp_Chiralities_Consistent>  (371) 
1

>  <s_lp_Variant>  (371) 
105:0-3

>  <s_i_glide_gridfile>  (371) 
pfpi4k_grid

>  <i_i_glide_lignum>  (371) 
28

>  <i_i_glide_rotatable_bonds>  (371) 
2

>  <r_i_docking_score>  (371) 
-3.78003

>  <r_i_glide_ligand_efficiency>  (371) 
-0.222355

>  <r_i_glide_ligand_efficiency_sa>  (371) 
-0.571737

>  <r_i_glide_ligand_efficiency_ln>  (371) 
-0.986127

>  <r_i_glide_gscore>  (371) 
-3.78003

>  <r_i_glide_lipo>  (371) 
-0.21295

>  <r_i_glide_hbond>  (371) 
-0.2

>  <r_i_glide_metal>  (371) 
-0

>  <r_i_glide_rewards>  (371) 
-1.66155

>  <r_i_glide_evdw>  (371) 
-19.4633

>  <r_i_glide_ecoul>  (371) 
-5.73292

>  <r_i_glide_erotb>  (371) 
0.268278

>  <r_i_glide_esite>  (371) 
-0.140708

>  <r_i_glide_emodel>  (371) 
-34.7618

>  <r_i_glide_energy>  (371) 
-25.1962

>  <r_i_glide_einternal>  (371) 
1.01037

>  <r_i_glide_intrahb_reward>  (371) 
-0

>  <i_i_glide_confnum>  (371) 
3

>  <i_i_glide_posenum>  (371) 
10

>  <r_i_glide_eff_state_penalty>  (371) 
0

>  <ligand_id>  (371) 
105

>  <original_smiles>  (371) 
NS(=O)(=O)N1C2CCC1CC(n1cncn1)C2

>  <smiles>  (371) 
[H][N-]S(=O)(=O)N1C2([H])C([H])([H])C([H])([H])C1([H])C([H])([H])C([H])(n1nc([H])nc1[H])C2([H])[H]

$$$$
105:3:0
     RDKit          3D

 31 33  0  0  1  0  0  0  0  0999 V2000
    3.6027   -4.4956    2.2719 N   0  0  0  0  0  0  0  0  0  0  0  0
    5.0895   -3.9578    2.6151 S   0  0  0  0  0  0  0  0  0  0  0  0
    5.0933   -2.9559    3.6804 O   0  0  0  0  0  0  0  0  0  0  0  0
    6.0619   -5.0611    2.6848 O   0  0  0  0  0  0  0  0  0  0  0  0
    5.4563   -3.0971    1.1324 N   0  0  0  0  0  0  0  0  0  0  0  0
    4.8562   -1.8132    0.7832 C   0  0  1  0  0  0  0  0  0  0  0  0
    5.8312   -1.3063   -0.3057 C   0  0  0  0  0  0  0  0  0  0  0  0
    6.4377   -2.5960   -0.9172 C   0  0  0  0  0  0  0  0  0  0  0  0
    5.7786   -3.7526   -0.1318 C   0  0  2  0  0  0  0  0  0  0  0  0
    4.4523   -4.2456   -0.7827 C   0  0  0  0  0  0  0  0  0  0  0  0
    3.4099   -3.0860   -0.9701 C   0  0  2  0  0  0  0  0  0  0  0  0
    3.6321   -2.3882   -2.2387 N   0  0  0  0  0  0  0  0  0  0  0  0
    4.0222   -2.8268   -3.4350 C   0  0  0  0  0  0  0  0  0  0  0  0
    4.2077   -1.8597   -4.3232 N   0  0  0  0  0  0  0  0  0  0  0  0
    3.7766   -0.8016   -3.5910 C   0  0  0  0  0  0  0  0  0  0  0  0
    3.4122   -1.0604   -2.3503 N   0  0  0  0  0  0  0  0  0  0  0  0
    3.4205   -2.0938    0.2499 C   0  0  0  0  0  0  0  0  0  0  0  0
    3.6764   -5.4045    1.8007 H   0  0  0  0  0  0  0  0  0  0  0  0
    4.8408   -1.1484    1.6455 H   0  0  0  0  0  0  0  0  0  0  0  0
    5.3564   -0.6565   -1.0383 H   0  0  0  0  0  0  0  0  0  0  0  0
    6.6360   -0.7282    0.1580 H   0  0  0  0  0  0  0  0  0  0  0  0
    6.2692   -2.6743   -1.9885 H   0  0  0  0  0  0  0  0  0  0  0  0
    7.5216   -2.6019   -0.7881 H   0  0  0  0  0  0  0  0  0  0  0  0
    6.4789   -4.5764    0.0217 H   0  0  0  0  0  0  0  0  0  0  0  0
    4.6880   -4.7370   -1.7309 H   0  0  0  0  0  0  0  0  0  0  0  0
    4.0165   -5.0336   -0.1658 H   0  0  0  0  0  0  0  0  0  0  0  0
    2.4164   -3.5329   -1.0354 H   0  0  0  0  0  0  0  0  0  0  0  0
    4.2639   -3.8720   -3.6186 H   0  0  0  0  0  0  0  0  0  0  0  0
    3.8286    0.2167   -3.9664 H   0  0  0  0  0  0  0  0  0  0  0  0
    2.8119   -2.5058    1.0595 H   0  0  0  0  0  0  0  0  0  0  0  0
    2.9238   -1.1429    0.0328 H   0  0  0  0  0  0  0  0  0  0  0  0
  1  2  1  0
  1 18  1  0
  2  3  2  0
  2  4  2  0
  2  5  1  0
  5  9  1  0
  5  6  1  0
  6 17  1  0
  6  7  1  0
  6 19  1  1
  7  8  1  0
  7 20  1  0
  7 21  1  0
  8  9  1  0
  8 22  1  0
  8 23  1  0
  9 10  1  0
  9 24  1  1
 10 11  1  0
 10 25  1  0
 10 26  1  0
 11 12  1  0
 11 17  1  0
 11 27  1  6
 12 16  1  0
 12 13  1  0
 13 14  2  0
 13 28  1  0
 14 15  1  0
 15 16  2  0
 15 29  1  0
 17 30  1  0
 17 31  1  0
M  CHG  1   1  -1
M  END
>  <i_m_ct_stereo_status>  (372) 
1

>  <s_m_source_file>  (372) 
/var/tmp/pbs.5076255.sched01/tmp7b2cfgi2/13234zcpj2x.sdf

>  <i_m_source_file_index>  (372) 
29

>  <i_lp_mmshare_version>  (372) 
48012

>  <i_f3d_flags>  (372) 
0

>  <s_epik_input>  (372) 
W05IMl1TKD1PKSg9TylOKFtDQEBIXTEyKVtDQEhdKFtDSDJdW0NIMl0xKVtDSDJdW0NASF0oW0NIMl0yKW4zW2NIXW5bY0hdbjM=

>  <s_epik_cmdline>  (372) 
J2VwaWtfcHl0aG9uJywgJy1waHQnLCAnMi4wJywgJy1waCcsICc3LjAnLCAnLXRuJywgJzgnLCAnLW1hJywgJzIwMCcsICctaW1hZScsICc8aW5maWxlLm1hZT4nLCAnLW9tYWUnLCAnPG91dGZpbGUubWFlPic=

>  <r_lp_tautomer_probability>  (372) 
1

>  <r_epik_Ionization_Penalty>  (372) 
0.699359

>  <r_epik_Ionization_Penalty_Charging>  (372) 
0.699342

>  <r_epik_Ionization_Penalty_Neutral>  (372) 
1.68529e-05

>  <r_epik_State_Penalty>  (372) 
0.721925

>  <r_epik_Charging_Adjusted_Penalty>  (372) 
1.42127

>  <i_epik_Tot_Q>  (372) 
-1

>  <i_epik_Tot_abs_Q>  (372) 
1

>  <s_lp_Force_Field>  (372) 
OPLS3e

>  <r_lp_Energy>  (372) 
14.5268

>  <b_lp_Chiralities_Consistent>  (372) 
1

>  <s_lp_Variant>  (372) 
105:0-4

>  <s_i_glide_gridfile>  (372) 
pfpi4k_grid

>  <i_i_glide_lignum>  (372) 
29

>  <i_i_glide_rotatable_bonds>  (372) 
2

>  <r_i_docking_score>  (372) 
-4.18742

>  <r_i_glide_ligand_efficiency>  (372) 
-0.246319

>  <r_i_glide_ligand_efficiency_sa>  (372) 
-0.633355

>  <r_i_glide_ligand_efficiency_ln>  (372) 
-1.0924

>  <r_i_glide_gscore>  (372) 
-4.18742

>  <r_i_glide_lipo>  (372) 
-0.0925563

>  <r_i_glide_hbond>  (372) 
-0.32

>  <r_i_glide_metal>  (372) 
-0

>  <r_i_glide_rewards>  (372) 
-2.3508

>  <r_i_glide_evdw>  (372) 
-23.4326

>  <r_i_glide_ecoul>  (372) 
-3.35058

>  <r_i_glide_erotb>  (372) 
0.268278

>  <r_i_glide_esite>  (372) 
-0.0181178

>  <r_i_glide_emodel>  (372) 
-31.7447

>  <r_i_glide_energy>  (372) 
-26.7832

>  <r_i_glide_einternal>  (372) 
3.58731

>  <r_i_glide_intrahb_reward>  (372) 
-0

>  <i_i_glide_confnum>  (372) 
5

>  <i_i_glide_posenum>  (372) 
39

>  <r_i_glide_eff_state_penalty>  (372) 
0

>  <ligand_id>  (372) 
105

>  <original_smiles>  (372) 
NS(=O)(=O)N1C2CCC1CC(n1cncn1)C2

>  <smiles>  (372) 
[H][N-]S(=O)(=O)N1C2([H])C([H])([H])C([H])([H])C1([H])C([H])([H])C([H])(n1nc([H])nc1[H])C2([H])[H]

$$$$
105:3:1
     RDKit          3D

 31 33  0  0  1  0  0  0  0  0999 V2000
    5.0634   -2.4513    3.8034 N   0  0  0  0  0  0  0  0  0  0  0  0
    4.0328   -3.3584    2.9634 S   0  0  0  0  0  0  0  0  0  0  0  0
    4.1503   -4.7967    3.2799 O   0  0  0  0  0  0  0  0  0  0  0  0
    2.6933   -2.7726    2.8903 O   0  0  0  0  0  0  0  0  0  0  0  0
    4.7610   -3.1420    1.3911 N   0  0  0  0  0  0  0  0  0  0  0  0
    4.2600   -3.9845    0.2996 C   0  0  1  0  0  0  0  0  0  0  0  0
    3.0516   -3.1827   -0.2119 C   0  0  0  0  0  0  0  0  0  0  0  0
    3.3925   -1.7175    0.1357 C   0  0  0  0  0  0  0  0  0  0  0  0
    4.7766   -1.7944    0.7992 C   0  0  2  0  0  0  0  0  0  0  0  0
    5.9790   -1.7351   -0.1858 C   0  0  0  0  0  0  0  0  0  0  0  0
    5.8775   -2.7820   -1.3506 C   0  0  2  0  0  0  0  0  0  0  0  0
    4.9890   -2.3468   -2.4307 N   0  0  0  0  0  0  0  0  0  0  0  0
    4.2640   -3.0391   -3.3171 C   0  0  0  0  0  0  0  0  0  0  0  0
    3.4256   -2.2850   -4.0223 N   0  0  0  0  0  0  0  0  0  0  0  0
    3.7431   -1.0588   -3.5299 C   0  0  0  0  0  0  0  0  0  0  0  0
    4.7335   -1.0271   -2.6417 N   0  0  0  0  0  0  0  0  0  0  0  0
    5.4089   -4.1396   -0.7382 C   0  0  0  0  0  0  0  0  0  0  0  0
    4.6969   -1.4947    3.8379 H   0  0  0  0  0  0  0  0  0  0  0  0
    3.9672   -4.9701    0.6730 H   0  0  0  0  0  0  0  0  0  0  0  0
    2.8381   -3.3531   -1.2572 H   0  0  0  0  0  0  0  0  0  0  0  0
    2.1521   -3.4876    0.3200 H   0  0  0  0  0  0  0  0  0  0  0  0
    3.3419   -1.0380   -0.7068 H   0  0  0  0  0  0  0  0  0  0  0  0
    2.6608   -1.3498    0.8488 H   0  0  0  0  0  0  0  0  0  0  0  0
    4.8948   -1.0261    1.5656 H   0  0  0  0  0  0  0  0  0  0  0  0
    6.0809   -0.7172   -0.5655 H   0  0  0  0  0  0  0  0  0  0  0  0
    6.9024   -1.9114    0.3748 H   0  0  0  0  0  0  0  0  0  0  0  0
    6.8667   -2.9171   -1.7954 H   0  0  0  0  0  0  0  0  0  0  0  0
    4.2780   -4.1181   -3.3817 H   0  0  0  0  0  0  0  0  0  0  0  0
    3.1938   -0.1678   -3.7921 H   0  0  0  0  0  0  0  0  0  0  0  0
    6.2579   -4.6286   -0.2517 H   0  0  0  0  0  0  0  0  0  0  0  0
    5.1024   -4.8423   -1.5111 H   0  0  0  0  0  0  0  0  0  0  0  0
  1  2  1  0
  1 18  1  0
  2  3  2  0
  2  4  2  0
  2  5  1  0
  5  9  1  0
  5  6  1  0
  6 17  1  0
  6  7  1  0
  6 19  1  1
  7  8  1  0
  7 20  1  0
  7 21  1  0
  8  9  1  0
  8 22  1  0
  8 23  1  0
  9 10  1  0
  9 24  1  1
 10 11  1  0
 10 25  1  0
 10 26  1  0
 11 12  1  0
 11 17  1  0
 11 27  1  6
 12 16  1  0
 12 13  1  0
 13 14  2  0
 13 28  1  0
 14 15  1  0
 15 16  2  0
 15 29  1  0
 17 30  1  0
 17 31  1  0
M  CHG  1   1  -1
M  END
>  <i_m_ct_stereo_status>  (373) 
1

>  <s_m_source_file>  (373) 
/var/tmp/pbs.5076255.sched01/tmp7b2cfgi2/13234zcpj2x.sdf

>  <i_m_source_file_index>  (373) 
29

>  <i_lp_mmshare_version>  (373) 
48012

>  <i_f3d_flags>  (373) 
0

>  <s_epik_input>  (373) 
W05IMl1TKD1PKSg9TylOKFtDQEBIXTEyKVtDQEhdKFtDSDJdW0NIMl0xKVtDSDJdW0NASF0oW0NIMl0yKW4zW2NIXW5bY0hdbjM=

>  <s_epik_cmdline>  (373) 
J2VwaWtfcHl0aG9uJywgJy1waHQnLCAnMi4wJywgJy1waCcsICc3LjAnLCAnLXRuJywgJzgnLCAnLW1hJywgJzIwMCcsICctaW1hZScsICc8aW5maWxlLm1hZT4nLCAnLW9tYWUnLCAnPG91dGZpbGUubWFlPic=

>  <r_lp_tautomer_probability>  (373) 
1

>  <r_epik_Ionization_Penalty>  (373) 
0.699359

>  <r_epik_Ionization_Penalty_Charging>  (373) 
0.699342

>  <r_epik_Ionization_Penalty_Neutral>  (373) 
1.68529e-05

>  <r_epik_State_Penalty>  (373) 
0.721925

>  <r_epik_Charging_Adjusted_Penalty>  (373) 
1.42127

>  <i_epik_Tot_Q>  (373) 
-1

>  <i_epik_Tot_abs_Q>  (373) 
1

>  <s_lp_Force_Field>  (373) 
OPLS3e

>  <r_lp_Energy>  (373) 
14.5268

>  <b_lp_Chiralities_Consistent>  (373) 
1

>  <s_lp_Variant>  (373) 
105:0-4

>  <s_i_glide_gridfile>  (373) 
pfpi4k_grid

>  <i_i_glide_lignum>  (373) 
29

>  <i_i_glide_rotatable_bonds>  (373) 
2

>  <r_i_docking_score>  (373) 
-3.66696

>  <r_i_glide_ligand_efficiency>  (373) 
-0.215704

>  <r_i_glide_ligand_efficiency_sa>  (373) 
-0.554635

>  <r_i_glide_ligand_efficiency_ln>  (373) 
-0.956628

>  <r_i_glide_gscore>  (373) 
-3.66696

>  <r_i_glide_lipo>  (373) 
-0.0905009

>  <r_i_glide_hbond>  (373) 
-0.141596

>  <r_i_glide_metal>  (373) 
-0

>  <r_i_glide_rewards>  (373) 
-2.3542

>  <r_i_glide_evdw>  (373) 
-23.6091

>  <r_i_glide_ecoul>  (373) 
-1.11233

>  <r_i_glide_erotb>  (373) 
0.268278

>  <r_i_glide_esite>  (373) 
-0.00164142

>  <r_i_glide_emodel>  (373) 
-29.4199

>  <r_i_glide_energy>  (373) 
-24.7214

>  <r_i_glide_einternal>  (373) 
2.62342

>  <r_i_glide_intrahb_reward>  (373) 
-0

>  <i_i_glide_confnum>  (373) 
4

>  <i_i_glide_posenum>  (373) 
14

>  <r_i_glide_eff_state_penalty>  (373) 
0

>  <ligand_id>  (373) 
105

>  <original_smiles>  (373) 
NS(=O)(=O)N1C2CCC1CC(n1cncn1)C2

>  <smiles>  (373) 
[H][N-]S(=O)(=O)N1C2([H])C([H])([H])C([H])([H])C1([H])C([H])([H])C([H])(n1nc([H])nc1[H])C2([H])[H]

$$$$
105:3:2
     RDKit          3D

 31 33  0  0  1  0  0  0  0  0999 V2000
    4.6629   -3.4403   -3.9215 N   0  0  0  0  0  0  0  0  0  0  0  0
    3.7364   -2.4363   -3.0901 S   0  0  0  0  0  0  0  0  0  0  0  0
    3.7249   -1.0733   -3.6348 O   0  0  0  0  0  0  0  0  0  0  0  0
    2.4455   -3.0544   -2.7143 O   0  0  0  0  0  0  0  0  0  0  0  0
    4.6915   -2.3848   -1.6248 N   0  0  0  0  0  0  0  0  0  0  0  0
    4.1805   -1.5435   -0.5347 C   0  0  1  0  0  0  0  0  0  0  0  0
    3.2307   -2.4966    0.2206 C   0  0  0  0  0  0  0  0  0  0  0  0
    3.7660   -3.9089   -0.0850 C   0  0  0  0  0  0  0  0  0  0  0  0
    5.0242   -3.6450   -0.9368 C   0  0  2  0  0  0  0  0  0  0  0  0
    6.3434   -3.3842   -0.1504 C   0  0  0  0  0  0  0  0  0  0  0  0
    6.2051   -2.2712    0.9348 C   0  0  2  0  0  0  0  0  0  0  0  0
    5.6043   -2.7753    2.1889 N   0  0  0  0  0  0  0  0  0  0  0  0
    5.4771   -4.0207    2.6882 C   0  0  0  0  0  0  0  0  0  0  0  0
    4.8084   -4.0821    3.8261 N   0  0  0  0  0  0  0  0  0  0  0  0
    4.5713   -2.7510    4.0333 C   0  0  0  0  0  0  0  0  0  0  0  0
    5.0935   -1.9253    3.1186 N   0  0  0  0  0  0  0  0  0  0  0  0
    5.4016   -1.0791    0.3108 C   0  0  0  0  0  0  0  0  0  0  0  0
    4.3227   -4.3923   -3.7408 H   0  0  0  0  0  0  0  0  0  0  0  0
    3.6500   -0.6737   -0.9365 H   0  0  0  0  0  0  0  0  0  0  0  0
    3.1542   -2.2557    1.2780 H   0  0  0  0  0  0  0  0  0  0  0  0
    2.2188   -2.4139   -0.1640 H   0  0  0  0  0  0  0  0  0  0  0  0
    3.9382   -4.5328    0.7933 H   0  0  0  0  0  0  0  0  0  0  0  0
    3.0261   -4.4496   -0.6784 H   0  0  0  0  0  0  0  0  0  0  0  0
    5.1928   -4.4697   -1.6295 H   0  0  0  0  0  0  0  0  0  0  0  0
    6.7215   -4.3187    0.2574 H   0  0  0  0  0  0  0  0  0  0  0  0
    7.1194   -3.0832   -0.8656 H   0  0  0  0  0  0  0  0  0  0  0  0
    7.2085   -1.9040    1.1786 H   0  0  0  0  0  0  0  0  0  0  0  0
    5.8448   -4.9053    2.1798 H   0  0  0  0  0  0  0  0  0  0  0  0
    3.9957   -2.3973    4.8715 H   0  0  0  0  0  0  0  0  0  0  0  0
    6.0689   -0.4968   -0.3324 H   0  0  0  0  0  0  0  0  0  0  0  0
    5.0682   -0.3607    1.0592 H   0  0  0  0  0  0  0  0  0  0  0  0
  1  2  1  0
  1 18  1  0
  2  3  2  0
  2  4  2  0
  2  5  1  0
  5  9  1  0
  5  6  1  0
  6 17  1  0
  6  7  1  0
  6 19  1  6
  7  8  1  0
  7 20  1  0
  7 21  1  0
  8  9  1  0
  8 22  1  0
  8 23  1  0
  9 10  1  0
  9 24  1  6
 10 11  1  0
 10 25  1  0
 10 26  1  0
 11 12  1  0
 11 17  1  0
 11 27  1  1
 12 16  1  0
 12 13  1  0
 13 14  2  0
 13 28  1  0
 14 15  1  0
 15 16  2  0
 15 29  1  0
 17 30  1  0
 17 31  1  0
M  CHG  1   1  -1
M  END
>  <i_m_ct_stereo_status>  (374) 
1

>  <s_m_source_file>  (374) 
/var/tmp/pbs.5076255.sched01/tmp7b2cfgi2/13234zcpj2x.sdf

>  <i_m_source_file_index>  (374) 
29

>  <i_lp_mmshare_version>  (374) 
48012

>  <i_f3d_flags>  (374) 
0

>  <s_epik_input>  (374) 
W05IMl1TKD1PKSg9TylOKFtDQEBIXTEyKVtDQEhdKFtDSDJdW0NIMl0xKVtDSDJdW0NASF0oW0NIMl0yKW4zW2NIXW5bY0hdbjM=

>  <s_epik_cmdline>  (374) 
J2VwaWtfcHl0aG9uJywgJy1waHQnLCAnMi4wJywgJy1waCcsICc3LjAnLCAnLXRuJywgJzgnLCAnLW1hJywgJzIwMCcsICctaW1hZScsICc8aW5maWxlLm1hZT4nLCAnLW9tYWUnLCAnPG91dGZpbGUubWFlPic=

>  <r_lp_tautomer_probability>  (374) 
1

>  <r_epik_Ionization_Penalty>  (374) 
0.699359

>  <r_epik_Ionization_Penalty_Charging>  (374) 
0.699342

>  <r_epik_Ionization_Penalty_Neutral>  (374) 
1.68529e-05

>  <r_epik_State_Penalty>  (374) 
0.721925

>  <r_epik_Charging_Adjusted_Penalty>  (374) 
1.42127

>  <i_epik_Tot_Q>  (374) 
-1

>  <i_epik_Tot_abs_Q>  (374) 
1

>  <s_lp_Force_Field>  (374) 
OPLS3e

>  <r_lp_Energy>  (374) 
14.5268

>  <b_lp_Chiralities_Consistent>  (374) 
1

>  <s_lp_Variant>  (374) 
105:0-4

>  <s_i_glide_gridfile>  (374) 
pfpi4k_grid

>  <i_i_glide_lignum>  (374) 
29

>  <i_i_glide_rotatable_bonds>  (374) 
2

>  <r_i_docking_score>  (374) 
-3.29741

>  <r_i_glide_ligand_efficiency>  (374) 
-0.193965

>  <r_i_glide_ligand_efficiency_sa>  (374) 
-0.498739

>  <r_i_glide_ligand_efficiency_ln>  (374) 
-0.86022

>  <r_i_glide_gscore>  (374) 
-3.29741

>  <r_i_glide_lipo>  (374) 
-0.321181

>  <r_i_glide_hbond>  (374) 
0

>  <r_i_glide_metal>  (374) 
-0

>  <r_i_glide_rewards>  (374) 
-1.92864

>  <r_i_glide_evdw>  (374) 
-23.4915

>  <r_i_glide_ecoul>  (374) 
-0.794848

>  <r_i_glide_erotb>  (374) 
0.268278

>  <r_i_glide_esite>  (374) 
-0.0220587

>  <r_i_glide_emodel>  (374) 
-29.8846

>  <r_i_glide_energy>  (374) 
-24.2864

>  <r_i_glide_einternal>  (374) 
0.630095

>  <r_i_glide_intrahb_reward>  (374) 
-0

>  <i_i_glide_confnum>  (374) 
3

>  <i_i_glide_posenum>  (374) 
2

>  <r_i_glide_eff_state_penalty>  (374) 
0

>  <ligand_id>  (374) 
105

>  <original_smiles>  (374) 
NS(=O)(=O)N1C2CCC1CC(n1cncn1)C2

>  <smiles>  (374) 
[H][N-]S(=O)(=O)N1C2([H])C([H])([H])C([H])([H])C1([H])C([H])([H])C([H])(n1nc([H])nc1[H])C2([H])[H]

$$$$
106:0:0
     RDKit          3D

 94100  0  0  1  0  0  0  0  0999 V2000
    1.7490    0.8387    9.1471 C   0  0  0  0  0  0  0  0  0  0  0  0
    1.7924   -0.4607    9.9630 C   0  0  0  0  0  0  0  0  0  0  0  0
    2.9867   -0.4737   10.9277 C   0  0  0  0  0  0  0  0  0  0  0  0
    1.8141   -1.6724    9.0498 C   0  0  0  0  0  0  0  0  0  0  0  0
    0.8402   -2.6036    9.0080 C   0  0  0  0  0  0  0  0  0  0  0  0
    0.8560   -3.7820    8.1146 C   0  0  0  0  0  0  0  0  0  0  0  0
   -0.0909   -4.5641    8.0583 O   0  0  0  0  0  0  0  0  0  0  0  0
    2.0067   -3.8914    7.3823 O   0  0  0  0  0  0  0  0  0  0  0  0
    2.3151   -5.0056    6.5250 C   0  0  1  0  0  0  0  0  0  0  0  0
    2.4894   -6.2677    7.4137 C   0  0  0  0  0  0  0  0  0  0  0  0
    1.2432   -5.2640    5.4485 C   0  0  0  0  0  0  0  0  0  0  0  0
    1.9575   -5.9086    4.2534 C   0  0  1  0  0  0  0  0  0  0  0  0
    1.2396   -5.5826    2.9293 C   0  0  0  0  0  0  0  0  0  0  0  0
    3.4830   -5.6029    4.4277 C   0  0  1  0  0  0  0  0  0  0  0  0
    4.3290   -5.2333    3.1337 C   0  0  1  0  0  0  0  0  0  0  0  0
    4.1217   -3.7046    2.7963 C   0  0  1  0  0  0  0  0  0  0  0  0
    4.5420   -2.8871    4.0578 C   0  0  1  0  0  0  0  0  0  0  0  0
    4.6245   -1.4885    3.9083 O   0  0  0  0  0  0  0  0  0  0  0  0
    3.5525   -3.1760    5.1981 C   0  0  0  0  0  0  0  0  0  0  0  0
    3.5866   -4.6539    5.6729 C   0  0  1  0  0  0  0  0  0  0  0  0
    4.8795   -4.8433    6.5099 C   0  0  0  0  0  0  0  0  0  0  0  0
    4.5352   -3.0306    1.4155 C   0  0  2  0  0  0  0  0  0  0  0  0
    3.3658   -2.1339    0.8252 C   0  0  1  0  0  0  0  0  0  0  0  0
    2.6073   -1.1894    1.7872 C   0  0  0  0  0  0  0  0  0  0  0  0
    3.8555   -1.2632   -0.3488 C   0  0  0  0  0  0  0  0  0  0  0  0
    4.4495   -2.0854   -1.4900 C   0  0  0  0  0  0  0  0  0  0  0  0
    5.5460   -3.0343   -0.9812 C   0  0  1  0  0  0  0  0  0  0  0  0
    6.6891   -2.2158   -0.8003 O   0  0  0  0  0  0  0  0  0  0  0  0
    5.1341   -3.9332    0.2632 C   0  0  2  0  0  0  0  0  0  0  0  0
    4.0583   -4.8870   -0.3173 C   0  0  0  0  0  0  0  0  0  0  0  0
    6.4181   -4.7550    0.6904 C   0  0  1  0  0  0  0  0  0  0  0  0
    7.3782   -3.8784    1.2491 O   0  0  0  0  0  0  0  0  0  0  0  0
    6.3609   -6.0098    1.6302 C   0  0  2  0  0  0  0  0  0  0  0  0
    5.6553   -7.2457    1.0083 C   0  0  0  0  0  0  0  0  0  0  0  0
    6.2583   -8.4063    1.3037 C   0  0  0  0  0  0  0  0  0  0  0  0
    7.3436   -8.0344    2.2117 C   0  0  1  0  0  0  0  0  0  0  0  0
    7.8830   -8.7367    3.3490 O   0  0  0  0  0  0  0  0  0  0  0  0
    6.6163   -8.1205    3.5505 C   0  0  1  0  0  0  0  0  0  0  0  0
    6.3859   -6.7480    4.1546 C   0  0  0  0  0  0  0  0  0  0  0  0
    5.8416   -5.6842    3.0945 C   0  0  2  0  0  0  0  0  0  0  0  0
    7.7818   -6.6395    1.8401 C   0  0  1  0  0  0  0  0  0  0  0  0
    8.6021   -6.6750    0.6825 O   0  0  0  0  0  0  0  0  0  0  0  0
    0.8610    0.8779    8.5164 H   0  0  0  0  0  0  0  0  0  0  0  0
    2.6221    0.9348    8.5019 H   0  0  0  0  0  0  0  0  0  0  0  0
    1.7235    1.7099    9.8013 H   0  0  0  0  0  0  0  0  0  0  0  0
    0.8829   -0.5025   10.5660 H   0  0  0  0  0  0  0  0  0  0  0  0
    2.9756   -1.3656   11.5538 H   0  0  0  0  0  0  0  0  0  0  0  0
    2.9606    0.3905   11.5909 H   0  0  0  0  0  0  0  0  0  0  0  0
    3.9348   -0.4513   10.3914 H   0  0  0  0  0  0  0  0  0  0  0  0
    2.6818   -1.7542    8.4090 H   0  0  0  0  0  0  0  0  0  0  0  0
   -0.0098   -2.4957    9.6641 H   0  0  0  0  0  0  0  0  0  0  0  0
    2.8864   -7.1136    6.8545 H   0  0  0  0  0  0  0  0  0  0  0  0
    1.5411   -6.5980    7.8392 H   0  0  0  0  0  0  0  0  0  0  0  0
    3.1565   -6.0785    8.2567 H   0  0  0  0  0  0  0  0  0  0  0  0
    0.4290   -5.8940    5.8105 H   0  0  0  0  0  0  0  0  0  0  0  0
    0.7933   -4.3179    5.1460 H   0  0  0  0  0  0  0  0  0  0  0  0
    1.8610   -6.9885    4.3727 H   0  0  0  0  0  0  0  0  0  0  0  0
    1.1214   -4.5114    2.7677 H   0  0  0  0  0  0  0  0  0  0  0  0
    0.2351   -6.0054    2.9482 H   0  0  0  0  0  0  0  0  0  0  0  0
    1.7364   -6.0181    2.0636 H   0  0  0  0  0  0  0  0  0  0  0  0
    3.8267   -6.5786    4.7508 H   0  0  0  0  0  0  0  0  0  0  0  0
    3.8577   -5.8369    2.3708 H   0  0  0  0  0  0  0  0  0  0  0  0
    3.0460   -3.6335    2.7551 H   0  0  0  0  0  0  0  0  0  0  0  0
    5.5484   -3.1543    4.3609 H   0  0  0  0  0  0  0  0  0  0  0  0
    3.7959   -1.1689    3.5782 H   0  0  0  0  0  0  0  0  0  0  0  0
    3.7740   -2.5202    6.0409 H   0  0  0  0  0  0  0  0  0  0  0  0
    2.5488   -2.8985    4.8771 H   0  0  0  0  0  0  0  0  0  0  0  0
    5.7804   -4.6130    5.9446 H   0  0  0  0  0  0  0  0  0  0  0  0
    5.0011   -5.8616    6.8763 H   0  0  0  0  0  0  0  0  0  0  0  0
    4.8760   -4.1885    7.3834 H   0  0  0  0  0  0  0  0  0  0  0  0
    5.3402   -2.3358    1.6554 H   0  0  0  0  0  0  0  0  0  0  0  0
    2.5824   -2.7888    0.4451 H   0  0  0  0  0  0  0  0  0  0  0  0
    3.2334   -0.3628    2.1221 H   0  0  0  0  0  0  0  0  0  0  0  0
    2.1816   -1.6947    2.6532 H   0  0  0  0  0  0  0  0  0  0  0  0
    1.7600   -0.7348    1.2765 H   0  0  0  0  0  0  0  0  0  0  0  0
    3.0285   -0.6718   -0.7437 H   0  0  0  0  0  0  0  0  0  0  0  0
    4.6023   -0.5525    0.0108 H   0  0  0  0  0  0  0  0  0  0  0  0
    3.6535   -2.6360   -1.9897 H   0  0  0  0  0  0  0  0  0  0  0  0
    4.8514   -1.4173   -2.2544 H   0  0  0  0  0  0  0  0  0  0  0  0
    5.8115   -3.6932   -1.8077 H   0  0  0  0  0  0  0  0  0  0  0  0
    7.3521   -2.7552   -0.3827 H   0  0  0  0  0  0  0  0  0  0  0  0
    4.5186   -5.5583   -1.0430 H   0  0  0  0  0  0  0  0  0  0  0  0
    3.2672   -4.3727   -0.8564 H   0  0  0  0  0  0  0  0  0  0  0  0
    3.5237   -5.4802    0.4118 H   0  0  0  0  0  0  0  0  0  0  0  0
    6.8574   -5.1020   -0.2424 H   0  0  0  0  0  0  0  0  0  0  0  0
    8.1325   -4.4029    1.4834 H   0  0  0  0  0  0  0  0  0  0  0  0
    4.7876   -7.2043    0.3679 H   0  0  0  0  0  0  0  0  0  0  0  0
    5.9873   -9.4071    0.9964 H   0  0  0  0  0  0  0  0  0  0  0  0
    5.7987   -8.8266    3.6928 H   0  0  0  0  0  0  0  0  0  0  0  0
    5.7897   -6.8844    5.0472 H   0  0  0  0  0  0  0  0  0  0  0  0
    7.3487   -6.4032    4.5428 H   0  0  0  0  0  0  0  0  0  0  0  0
    6.3907   -4.7998    3.4006 H   0  0  0  0  0  0  0  0  0  0  0  0
    8.3778   -6.1791    2.6268 H   0  0  0  0  0  0  0  0  0  0  0  0
    9.3389   -7.2570    0.8761 H   0  0  0  0  0  0  0  0  0  0  0  0
  1  2  1  0
  1 43  1  0
  1 44  1  0
  1 45  1  0
  2  3  1  0
  2  4  1  0
  2 46  1  0
  3 47  1  0
  3 48  1  0
  3 49  1  0
  4  5  2  3
  4 50  1  0
  5  6  1  0
  5 51  1  0
  6  7  2  0
  6  8  1  0
  9  8  1  1
  9 20  1  0
  9 10  1  0
  9 11  1  0
 10 52  1  0
 10 53  1  0
 10 54  1  0
 11 12  1  0
 11 55  1  0
 11 56  1  0
 12 13  1  0
 12 14  1  0
 12 57  1  1
 13 58  1  0
 13 59  1  0
 13 60  1  0
 14 20  1  0
 14 15  1  0
 14 61  1  1
 15 40  1  0
 15 16  1  0
 15 62  1  6
 16 17  1  0
 16 22  1  0
 16 63  1  6
 17 18  1  0
 17 19  1  0
 17 64  1  1
 18 65  1  0
 19 20  1  0
 19 66  1  0
 19 67  1  0
 20 21  1  1
 21 68  1  0
 21 69  1  0
 21 70  1  0
 22 29  1  0
 22 23  1  0
 22 71  1  1
 23 24  1  0
 23 25  1  0
 23 72  1  6
 24 73  1  0
 24 74  1  0
 24 75  1  0
 25 26  1  0
 25 76  1  0
 25 77  1  0
 26 27  1  0
 26 78  1  0
 26 79  1  0
 27 28  1  0
 27 29  1  0
 27 80  1  6
 28 81  1  0
 29 30  1  6
 29 31  1  0
 30 82  1  0
 30 83  1  0
 30 84  1  0
 31 32  1  0
 31 33  1  0
 31 85  1  6
 32 86  1  0
 33 40  1  0
 33 41  1  0
 33 34  1  6
 34 35  2  0
 34 87  1  0
 35 36  1  0
 35 88  1  0
 36 38  1  0
 36 37  1  1
 36 41  1  0
 37 38  1  0
 38 39  1  0
 38 89  1  6
 39 40  1  0
 39 90  1  0
 39 91  1  0
 40 92  1  1
 41 42  1  0
 41 93  1  1
 42 94  1  0
M  END
>  <i_m_ct_stereo_status>  (375) 
1

>  <s_m_source_file>  (375) 
/var/tmp/pbs.5076255.sched01/tmp7b2cfgi2/13234zcpj2x.sdf

>  <i_m_source_file_index>  (375) 
30

>  <i_lp_mmshare_version>  (375) 
48012

>  <i_f3d_flags>  (375) 
0

>  <s_epik_input>  (375) 
W0NIXTE9W0NIXVtDQEBdKE8yKShbQ0BIXTNbT0hdKVtDQEBIXTJbQ0gyXVtDQEBIXShbQ0BdMTM0KVtDQEhdNVtDQEhdNltDQF0oW0NIM10pKFtDQF0oW0NIM10pKFtDSDJdW0NASF02W0NIM10pT0MoPU8pXFtDSF09W0NIXVxbQ0hdKFtDSDNdKVtDSDNdKVtDSDJdW0NASF0oW09IXSlbQ0BIXTVbQ0BIXTdbQ0BdKFtDSDNdKShbQ0BIXTRbT0hdKVtDQEhdKFtPSF0pW0NIMl1bQ0gyXVtDQEBIXTdbQ0gzXQ==

>  <s_epik_cmdline>  (375) 
J2VwaWtfcHl0aG9uJywgJy1waHQnLCAnMi4wJywgJy1waCcsICc3LjAnLCAnLXRuJywgJzgnLCAnLW1hJywgJzIwMCcsICctaW1hZScsICc8aW5maWxlLm1hZT4nLCAnLW9tYWUnLCAnPG91dGZpbGUubWFlPic=

>  <r_lp_tautomer_probability>  (375) 
1

>  <r_epik_Ionization_Penalty>  (375) 
2.00132e-06

>  <r_epik_Ionization_Penalty_Charging>  (375) 
0

>  <r_epik_Ionization_Penalty_Neutral>  (375) 
2.00132e-06

>  <r_epik_State_Penalty>  (375) 
-0

>  <r_epik_Charging_Adjusted_Penalty>  (375) 
0

>  <i_epik_Tot_Q>  (375) 
0

>  <i_epik_Tot_abs_Q>  (375) 
0

>  <s_epik_Chemistry_Notes>  (375) 
This compound has an ester and may undergo hydrolysis at high or low pH.

>  <s_lp_Force_Field>  (375) 
OPLS3e

>  <r_lp_Energy>  (375) 
126.516

>  <b_lp_Chiralities_Consistent>  (375) 
1

>  <s_lp_Variant>  (375) 
106:0-1

>  <s_i_glide_gridfile>  (375) 
pfpi4k_grid

>  <i_i_glide_lignum>  (375) 
30

>  <i_i_glide_rotatable_bonds>  (375) 
8

>  <r_i_docking_score>  (375) 
-3.13139

>  <r_i_glide_ligand_efficiency>  (375) 
-0.0745568

>  <r_i_glide_ligand_efficiency_sa>  (375) 
-0.259161

>  <r_i_glide_ligand_efficiency_ln>  (375) 
-0.660955

>  <r_i_glide_gscore>  (375) 
-3.13139

>  <r_i_glide_lipo>  (375) 
-0.549071

>  <r_i_glide_hbond>  (375) 
0

>  <r_i_glide_metal>  (375) 
-0

>  <r_i_glide_rewards>  (375) 
-0.5

>  <r_i_glide_evdw>  (375) 
-21.4573

>  <r_i_glide_ecoul>  (375) 
-7.62769

>  <r_i_glide_erotb>  (375) 
0.140982

>  <r_i_glide_esite>  (375) 
-0.00627696

>  <r_i_glide_emodel>  (375) 
-39.6714

>  <r_i_glide_energy>  (375) 
-29.085

>  <r_i_glide_einternal>  (375) 
1.15352

>  <r_i_glide_intrahb_reward>  (375) 
-0.5

>  <i_i_glide_confnum>  (375) 
3

>  <i_i_glide_posenum>  (375) 
17

>  <r_i_glide_eff_state_penalty>  (375) 
0

>  <ligand_id>  (375) 
106

>  <original_smiles>  (375) 
CC(C)C=CC(=O)OC1(C)CC(C)C2C3C(C(O)CC21C)C1C(C)CCC(O)C1(C)C(O)C12C=CC4(OC4CC31)C2O

>  <smiles>  (375) 
[H]OC1([H])C([H])([H])C2(C([H])([H])[H])C([H])(C([H])(C([H])([H])[H])C([H])([H])C2(OC(=O)C([H])=C([H])C([H])(C([H])([H])[H])C([H])([H])[H])C([H])([H])[H])C2([H])C1([H])C1([H])C([H])(C([H])([H])[H])C([H])([H])C([H])([H])C([H])(O[H])C1(C([H])([H])[H])C([H])(O[H])C13C([H])=C([H])C4(OC4([H])C([H])([H])C21[H])C3([H])O[H]

$$$$
106:0:1
     RDKit          3D

 94100  0  0  1  0  0  0  0  0999 V2000
    0.7731   -0.0630    9.3299 C   0  0  0  0  0  0  0  0  0  0  0  0
    0.8693   -1.4091   10.0619 C   0  0  0  0  0  0  0  0  0  0  0  0
    2.0704   -1.4390   11.0178 C   0  0  0  0  0  0  0  0  0  0  0  0
    0.9308   -2.5584    9.0730 C   0  0  0  0  0  0  0  0  0  0  0  0
   -0.0171   -3.5164    8.9663 C   0  0  0  0  0  0  0  0  0  0  0  0
    0.0430   -4.6294    7.9992 C   0  0  0  0  0  0  0  0  0  0  0  0
   -0.9079   -5.3973    7.8391 O   0  0  0  0  0  0  0  0  0  0  0  0
    1.2266   -4.7050    7.3224 O   0  0  0  0  0  0  0  0  0  0  0  0
    1.5579   -5.7463    6.3859 C   0  0  1  0  0  0  0  0  0  0  0  0
    1.6091   -7.1027    7.1460 C   0  0  0  0  0  0  0  0  0  0  0  0
    0.5623   -5.8389    5.2138 C   0  0  0  0  0  0  0  0  0  0  0  0
    1.3413   -6.3941    4.0117 C   0  0  1  0  0  0  0  0  0  0  0  0
    0.7469   -5.8999    2.6798 C   0  0  0  0  0  0  0  0  0  0  0  0
    2.8587   -6.1845    4.3274 C   0  0  1  0  0  0  0  0  0  0  0  0
    3.8182   -5.7267    3.1445 C   0  0  1  0  0  0  0  0  0  0  0  0
    3.7024   -4.1618    2.9561 C   0  0  1  0  0  0  0  0  0  0  0  0
    4.0600   -3.5012    4.3243 C   0  0  1  0  0  0  0  0  0  0  0  0
    4.2189   -2.0996    4.3261 O   0  0  0  0  0  0  0  0  0  0  0  0
    2.9735   -3.8543    5.3543 C   0  0  0  0  0  0  0  0  0  0  0  0
    2.9063   -5.3740    5.6707 C   0  0  1  0  0  0  0  0  0  0  0  0
    4.1213   -5.7156    6.5743 C   0  0  0  0  0  0  0  0  0  0  0  0
    4.2477   -3.3730    1.6866 C   0  0  2  0  0  0  0  0  0  0  0  0
    3.1681   -2.3576    1.1143 C   0  0  1  0  0  0  0  0  0  0  0  0
    2.3776   -1.4831    2.1164 C   0  0  0  0  0  0  0  0  0  0  0  0
    3.7836   -1.3951    0.0791 C   0  0  0  0  0  0  0  0  0  0  0  0
    4.4252   -2.1291   -1.0975 C   0  0  0  0  0  0  0  0  0  0  0  0
    5.4435   -3.1738   -0.6120 C   0  0  1  0  0  0  0  0  0  0  0  0
    6.5713   -2.3973   -0.2446 O   0  0  0  0  0  0  0  0  0  0  0  0
    4.8977   -4.1808    0.4904 C   0  0  2  0  0  0  0  0  0  0  0  0
    3.8276   -5.0055   -0.2702 C   0  0  0  0  0  0  0  0  0  0  0  0
    6.1039   -5.1120    0.9177 C   0  0  1  0  0  0  0  0  0  0  0  0
    7.0244   -4.3535    1.6710 O   0  0  0  0  0  0  0  0  0  0  0  0
    5.9302   -6.4525    1.7163 C   0  0  2  0  0  0  0  0  0  0  0  0
    5.2186   -7.5793    0.9177 C   0  0  0  0  0  0  0  0  0  0  0  0
    5.7474   -8.7935    1.1355 C   0  0  0  0  0  0  0  0  0  0  0  0
    6.7732   -8.5716    2.1568 C   0  0  1  0  0  0  0  0  0  0  0  0
    7.1901   -9.4144    3.2460 O   0  0  0  0  0  0  0  0  0  0  0  0
    5.9359   -8.7594    3.4171 C   0  0  1  0  0  0  0  0  0  0  0  0
    5.7173   -7.4454    4.1437 C   0  0  0  0  0  0  0  0  0  0  0  0
    5.3105   -6.2508    3.1678 C   0  0  2  0  0  0  0  0  0  0  0  0
    7.3045   -7.1712    1.9714 C   0  0  1  0  0  0  0  0  0  0  0  0
    8.2060   -7.1312    0.8832 O   0  0  0  0  0  0  0  0  0  0  0  0
   -0.1195   -0.0128    8.7064 H   0  0  0  0  0  0  0  0  0  0  0  0
    1.6387    0.1074    8.6889 H   0  0  0  0  0  0  0  0  0  0  0  0
    0.7213    0.7627   10.0395 H   0  0  0  0  0  0  0  0  0  0  0  0
   -0.0322   -1.5225   10.6664 H   0  0  0  0  0  0  0  0  0  0  0  0
    2.0968   -2.3684   11.5868 H   0  0  0  0  0  0  0  0  0  0  0  0
    2.0172   -0.6201   11.7350 H   0  0  0  0  0  0  0  0  0  0  0  0
    3.0148   -1.3475   10.4811 H   0  0  0  0  0  0  0  0  0  0  0  0
    1.8002   -2.5755    8.4330 H   0  0  0  0  0  0  0  0  0  0  0  0
   -0.8734   -3.4800    9.6219 H   0  0  0  0  0  0  0  0  0  0  0  0
    2.0132   -7.9058    6.5309 H   0  0  0  0  0  0  0  0  0  0  0  0
    0.6195   -7.4319    7.4613 H   0  0  0  0  0  0  0  0  0  0  0  0
    2.2149   -7.0354    8.0506 H   0  0  0  0  0  0  0  0  0  0  0  0
   -0.3045   -6.4608    5.4481 H   0  0  0  0  0  0  0  0  0  0  0  0
    0.1762   -4.8462    4.9818 H   0  0  0  0  0  0  0  0  0  0  0  0
    1.1856   -7.4737    4.0077 H   0  0  0  0  0  0  0  0  0  0  0  0
    0.6882   -4.8145    2.6337 H   0  0  0  0  0  0  0  0  0  0  0  0
   -0.2697   -6.2773    2.5777 H   0  0  0  0  0  0  0  0  0  0  0  0
    1.2922   -6.2648    1.8115 H   0  0  0  0  0  0  0  0  0  0  0  0
    3.1344   -7.2046    4.5682 H   0  0  0  0  0  0  0  0  0  0  0  0
    3.3854   -6.2224    2.2867 H   0  0  0  0  0  0  0  0  0  0  0  0
    2.6369   -4.0344    2.8461 H   0  0  0  0  0  0  0  0  0  0  0  0
    5.0282   -3.8490    4.6699 H   0  0  0  0  0  0  0  0  0  0  0  0
    3.4318   -1.7014    3.9850 H   0  0  0  0  0  0  0  0  0  0  0  0
    3.1541   -3.2999    6.2751 H   0  0  0  0  0  0  0  0  0  0  0  0
    2.0100   -3.4966    4.9902 H   0  0  0  0  0  0  0  0  0  0  0  0
    5.0733   -5.4753    6.1041 H   0  0  0  0  0  0  0  0  0  0  0  0
    4.1706   -6.7711    6.8385 H   0  0  0  0  0  0  0  0  0  0  0  0
    4.0804   -5.1554    7.5106 H   0  0  0  0  0  0  0  0  0  0  0  0
    5.0601   -2.7523    2.0608 H   0  0  0  0  0  0  0  0  0  0  0  0
    2.3899   -2.9283    0.6090 H   0  0  0  0  0  0  0  0  0  0  0  0
    3.0108   -0.7277    2.5828 H   0  0  0  0  0  0  0  0  0  0  0  0
    1.8687   -2.0547    2.8918 H   0  0  0  0  0  0  0  0  0  0  0  0
    1.5882   -0.9353    1.5971 H   0  0  0  0  0  0  0  0  0  0  0  0
    3.0176   -0.7207   -0.3106 H   0  0  0  0  0  0  0  0  0  0  0  0
    4.5274   -0.7617    0.5655 H   0  0  0  0  0  0  0  0  0  0  0  0
    3.6489   -2.5833   -1.7111 H   0  0  0  0  0  0  0  0  0  0  0  0
    4.9121   -1.4071   -1.7582 H   0  0  0  0  0  0  0  0  0  0  0  0
    5.7609   -3.7491   -1.4832 H   0  0  0  0  0  0  0  0  0  0  0  0
    6.3904   -2.0062    0.5986 H   0  0  0  0  0  0  0  0  0  0  0  0
    4.3189   -5.6196   -1.0240 H   0  0  0  0  0  0  0  0  0  0  0  0
    3.0999   -4.4017   -0.8073 H   0  0  0  0  0  0  0  0  0  0  0  0
    3.2144   -5.6464    0.3513 H   0  0  0  0  0  0  0  0  0  0  0  0
    6.6215   -5.3783   -0.0009 H   0  0  0  0  0  0  0  0  0  0  0  0
    7.7836   -4.8960    1.8135 H   0  0  0  0  0  0  0  0  0  0  0  0
    4.4108   -7.4255    0.2205 H   0  0  0  0  0  0  0  0  0  0  0  0
    5.4591   -9.7451    0.7070 H   0  0  0  0  0  0  0  0  0  0  0  0
    5.0847   -9.4395    3.4227 H   0  0  0  0  0  0  0  0  0  0  0  0
    5.0530   -7.6347    4.9750 H   0  0  0  0  0  0  0  0  0  0  0  0
    6.6628   -7.1921    4.6340 H   0  0  0  0  0  0  0  0  0  0  0  0
    5.8743   -5.4364    3.6078 H   0  0  0  0  0  0  0  0  0  0  0  0
    7.8416   -6.8128    2.8468 H   0  0  0  0  0  0  0  0  0  0  0  0
    9.0711   -7.4748    1.1471 H   0  0  0  0  0  0  0  0  0  0  0  0
  1  2  1  0
  1 43  1  0
  1 44  1  0
  1 45  1  0
  2  3  1  0
  2  4  1  0
  2 46  1  0
  3 47  1  0
  3 48  1  0
  3 49  1  0
  4  5  2  3
  4 50  1  0
  5  6  1  0
  5 51  1  0
  6  7  2  0
  6  8  1  0
  9  8  1  1
  9 20  1  0
  9 10  1  0
  9 11  1  0
 10 52  1  0
 10 53  1  0
 10 54  1  0
 11 12  1  0
 11 55  1  0
 11 56  1  0
 12 13  1  0
 12 14  1  0
 12 57  1  6
 13 58  1  0
 13 59  1  0
 13 60  1  0
 14 20  1  0
 14 15  1  0
 14 61  1  1
 15 40  1  0
 15 16  1  0
 15 62  1  6
 16 17  1  0
 16 22  1  0
 16 63  1  6
 17 18  1  0
 17 19  1  0
 17 64  1  1
 18 65  1  0
 19 20  1  0
 19 66  1  0
 19 67  1  0
 20 21  1  1
 21 68  1  0
 21 69  1  0
 21 70  1  0
 22 29  1  0
 22 23  1  0
 22 71  1  1
 23 24  1  0
 23 25  1  0
 23 72  1  6
 24 73  1  0
 24 74  1  0
 24 75  1  0
 25 26  1  0
 25 76  1  0
 25 77  1  0
 26 27  1  0
 26 78  1  0
 26 79  1  0
 27 28  1  0
 27 29  1  0
 27 80  1  6
 28 81  1  0
 29 30  1  6
 29 31  1  0
 30 82  1  0
 30 83  1  0
 30 84  1  0
 31 32  1  0
 31 33  1  0
 31 85  1  6
 32 86  1  0
 33 40  1  0
 33 41  1  0
 33 34  1  6
 34 35  2  0
 34 87  1  0
 35 36  1  0
 35 88  1  0
 36 38  1  0
 36 37  1  6
 36 41  1  0
 37 38  1  0
 38 39  1  0
 38 89  1  6
 39 40  1  0
 39 90  1  0
 39 91  1  0
 40 92  1  1
 41 42  1  0
 41 93  1  1
 42 94  1  0
M  END
>  <i_m_ct_stereo_status>  (376) 
1

>  <s_m_source_file>  (376) 
/var/tmp/pbs.5076255.sched01/tmp7b2cfgi2/13234zcpj2x.sdf

>  <i_m_source_file_index>  (376) 
30

>  <i_lp_mmshare_version>  (376) 
48012

>  <i_f3d_flags>  (376) 
0

>  <s_epik_input>  (376) 
W0NIXTE9W0NIXVtDQEBdKE8yKShbQ0BIXTNbT0hdKVtDQEBIXTJbQ0gyXVtDQEBIXShbQ0BdMTM0KVtDQEhdNVtDQEhdNltDQF0oW0NIM10pKFtDQF0oW0NIM10pKFtDSDJdW0NASF02W0NIM10pT0MoPU8pXFtDSF09W0NIXVxbQ0hdKFtDSDNdKVtDSDNdKVtDSDJdW0NASF0oW09IXSlbQ0BIXTVbQ0BIXTdbQ0BdKFtDSDNdKShbQ0BIXTRbT0hdKVtDQEhdKFtPSF0pW0NIMl1bQ0gyXVtDQEBIXTdbQ0gzXQ==

>  <s_epik_cmdline>  (376) 
J2VwaWtfcHl0aG9uJywgJy1waHQnLCAnMi4wJywgJy1waCcsICc3LjAnLCAnLXRuJywgJzgnLCAnLW1hJywgJzIwMCcsICctaW1hZScsICc8aW5maWxlLm1hZT4nLCAnLW9tYWUnLCAnPG91dGZpbGUubWFlPic=

>  <r_lp_tautomer_probability>  (376) 
1

>  <r_epik_Ionization_Penalty>  (376) 
2.00132e-06

>  <r_epik_Ionization_Penalty_Charging>  (376) 
0

>  <r_epik_Ionization_Penalty_Neutral>  (376) 
2.00132e-06

>  <r_epik_State_Penalty>  (376) 
-0

>  <r_epik_Charging_Adjusted_Penalty>  (376) 
0

>  <i_epik_Tot_Q>  (376) 
0

>  <i_epik_Tot_abs_Q>  (376) 
0

>  <s_epik_Chemistry_Notes>  (376) 
This compound has an ester and may undergo hydrolysis at high or low pH.

>  <s_lp_Force_Field>  (376) 
OPLS3e

>  <r_lp_Energy>  (376) 
126.516

>  <b_lp_Chiralities_Consistent>  (376) 
1

>  <s_lp_Variant>  (376) 
106:0-1

>  <s_i_glide_gridfile>  (376) 
pfpi4k_grid

>  <i_i_glide_lignum>  (376) 
30

>  <i_i_glide_rotatable_bonds>  (376) 
8

>  <r_i_docking_score>  (376) 
-2.42701

>  <r_i_glide_ligand_efficiency>  (376) 
-0.0577859

>  <r_i_glide_ligand_efficiency_sa>  (376) 
-0.200865

>  <r_i_glide_ligand_efficiency_ln>  (376) 
-0.512279

>  <r_i_glide_gscore>  (376) 
-2.42701

>  <r_i_glide_lipo>  (376) 
-0.436565

>  <r_i_glide_hbond>  (376) 
0

>  <r_i_glide_metal>  (376) 
-0

>  <r_i_glide_rewards>  (376) 
0

>  <r_i_glide_evdw>  (376) 
-23.4261

>  <r_i_glide_ecoul>  (376) 
-6.35852

>  <r_i_glide_erotb>  (376) 
0.140982

>  <r_i_glide_esite>  (376) 
-0.00634027

>  <r_i_glide_emodel>  (376) 
-33.8563

>  <r_i_glide_energy>  (376) 
-29.7847

>  <r_i_glide_einternal>  (376) 
1.17506

>  <r_i_glide_intrahb_reward>  (376) 
-0

>  <i_i_glide_confnum>  (376) 
3

>  <i_i_glide_posenum>  (376) 
2

>  <r_i_glide_eff_state_penalty>  (376) 
0

>  <ligand_id>  (376) 
106

>  <original_smiles>  (376) 
CC(C)C=CC(=O)OC1(C)CC(C)C2C3C(C(O)CC21C)C1C(C)CCC(O)C1(C)C(O)C12C=CC4(OC4CC31)C2O

>  <smiles>  (376) 
[H]OC1([H])C([H])([H])C2(C([H])([H])[H])C([H])(C([H])(C([H])([H])[H])C([H])([H])C2(OC(=O)C([H])=C([H])C([H])(C([H])([H])[H])C([H])([H])[H])C([H])([H])[H])C2([H])C1([H])C1([H])C([H])(C([H])([H])[H])C([H])([H])C([H])([H])C([H])(O[H])C1(C([H])([H])[H])C([H])(O[H])C13C([H])=C([H])C4(OC4([H])C([H])([H])C21[H])C3([H])O[H]

$$$$
106:0:2
     RDKit          3D

 94100  0  0  1  0  0  0  0  0999 V2000
    1.2962    0.9955    4.5471 C   0  0  0  0  0  0  0  0  0  0  0  0
    0.9080    0.6232    5.9834 C   0  0  0  0  0  0  0  0  0  0  0  0
    1.9115    1.1689    7.0052 C   0  0  0  0  0  0  0  0  0  0  0  0
    0.7603   -0.8778    6.1218 C   0  0  0  0  0  0  0  0  0  0  0  0
   -0.4155   -1.4903    6.3405 C   0  0  0  0  0  0  0  0  0  0  0  0
   -0.5738   -2.9544    6.4480 C   0  0  0  0  0  0  0  0  0  0  0  0
   -1.6765   -3.4592    6.6294 O   0  0  0  0  0  0  0  0  0  0  0  0
    0.6047   -3.6355    6.3164 O   0  0  0  0  0  0  0  0  0  0  0  0
    0.7284   -5.0349    5.9981 C   0  0  1  0  0  0  0  0  0  0  0  0
   -0.1587   -5.9293    6.9158 C   0  0  0  0  0  0  0  0  0  0  0  0
    0.3560   -5.2623    4.5265 C   0  0  0  0  0  0  0  0  0  0  0  0
    1.1704   -6.4602    4.0267 C   0  0  1  0  0  0  0  0  0  0  0  0
    1.4444   -6.3685    2.5108 C   0  0  0  0  0  0  0  0  0  0  0  0
    2.3414   -6.6501    5.0435 C   0  0  1  0  0  0  0  0  0  0  0  0
    3.7692   -7.0444    4.4727 C   0  0  1  0  0  0  0  0  0  0  0  0
    4.5023   -5.7447    3.9550 C   0  0  1  0  0  0  0  0  0  0  0  0
    4.5772   -4.7471    5.1537 C   0  0  1  0  0  0  0  0  0  0  0  0
    5.3669   -3.5921    4.9783 O   0  0  0  0  0  0  0  0  0  0  0  0
    3.1565   -4.2820    5.5140 C   0  0  0  0  0  0  0  0  0  0  0  0
    2.2491   -5.4329    6.0320 C   0  0  1  0  0  0  0  0  0  0  0  0
    2.6971   -5.7570    7.4821 C   0  0  0  0  0  0  0  0  0  0  0  0
    5.7977   -5.7638    3.0333 C   0  0  2  0  0  0  0  0  0  0  0  0
    5.6623   -4.7714    1.8002 C   0  0  1  0  0  0  0  0  0  0  0  0
    5.0773   -3.3616    2.0538 C   0  0  0  0  0  0  0  0  0  0  0  0
    7.0123   -4.5646    1.0803 C   0  0  0  0  0  0  0  0  0  0  0  0
    7.6287   -5.8708    0.6073 C   0  0  0  0  0  0  0  0  0  0  0  0
    7.7170   -6.9130    1.7326 C   0  0  1  0  0  0  0  0  0  0  0  0
    8.8321   -6.5301    2.5199 O   0  0  0  0  0  0  0  0  0  0  0  0
    6.3716   -7.1538    2.5340 C   0  0  2  0  0  0  0  0  0  0  0  0
    5.4276   -7.8199    1.4859 C   0  0  0  0  0  0  0  0  0  0  0  0
    6.7206   -8.1609    3.7042 C   0  0  1  0  0  0  0  0  0  0  0  0
    7.5483   -7.5106    4.6528 O   0  0  0  0  0  0  0  0  0  0  0  0
    5.6226   -8.9233    4.5216 C   0  0  2  0  0  0  0  0  0  0  0  0
    4.8310   -9.9807    3.6999 C   0  0  0  0  0  0  0  0  0  0  0  0
    4.5815  -11.1013    4.3897 C   0  0  0  0  0  0  0  0  0  0  0  0
    5.0995  -10.8327    5.7331 C   0  0  1  0  0  0  0  0  0  0  0  0
    4.6245  -11.2541    7.0232 O   0  0  0  0  0  0  0  0  0  0  0  0
    3.8722  -10.2215    6.3912 C   0  0  1  0  0  0  0  0  0  0  0  0
    4.0518   -8.7329    6.6224 C   0  0  0  0  0  0  0  0  0  0  0  0
    4.6828   -7.9661    5.3740 C   0  0  2  0  0  0  0  0  0  0  0  0
    6.2617   -9.8917    5.5711 C   0  0  1  0  0  0  0  0  0  0  0  0
    7.3751  -10.6269    5.0903 O   0  0  0  0  0  0  0  0  0  0  0  0
    0.5382    0.6636    3.8363 H   0  0  0  0  0  0  0  0  0  0  0  0
    2.2444    0.5408    4.2600 H   0  0  0  0  0  0  0  0  0  0  0  0
    1.3957    2.0749    4.4394 H   0  0  0  0  0  0  0  0  0  0  0  0
   -0.0622    1.0785    6.1920 H   0  0  0  0  0  0  0  0  0  0  0  0
    1.5915    0.9524    8.0253 H   0  0  0  0  0  0  0  0  0  0  0  0
    2.0096    2.2499    6.9105 H   0  0  0  0  0  0  0  0  0  0  0  0
    2.8989    0.7288    6.8627 H   0  0  0  0  0  0  0  0  0  0  0  0
    1.6774   -1.4461    6.0262 H   0  0  0  0  0  0  0  0  0  0  0  0
   -1.3078   -0.8845    6.4326 H   0  0  0  0  0  0  0  0  0  0  0  0
    0.0458   -6.9893    6.7782 H   0  0  0  0  0  0  0  0  0  0  0  0
   -1.2204   -5.8181    6.7064 H   0  0  0  0  0  0  0  0  0  0  0  0
   -0.0167   -5.6934    7.9703 H   0  0  0  0  0  0  0  0  0  0  0  0
   -0.7084   -5.4543    4.4054 H   0  0  0  0  0  0  0  0  0  0  0  0
    0.6056   -4.3707    3.9470 H   0  0  0  0  0  0  0  0  0  0  0  0
    0.5285   -7.3334    4.1489 H   0  0  0  0  0  0  0  0  0  0  0  0
    1.9438   -5.4448    2.2215 H   0  0  0  0  0  0  0  0  0  0  0  0
    0.5027   -6.3951    1.9625 H   0  0  0  0  0  0  0  0  0  0  0  0
    2.0262   -7.2120    2.1456 H   0  0  0  0  0  0  0  0  0  0  0  0
    1.9734   -7.5171    5.5807 H   0  0  0  0  0  0  0  0  0  0  0  0
    3.5168   -7.6721    3.6288 H   0  0  0  0  0  0  0  0  0  0  0  0
    3.7662   -5.3321    3.2834 H   0  0  0  0  0  0  0  0  0  0  0  0
    5.0403   -5.2244    6.0107 H   0  0  0  0  0  0  0  0  0  0  0  0
    4.9864   -3.0669    4.2900 H   0  0  0  0  0  0  0  0  0  0  0  0
    3.2105   -3.4967    6.2678 H   0  0  0  0  0  0  0  0  0  0  0  0
    2.7090   -3.8084    4.6399 H   0  0  0  0  0  0  0  0  0  0  0  0
    3.7439   -6.0510    7.5401 H   0  0  0  0  0  0  0  0  0  0  0  0
    2.1288   -6.5714    7.9301 H   0  0  0  0  0  0  0  0  0  0  0  0
    2.5732   -4.8869    8.1305 H   0  0  0  0  0  0  0  0  0  0  0  0
    6.5949   -5.3457    3.6470 H   0  0  0  0  0  0  0  0  0  0  0  0
    4.9639   -5.2111    1.0884 H   0  0  0  0  0  0  0  0  0  0  0  0
    5.7607   -2.7382    2.6323 H   0  0  0  0  0  0  0  0  0  0  0  0
    4.1033   -3.3721    2.5430 H   0  0  0  0  0  0  0  0  0  0  0  0
    4.9179   -2.8430    1.1054 H   0  0  0  0  0  0  0  0  0  0  0  0
    6.8828   -3.9008    0.2210 H   0  0  0  0  0  0  0  0  0  0  0  0
    7.7199   -4.0677    1.7411 H   0  0  0  0  0  0  0  0  0  0  0  0
    7.0120   -6.2449   -0.2022 H   0  0  0  0  0  0  0  0  0  0  0  0
    8.6077   -5.6908    0.1601 H   0  0  0  0  0  0  0  0  0  0  0  0
    8.0196   -7.8534    1.2722 H   0  0  0  0  0  0  0  0  0  0  0  0
    9.6120   -6.9012    2.1039 H   0  0  0  0  0  0  0  0  0  0  0  0
    5.7831   -8.8139    1.2075 H   0  0  0  0  0  0  0  0  0  0  0  0
    5.3481   -7.2716    0.5512 H   0  0  0  0  0  0  0  0  0  0  0  0
    4.4009   -7.9077    1.8160 H   0  0  0  0  0  0  0  0  0  0  0  0
    7.3488   -8.9251    3.2417 H   0  0  0  0  0  0  0  0  0  0  0  0
    8.1975   -7.0282    4.1459 H   0  0  0  0  0  0  0  0  0  0  0  0
    4.5390   -9.8712    2.6668 H   0  0  0  0  0  0  0  0  0  0  0  0
    4.0696  -11.9983    4.0688 H   0  0  0  0  0  0  0  0  0  0  0  0
    2.8735  -10.5269    6.0842 H   0  0  0  0  0  0  0  0  0  0  0  0
    3.1174   -8.3478    7.0028 H   0  0  0  0  0  0  0  0  0  0  0  0
    4.7288   -8.6295    7.4743 H   0  0  0  0  0  0  0  0  0  0  0  0
    5.3591   -7.2806    5.8759 H   0  0  0  0  0  0  0  0  0  0  0  0
    6.5487   -9.4221    6.5107 H   0  0  0  0  0  0  0  0  0  0  0  0
    8.1229  -10.0473    5.0900 H   0  0  0  0  0  0  0  0  0  0  0  0
  1  2  1  0
  1 43  1  0
  1 44  1  0
  1 45  1  0
  2  3  1  0
  2  4  1  0
  2 46  1  0
  3 47  1  0
  3 48  1  0
  3 49  1  0
  4  5  2  3
  4 50  1  0
  5  6  1  0
  5 51  1  0
  6  7  2  0
  6  8  1  0
  9  8  1  1
  9 20  1  0
  9 10  1  0
  9 11  1  0
 10 52  1  0
 10 53  1  0
 10 54  1  0
 11 12  1  0
 11 55  1  0
 11 56  1  0
 12 13  1  0
 12 14  1  0
 12 57  1  6
 13 58  1  0
 13 59  1  0
 13 60  1  0
 14 20  1  0
 14 15  1  0
 14 61  1  1
 15 40  1  0
 15 16  1  0
 15 62  1  6
 16 17  1  0
 16 22  1  0
 16 63  1  6
 17 18  1  0
 17 19  1  0
 17 64  1  1
 18 65  1  0
 19 20  1  0
 19 66  1  0
 19 67  1  0
 20 21  1  1
 21 68  1  0
 21 69  1  0
 21 70  1  0
 22 29  1  0
 22 23  1  0
 22 71  1  1
 23 24  1  0
 23 25  1  0
 23 72  1  6
 24 73  1  0
 24 74  1  0
 24 75  1  0
 25 26  1  0
 25 76  1  0
 25 77  1  0
 26 27  1  0
 26 78  1  0
 26 79  1  0
 27 28  1  0
 27 29  1  0
 27 80  1  6
 28 81  1  0
 29 30  1  6
 29 31  1  0
 30 82  1  0
 30 83  1  0
 30 84  1  0
 31 32  1  0
 31 33  1  0
 31 85  1  6
 32 86  1  0
 33 40  1  0
 33 41  1  0
 33 34  1  6
 34 35  2  0
 34 87  1  0
 35 36  1  0
 35 88  1  0
 36 38  1  0
 36 37  1  1
 36 41  1  0
 37 38  1  0
 38 39  1  0
 38 89  1  6
 39 40  1  0
 39 90  1  0
 39 91  1  0
 40 92  1  1
 41 42  1  0
 41 93  1  1
 42 94  1  0
M  END
>  <i_m_ct_stereo_status>  (377) 
1

>  <s_m_source_file>  (377) 
/var/tmp/pbs.5076255.sched01/tmp7b2cfgi2/13234zcpj2x.sdf

>  <i_m_source_file_index>  (377) 
30

>  <i_lp_mmshare_version>  (377) 
48012

>  <i_f3d_flags>  (377) 
0

>  <s_epik_input>  (377) 
W0NIXTE9W0NIXVtDQEBdKE8yKShbQ0BIXTNbT0hdKVtDQEBIXTJbQ0gyXVtDQEBIXShbQ0BdMTM0KVtDQEhdNVtDQEhdNltDQF0oW0NIM10pKFtDQF0oW0NIM10pKFtDSDJdW0NASF02W0NIM10pT0MoPU8pXFtDSF09W0NIXVxbQ0hdKFtDSDNdKVtDSDNdKVtDSDJdW0NASF0oW09IXSlbQ0BIXTVbQ0BIXTdbQ0BdKFtDSDNdKShbQ0BIXTRbT0hdKVtDQEhdKFtPSF0pW0NIMl1bQ0gyXVtDQEBIXTdbQ0gzXQ==

>  <s_epik_cmdline>  (377) 
J2VwaWtfcHl0aG9uJywgJy1waHQnLCAnMi4wJywgJy1waCcsICc3LjAnLCAnLXRuJywgJzgnLCAnLW1hJywgJzIwMCcsICctaW1hZScsICc8aW5maWxlLm1hZT4nLCAnLW9tYWUnLCAnPG91dGZpbGUubWFlPic=

>  <r_lp_tautomer_probability>  (377) 
1

>  <r_epik_Ionization_Penalty>  (377) 
2.00132e-06

>  <r_epik_Ionization_Penalty_Charging>  (377) 
0

>  <r_epik_Ionization_Penalty_Neutral>  (377) 
2.00132e-06

>  <r_epik_State_Penalty>  (377) 
-0

>  <r_epik_Charging_Adjusted_Penalty>  (377) 
0

>  <i_epik_Tot_Q>  (377) 
0

>  <i_epik_Tot_abs_Q>  (377) 
0

>  <s_epik_Chemistry_Notes>  (377) 
This compound has an ester and may undergo hydrolysis at high or low pH.

>  <s_lp_Force_Field>  (377) 
OPLS3e

>  <r_lp_Energy>  (377) 
126.516

>  <b_lp_Chiralities_Consistent>  (377) 
1

>  <s_lp_Variant>  (377) 
106:0-1

>  <s_i_glide_gridfile>  (377) 
pfpi4k_grid

>  <i_i_glide_lignum>  (377) 
30

>  <i_i_glide_rotatable_bonds>  (377) 
8

>  <r_i_docking_score>  (377) 
-2.14952

>  <r_i_glide_ligand_efficiency>  (377) 
-0.0511791

>  <r_i_glide_ligand_efficiency_sa>  (377) 
-0.1779

>  <r_i_glide_ligand_efficiency_ln>  (377) 
-0.453709

>  <r_i_glide_gscore>  (377) 
-2.14952

>  <r_i_glide_lipo>  (377) 
-0.363319

>  <r_i_glide_hbond>  (377) 
0

>  <r_i_glide_metal>  (377) 
-0

>  <r_i_glide_rewards>  (377) 
-0.5

>  <r_i_glide_evdw>  (377) 
-17.1201

>  <r_i_glide_ecoul>  (377) 
-3.57318

>  <r_i_glide_erotb>  (377) 
0.140982

>  <r_i_glide_esite>  (377) 
-0.0352034

>  <r_i_glide_emodel>  (377) 
-27.3984

>  <r_i_glide_energy>  (377) 
-20.6933

>  <r_i_glide_einternal>  (377) 
3.93293

>  <r_i_glide_intrahb_reward>  (377) 
-0.5

>  <i_i_glide_confnum>  (377) 
3

>  <i_i_glide_posenum>  (377) 
1

>  <r_i_glide_eff_state_penalty>  (377) 
0

>  <ligand_id>  (377) 
106

>  <original_smiles>  (377) 
CC(C)C=CC(=O)OC1(C)CC(C)C2C3C(C(O)CC21C)C1C(C)CCC(O)C1(C)C(O)C12C=CC4(OC4CC31)C2O

>  <smiles>  (377) 
[H]OC1([H])C([H])([H])C2(C([H])([H])[H])C([H])(C([H])(C([H])([H])[H])C([H])([H])C2(OC(=O)C([H])=C([H])C([H])(C([H])([H])[H])C([H])([H])[H])C([H])([H])[H])C2([H])C1([H])C1([H])C([H])(C([H])([H])[H])C([H])([H])C([H])([H])C([H])(O[H])C1(C([H])([H])[H])C([H])(O[H])C13C([H])=C([H])C4(OC4([H])C([H])([H])C21[H])C3([H])O[H]

$$$$
106:1:0
     RDKit          3D

 94100  0  0  1  0  0  0  0  0999 V2000
   -1.8279   -1.1007    4.8562 C   0  0  0  0  0  0  0  0  0  0  0  0
   -0.8448    0.0727    4.6745 C   0  0  0  0  0  0  0  0  0  0  0  0
   -1.4747    1.3853    5.1642 C   0  0  0  0  0  0  0  0  0  0  0  0
   -0.3691    0.2236    3.2282 C   0  0  0  0  0  0  0  0  0  0  0  0
    0.7069   -0.3615    2.6556 C   0  0  0  0  0  0  0  0  0  0  0  0
    1.5731   -1.3488    3.3372 C   0  0  0  0  0  0  0  0  0  0  0  0
    1.2041   -2.0875    4.2506 O   0  0  0  0  0  0  0  0  0  0  0  0
    2.8165   -1.4029    2.7815 O   0  0  0  0  0  0  0  0  0  0  0  0
    3.8665   -2.3499    3.1256 C   0  0  1  0  0  0  0  0  0  0  0  0
    5.1575   -1.6345    2.6541 C   0  0  0  0  0  0  0  0  0  0  0  0
    4.0284   -2.6410    4.6375 C   0  0  0  0  0  0  0  0  0  0  0  0
    4.7195   -4.0016    4.7569 C   0  0  1  0  0  0  0  0  0  0  0  0
    4.2428   -4.7279    6.0335 C   0  0  0  0  0  0  0  0  0  0  0  0
    4.5892   -4.6998    3.3622 C   0  0  1  0  0  0  0  0  0  0  0  0
    4.2876   -6.2606    3.3245 C   0  0  1  0  0  0  0  0  0  0  0  0
    2.7357   -6.5088    3.4792 C   0  0  1  0  0  0  0  0  0  0  0  0
    2.0316   -5.7607    2.3131 C   0  0  1  0  0  0  0  0  0  0  0  0
    0.6462   -5.9766    2.1874 O   0  0  0  0  0  0  0  0  0  0  0  0
    2.2183   -4.2531    2.5772 C   0  0  0  0  0  0  0  0  0  0  0  0
    3.6910   -3.7702    2.4700 C   0  0  1  0  0  0  0  0  0  0  0  0
    4.0776   -3.7508    0.9638 C   0  0  0  0  0  0  0  0  0  0  0  0
    2.0684   -7.9047    3.8379 C   0  0  2  0  0  0  0  0  0  0  0  0
    1.0012   -7.7837    5.0149 C   0  0  1  0  0  0  0  0  0  0  0  0
    0.0067   -6.5988    4.9975 C   0  0  0  0  0  0  0  0  0  0  0  0
    0.1617   -9.0726    5.1331 C   0  0  0  0  0  0  0  0  0  0  0  0
    1.0215  -10.3061    5.3816 C   0  0  0  0  0  0  0  0  0  0  0  0
    2.1249  -10.4479    4.3162 C   0  0  1  0  0  0  0  0  0  0  0  0
    1.4626  -10.9350    3.1633 O   0  0  0  0  0  0  0  0  0  0  0  0
    3.0116   -9.1528    4.0800 C   0  0  2  0  0  0  0  0  0  0  0  0
    3.7967   -9.0095    5.4156 C   0  0  0  0  0  0  0  0  0  0  0  0
    3.9831   -9.4493    2.8537 C   0  0  1  0  0  0  0  0  0  0  0  0
    3.2639   -9.4689    1.6264 O   0  0  0  0  0  0  0  0  0  0  0  0
    5.2563   -8.5848    2.5498 C   0  0  2  0  0  0  0  0  0  0  0  0
    6.3665   -8.6795    3.6263 C   0  0  0  0  0  0  0  0  0  0  0  0
    7.6022   -8.7112    3.1055 C   0  0  0  0  0  0  0  0  0  0  0  0
    7.4020   -8.5378    1.6603 C   0  0  1  0  0  0  0  0  0  0  0  0
    8.1993   -7.8429    0.6930 O   0  0  0  0  0  0  0  0  0  0  0  0
    7.4500   -7.0129    1.5511 C   0  0  1  0  0  0  0  0  0  0  0  0
    6.0720   -6.4420    1.2627 C   0  0  0  0  0  0  0  0  0  0  0  0
    4.9157   -7.0903    2.1437 C   0  0  2  0  0  0  0  0  0  0  0  0
    6.0579   -9.1642    1.3380 C   0  0  1  0  0  0  0  0  0  0  0  0
    6.2103  -10.5816    1.3224 O   0  0  0  0  0  0  0  0  0  0  0  0
   -1.3674   -2.0556    4.6095 H   0  0  0  0  0  0  0  0  0  0  0  0
   -2.7002   -0.9931    4.2175 H   0  0  0  0  0  0  0  0  0  0  0  0
   -2.1809   -1.1813    5.8848 H   0  0  0  0  0  0  0  0  0  0  0  0
    0.0103   -0.1205    5.3312 H   0  0  0  0  0  0  0  0  0  0  0  0
   -0.7536    2.2013    5.1087 H   0  0  0  0  0  0  0  0  0  0  0  0
   -1.8180    1.3116    6.1982 H   0  0  0  0  0  0  0  0  0  0  0  0
   -2.3298    1.6522    4.5428 H   0  0  0  0  0  0  0  0  0  0  0  0
   -0.9626    0.8860    2.6184 H   0  0  0  0  0  0  0  0  0  0  0  0
    0.9491   -0.1289    1.6261 H   0  0  0  0  0  0  0  0  0  0  0  0
    6.0314   -2.2742    2.7334 H   0  0  0  0  0  0  0  0  0  0  0  0
    5.3643   -0.7518    3.2525 H   0  0  0  0  0  0  0  0  0  0  0  0
    5.1029   -1.2962    1.6199 H   0  0  0  0  0  0  0  0  0  0  0  0
    4.5762   -1.8413    5.1473 H   0  0  0  0  0  0  0  0  0  0  0  0
    3.0745   -2.7349    5.1539 H   0  0  0  0  0  0  0  0  0  0  0  0
    5.7775   -3.8055    4.9075 H   0  0  0  0  0  0  0  0  0  0  0  0
    3.1587   -4.8473    6.0882 H   0  0  0  0  0  0  0  0  0  0  0  0
    4.5187   -4.1439    6.9138 H   0  0  0  0  0  0  0  0  0  0  0  0
    4.7038   -5.7060    6.1599 H   0  0  0  0  0  0  0  0  0  0  0  0
    5.6056   -4.5741    3.0164 H   0  0  0  0  0  0  0  0  0  0  0  0
    4.7982   -6.6187    4.2075 H   0  0  0  0  0  0  0  0  0  0  0  0
    2.5176   -5.9483    4.3765 H   0  0  0  0  0  0  0  0  0  0  0  0
    2.4205   -6.0502    1.3346 H   0  0  0  0  0  0  0  0  0  0  0  0
    0.5105   -6.9095    2.0785 H   0  0  0  0  0  0  0  0  0  0  0  0
    1.6275   -3.6929    1.8591 H   0  0  0  0  0  0  0  0  0  0  0  0
    1.8137   -4.0024    3.5635 H   0  0  0  0  0  0  0  0  0  0  0  0
    3.9491   -4.7146    0.4797 H   0  0  0  0  0  0  0  0  0  0  0  0
    5.1101   -3.4608    0.7930 H   0  0  0  0  0  0  0  0  0  0  0  0
    3.4590   -3.0409    0.4148 H   0  0  0  0  0  0  0  0  0  0  0  0
    1.4874   -8.1869    2.9562 H   0  0  0  0  0  0  0  0  0  0  0  0
    1.5453   -7.6504    5.9496 H   0  0  0  0  0  0  0  0  0  0  0  0
   -0.7169   -6.6870    4.1886 H   0  0  0  0  0  0  0  0  0  0  0  0
    0.4859   -5.6246    4.9298 H   0  0  0  0  0  0  0  0  0  0  0  0
   -0.5700   -6.5786    5.9225 H   0  0  0  0  0  0  0  0  0  0  0  0
   -0.5614   -8.9851    5.9473 H   0  0  0  0  0  0  0  0  0  0  0  0
   -0.4217   -9.2141    4.2232 H   0  0  0  0  0  0  0  0  0  0  0  0
    1.4428  -10.2548    6.3804 H   0  0  0  0  0  0  0  0  0  0  0  0
    0.3878  -11.1959    5.3920 H   0  0  0  0  0  0  0  0  0  0  0  0
    2.7829  -11.2581    4.6338 H   0  0  0  0  0  0  0  0  0  0  0  0
    1.2217  -11.8382    3.3303 H   0  0  0  0  0  0  0  0  0  0  0  0
    4.5032   -9.8285    5.5432 H   0  0  0  0  0  0  0  0  0  0  0  0
    3.1688   -9.0399    6.2987 H   0  0  0  0  0  0  0  0  0  0  0  0
    4.3316   -8.0766    5.5194 H   0  0  0  0  0  0  0  0  0  0  0  0
    4.3274  -10.4740    3.0189 H   0  0  0  0  0  0  0  0  0  0  0  0
    3.3821  -10.3278    1.2328 H   0  0  0  0  0  0  0  0  0  0  0  0
    6.2016   -8.7567    4.6791 H   0  0  0  0  0  0  0  0  0  0  0  0
    8.5587   -8.7944    3.5967 H   0  0  0  0  0  0  0  0  0  0  0  0
    8.0507   -6.4349    2.2440 H   0  0  0  0  0  0  0  0  0  0  0  0
    6.1622   -5.3662    1.2845 H   0  0  0  0  0  0  0  0  0  0  0  0
    5.8436   -6.6171    0.1957 H   0  0  0  0  0  0  0  0  0  0  0  0
    4.1353   -7.1700    1.4050 H   0  0  0  0  0  0  0  0  0  0  0  0
    5.6551   -8.8509    0.3771 H   0  0  0  0  0  0  0  0  0  0  0  0
    5.4137  -10.9964    1.0235 H   0  0  0  0  0  0  0  0  0  0  0  0
  1  2  1  0
  1 43  1  0
  1 44  1  0
  1 45  1  0
  2  3  1  0
  2  4  1  0
  2 46  1  0
  3 47  1  0
  3 48  1  0
  3 49  1  0
  4  5  2  3
  4 50  1  0
  5  6  1  0
  5 51  1  0
  6  7  2  0
  6  8  1  0
  9  8  1  1
  9 20  1  0
  9 10  1  0
  9 11  1  0
 10 52  1  0
 10 53  1  0
 10 54  1  0
 11 12  1  0
 11 55  1  0
 11 56  1  0
 12 13  1  0
 12 14  1  0
 12 57  1  1
 13 58  1  0
 13 59  1  0
 13 60  1  0
 14 20  1  0
 14 15  1  0
 14 61  1  6
 15 40  1  0
 15 16  1  0
 15 62  1  1
 16 17  1  0
 16 22  1  0
 16 63  1  1
 17 18  1  0
 17 19  1  0
 17 64  1  6
 18 65  1  0
 19 20  1  0
 19 66  1  0
 19 67  1  0
 20 21  1  6
 21 68  1  0
 21 69  1  0
 21 70  1  0
 22 29  1  0
 22 23  1  0
 22 71  1  6
 23 24  1  0
 23 25  1  0
 23 72  1  1
 24 73  1  0
 24 74  1  0
 24 75  1  0
 25 26  1  0
 25 76  1  0
 25 77  1  0
 26 27  1  0
 26 78  1  0
 26 79  1  0
 27 28  1  0
 27 29  1  0
 27 80  1  1
 28 81  1  0
 29 30  1  1
 29 31  1  0
 30 82  1  0
 30 83  1  0
 30 84  1  0
 31 32  1  0
 31 33  1  0
 31 85  1  1
 32 86  1  0
 33 40  1  0
 33 41  1  0
 33 34  1  1
 34 35  2  0
 34 87  1  0
 35 36  1  0
 35 88  1  0
 36 38  1  0
 36 37  1  6
 36 41  1  0
 37 38  1  0
 38 39  1  0
 38 89  1  1
 39 40  1  0
 39 90  1  0
 39 91  1  0
 40 92  1  6
 41 42  1  0
 41 93  1  6
 42 94  1  0
M  END
>  <i_m_ct_stereo_status>  (378) 
1

>  <s_m_source_file>  (378) 
/var/tmp/pbs.5076255.sched01/tmp7b2cfgi2/13234zcpj2x.sdf

>  <i_m_source_file_index>  (378) 
31

>  <i_lp_mmshare_version>  (378) 
48012

>  <i_f3d_flags>  (378) 
0

>  <s_epik_input>  (378) 
W0NIXTE9W0NIXVtDQEBdKE8yKShbQ0BIXTNbT0hdKVtDQEBIXTJbQ0gyXVtDQEBIXShbQ0BdMTM0KVtDQEhdNVtDQEhdNltDQF0oW0NIM10pKFtDQF0oW0NIM10pKFtDSDJdW0NASF02W0NIM10pT0MoPU8pXFtDSF09W0NIXVxbQ0hdKFtDSDNdKVtDSDNdKVtDSDJdW0NASF0oW09IXSlbQ0BIXTVbQ0BIXTdbQ0BdKFtDSDNdKShbQ0BIXTRbT0hdKVtDQEhdKFtPSF0pW0NIMl1bQ0gyXVtDQEBIXTdbQ0gzXQ==

>  <s_epik_cmdline>  (378) 
J2VwaWtfcHl0aG9uJywgJy1waHQnLCAnMi4wJywgJy1waCcsICc3LjAnLCAnLXRuJywgJzgnLCAnLW1hJywgJzIwMCcsICctaW1hZScsICc8aW5maWxlLm1hZT4nLCAnLW9tYWUnLCAnPG91dGZpbGUubWFlPic=

>  <r_lp_tautomer_probability>  (378) 
1

>  <r_epik_Ionization_Penalty>  (378) 
2.00132e-06

>  <r_epik_Ionization_Penalty_Charging>  (378) 
0

>  <r_epik_Ionization_Penalty_Neutral>  (378) 
2.00132e-06

>  <r_epik_State_Penalty>  (378) 
-0

>  <r_epik_Charging_Adjusted_Penalty>  (378) 
0

>  <i_epik_Tot_Q>  (378) 
0

>  <i_epik_Tot_abs_Q>  (378) 
0

>  <s_epik_Chemistry_Notes>  (378) 
This compound has an ester and may undergo hydrolysis at high or low pH.

>  <s_lp_Force_Field>  (378) 
OPLS3e

>  <r_lp_Energy>  (378) 
131.221

>  <b_lp_Chiralities_Consistent>  (378) 
1

>  <s_lp_Variant>  (378) 
106:0-2

>  <s_i_glide_gridfile>  (378) 
pfpi4k_grid

>  <i_i_glide_lignum>  (378) 
31

>  <i_i_glide_rotatable_bonds>  (378) 
8

>  <r_i_docking_score>  (378) 
-2.95828

>  <r_i_glide_ligand_efficiency>  (378) 
-0.0704352

>  <r_i_glide_ligand_efficiency_sa>  (378) 
-0.244835

>  <r_i_glide_ligand_efficiency_ln>  (378) 
-0.624417

>  <r_i_glide_gscore>  (378) 
-2.95828

>  <r_i_glide_lipo>  (378) 
-0.391156

>  <r_i_glide_hbond>  (378) 
-0.136253

>  <r_i_glide_metal>  (378) 
-0

>  <r_i_glide_rewards>  (378) 
0

>  <r_i_glide_evdw>  (378) 
-28.1959

>  <r_i_glide_ecoul>  (378) 
-7.70725

>  <r_i_glide_erotb>  (378) 
0.140982

>  <r_i_glide_esite>  (378) 
-0.00596978

>  <r_i_glide_emodel>  (378) 
-34.5441

>  <r_i_glide_energy>  (378) 
-35.9032

>  <r_i_glide_einternal>  (378) 
17.0202

>  <r_i_glide_intrahb_reward>  (378) 
-0

>  <i_i_glide_confnum>  (378) 
4

>  <i_i_glide_posenum>  (378) 
25

>  <r_i_glide_eff_state_penalty>  (378) 
0

>  <ligand_id>  (378) 
106

>  <original_smiles>  (378) 
CC(C)C=CC(=O)OC1(C)CC(C)C2C3C(C(O)CC21C)C1C(C)CCC(O)C1(C)C(O)C12C=CC4(OC4CC31)C2O

>  <smiles>  (378) 
[H]OC1([H])C([H])([H])C2(C([H])([H])[H])C([H])(C([H])(C([H])([H])[H])C([H])([H])C2(OC(=O)C([H])=C([H])C([H])(C([H])([H])[H])C([H])([H])[H])C([H])([H])[H])C2([H])C1([H])C1([H])C([H])(C([H])([H])[H])C([H])([H])C([H])([H])C([H])(O[H])C1(C([H])([H])[H])C([H])(O[H])C13C([H])=C([H])C4(OC4([H])C([H])([H])C21[H])C3([H])O[H]

$$$$
106:1:1
     RDKit          3D

 94100  0  0  1  0  0  0  0  0999 V2000
   -1.3762   -0.6214    4.5499 C   0  0  0  0  0  0  0  0  0  0  0  0
   -0.1419    0.2272    4.2221 C   0  0  0  0  0  0  0  0  0  0  0  0
   -0.3253    1.6832    4.6567 C   0  0  0  0  0  0  0  0  0  0  0  0
    0.2307    0.1642    2.7379 C   0  0  0  0  0  0  0  0  0  0  0  0
    1.1833   -0.6056    2.1676 C   0  0  0  0  0  0  0  0  0  0  0  0
    1.9624   -1.6532    2.8642 C   0  0  0  0  0  0  0  0  0  0  0  0
    1.6605   -2.1287    3.9541 O   0  0  0  0  0  0  0  0  0  0  0  0
    3.0197   -2.0675    2.1112 O   0  0  0  0  0  0  0  0  0  0  0  0
    3.9904   -3.0826    2.4848 C   0  0  1  0  0  0  0  0  0  0  0  0
    5.2256   -2.7238    1.6208 C   0  0  0  0  0  0  0  0  0  0  0  0
    4.4311   -3.0328    3.9646 C   0  0  0  0  0  0  0  0  0  0  0  0
    4.9688   -4.4227    4.3164 C   0  0  1  0  0  0  0  0  0  0  0  0
    4.6828   -4.7375    5.8002 C   0  0  0  0  0  0  0  0  0  0  0  0
    4.4722   -5.3965    3.1984 C   0  0  1  0  0  0  0  0  0  0  0  0
    3.9848   -6.8461    3.6253 C   0  0  1  0  0  0  0  0  0  0  0  0
    2.4797   -6.7880    4.0996 C   0  0  1  0  0  0  0  0  0  0  0  0
    1.6450   -6.2438    2.9090 C   0  0  1  0  0  0  0  0  0  0  0  0
    0.2443   -6.2605    3.0766 O   0  0  0  0  0  0  0  0  0  0  0  0
    2.0604   -4.7744    2.7367 C   0  0  0  0  0  0  0  0  0  0  0  0
    3.5209   -4.5702    2.2631 C   0  0  1  0  0  0  0  0  0  0  0  0
    3.5822   -4.9720    0.7598 C   0  0  0  0  0  0  0  0  0  0  0  0
    1.7457   -7.9221    4.9222 C   0  0  2  0  0  0  0  0  0  0  0  0
    0.9719   -7.3572    6.1938 C   0  0  1  0  0  0  0  0  0  0  0  0
    0.1330   -6.0729    6.0352 C   0  0  0  0  0  0  0  0  0  0  0  0
    0.0375   -8.4239    6.7922 C   0  0  0  0  0  0  0  0  0  0  0  0
    0.7738   -9.6836    7.1876 C   0  0  0  0  0  0  0  0  0  0  0  0
    1.6030  -10.2250    6.0150 C   0  0  1  0  0  0  0  0  0  0  0  0
    0.6975  -10.8669    5.1454 O   0  0  0  0  0  0  0  0  0  0  0  0
    2.5749   -9.2039    5.3192 C   0  0  2  0  0  0  0  0  0  0  0  0
    3.6293   -8.8938    6.4198 C   0  0  0  0  0  0  0  0  0  0  0  0
    3.2293   -9.9537    4.0798 C   0  0  1  0  0  0  0  0  0  0  0  0
    2.2470  -10.1707    3.0776 O   0  0  0  0  0  0  0  0  0  0  0  0
    4.4974   -9.4007    3.3546 C   0  0  2  0  0  0  0  0  0  0  0  0
    5.7915   -9.4209    4.2073 C   0  0  0  0  0  0  0  0  0  0  0  0
    6.8727   -9.7761    3.4988 C   0  0  0  0  0  0  0  0  0  0  0  0
    6.3874   -9.9261    2.1246 C   0  0  1  0  0  0  0  0  0  0  0  0
    7.0200   -9.6439    0.8609 O   0  0  0  0  0  0  0  0  0  0  0  0
    6.5828   -8.5109    1.5977 C   0  0  1  0  0  0  0  0  0  0  0  0
    5.2515   -7.8120    1.4087 C   0  0  0  0  0  0  0  0  0  0  0  0
    4.2431   -8.0214    2.6162 C   0  0  2  0  0  0  0  0  0  0  0  0
    4.9593  -10.3606    2.2253 C   0  0  1  0  0  0  0  0  0  0  0  0
    5.0354  -11.7229    2.5520 O   0  0  0  0  0  0  0  0  0  0  0  0
   -1.2256   -1.6774    4.3158 H   0  0  0  0  0  0  0  0  0  0  0  0
   -2.2101   -0.2610    3.9612 H   0  0  0  0  0  0  0  0  0  0  0  0
   -1.6585   -0.5493    5.6029 H   0  0  0  0  0  0  0  0  0  0  0  0
    0.6645   -0.1368    4.8588 H   0  0  0  0  0  0  0  0  0  0  0  0
    0.5997    2.2388    4.4941 H   0  0  0  0  0  0  0  0  0  0  0  0
   -0.5714    1.7499    5.7183 H   0  0  0  0  0  0  0  0  0  0  0  0
   -1.1181    2.1654    4.0848 H   0  0  0  0  0  0  0  0  0  0  0  0
   -0.3284    0.8378    2.0969 H   0  0  0  0  0  0  0  0  0  0  0  0
    1.3974   -0.4741    1.1159 H   0  0  0  0  0  0  0  0  0  0  0  0
    6.0189   -3.4595    1.7178 H   0  0  0  0  0  0  0  0  0  0  0  0
    5.6495   -1.7690    1.9182 H   0  0  0  0  0  0  0  0  0  0  0  0
    4.9937   -2.6390    0.5596 H   0  0  0  0  0  0  0  0  0  0  0  0
    5.1676   -2.2404    4.1378 H   0  0  0  0  0  0  0  0  0  0  0  0
    3.6063   -2.8425    4.6450 H   0  0  0  0  0  0  0  0  0  0  0  0
    6.0508   -4.3839    4.2269 H   0  0  0  0  0  0  0  0  0  0  0  0
    3.6269   -4.6589    6.0666 H   0  0  0  0  0  0  0  0  0  0  0  0
    5.2001   -4.0130    6.4316 H   0  0  0  0  0  0  0  0  0  0  0  0
    5.0432   -5.7195    6.1004 H   0  0  0  0  0  0  0  0  0  0  0  0
    5.4004   -5.5295    2.6589 H   0  0  0  0  0  0  0  0  0  0  0  0
    4.6218   -7.0672    4.4715 H   0  0  0  0  0  0  0  0  0  0  0  0
    2.5200   -6.0086    4.8465 H   0  0  0  0  0  0  0  0  0  0  0  0
    1.7907   -6.8195    1.9923 H   0  0  0  0  0  0  0  0  0  0  0  0
   -0.0217   -7.1537    3.2447 H   0  0  0  0  0  0  0  0  0  0  0  0
    1.4072   -4.2897    2.0183 H   0  0  0  0  0  0  0  0  0  0  0  0
    1.9147   -4.2859    3.6985 H   0  0  0  0  0  0  0  0  0  0  0  0
    3.2455   -5.9892    0.5738 H   0  0  0  0  0  0  0  0  0  0  0  0
    4.5831   -4.9056    0.3392 H   0  0  0  0  0  0  0  0  0  0  0  0
    2.9490   -4.3211    0.1553 H   0  0  0  0  0  0  0  0  0  0  0  0
    0.9656   -8.3092    4.2618 H   0  0  0  0  0  0  0  0  0  0  0  0
    1.7112   -7.1032    6.9521 H   0  0  0  0  0  0  0  0  0  0  0  0
   -0.7452   -6.2340    5.4109 H   0  0  0  0  0  0  0  0  0  0  0  0
    0.6979   -5.2366    5.6320 H   0  0  0  0  0  0  0  0  0  0  0  0
   -0.2337   -5.7446    7.0085 H   0  0  0  0  0  0  0  0  0  0  0  0
   -0.4671   -8.0465    7.6858 H   0  0  0  0  0  0  0  0  0  0  0  0
   -0.7246   -8.6954    6.0617 H   0  0  0  0  0  0  0  0  0  0  0  0
    1.3965   -9.4949    8.0576 H   0  0  0  0  0  0  0  0  0  0  0  0
    0.0459  -10.4245    7.5223 H   0  0  0  0  0  0  0  0  0  0  0  0
    2.2124  -11.0094    6.4325 H   0  0  0  0  0  0  0  0  0  0  0  0
    0.2660  -11.5298    5.6669 H   0  0  0  0  0  0  0  0  0  0  0  0
    4.2389   -9.7728    6.6281 H   0  0  0  0  0  0  0  0  0  0  0  0
    3.1960   -8.6197    7.3737 H   0  0  0  0  0  0  0  0  0  0  0  0
    4.2860   -8.0693    6.1846 H   0  0  0  0  0  0  0  0  0  0  0  0
    3.4831  -10.9550    4.4431 H   0  0  0  0  0  0  0  0  0  0  0  0
    1.5571  -10.6879    3.4836 H   0  0  0  0  0  0  0  0  0  0  0  0
    5.8434   -9.2295    5.2553 H   0  0  0  0  0  0  0  0  0  0  0  0
    7.8964   -9.9143    3.8168 H   0  0  0  0  0  0  0  0  0  0  0  0
    7.3864   -7.9061    1.9763 H   0  0  0  0  0  0  0  0  0  0  0  0
    5.4781   -6.7899    1.1213 H   0  0  0  0  0  0  0  0  0  0  0  0
    4.8057   -8.2311    0.4942 H   0  0  0  0  0  0  0  0  0  0  0  0
    3.3224   -8.1579    2.0751 H   0  0  0  0  0  0  0  0  0  0  0  0
    4.4107  -10.2638    1.3024 H   0  0  0  0  0  0  0  0  0  0  0  0
    4.6895  -12.1486    1.7653 H   0  0  0  0  0  0  0  0  0  0  0  0
  1  2  1  0
  1 43  1  0
  1 44  1  0
  1 45  1  0
  2  3  1  0
  2  4  1  0
  2 46  1  0
  3 47  1  0
  3 48  1  0
  3 49  1  0
  4  5  2  3
  4 50  1  0
  5  6  1  0
  5 51  1  0
  6  7  2  0
  6  8  1  0
  9  8  1  1
  9 20  1  0
  9 10  1  0
  9 11  1  0
 10 52  1  0
 10 53  1  0
 10 54  1  0
 11 12  1  0
 11 55  1  0
 11 56  1  0
 12 13  1  0
 12 14  1  0
 12 57  1  1
 13 58  1  0
 13 59  1  0
 13 60  1  0
 14 20  1  0
 14 15  1  0
 14 61  1  6
 15 40  1  0
 15 16  1  0
 15 62  1  1
 16 17  1  0
 16 22  1  0
 16 63  1  1
 17 18  1  0
 17 19  1  0
 17 64  1  6
 18 65  1  0
 19 20  1  0
 19 66  1  0
 19 67  1  0
 20 21  1  6
 21 68  1  0
 21 69  1  0
 21 70  1  0
 22 29  1  0
 22 23  1  0
 22 71  1  6
 23 24  1  0
 23 25  1  0
 23 72  1  1
 24 73  1  0
 24 74  1  0
 24 75  1  0
 25 26  1  0
 25 76  1  0
 25 77  1  0
 26 27  1  0
 26 78  1  0
 26 79  1  0
 27 28  1  0
 27 29  1  0
 27 80  1  1
 28 81  1  0
 29 30  1  1
 29 31  1  0
 30 82  1  0
 30 83  1  0
 30 84  1  0
 31 32  1  0
 31 33  1  0
 31 85  1  1
 32 86  1  0
 33 40  1  0
 33 41  1  0
 33 34  1  1
 34 35  2  0
 34 87  1  0
 35 36  1  0
 35 88  1  0
 36 38  1  0
 36 37  1  6
 36 41  1  0
 37 38  1  0
 38 39  1  0
 38 89  1  1
 39 40  1  0
 39 90  1  0
 39 91  1  0
 40 92  1  6
 41 42  1  0
 41 93  1  6
 42 94  1  0
M  END
>  <i_m_ct_stereo_status>  (379) 
1

>  <s_m_source_file>  (379) 
/var/tmp/pbs.5076255.sched01/tmp7b2cfgi2/13234zcpj2x.sdf

>  <i_m_source_file_index>  (379) 
31

>  <i_lp_mmshare_version>  (379) 
48012

>  <i_f3d_flags>  (379) 
0

>  <s_epik_input>  (379) 
W0NIXTE9W0NIXVtDQEBdKE8yKShbQ0BIXTNbT0hdKVtDQEBIXTJbQ0gyXVtDQEBIXShbQ0BdMTM0KVtDQEhdNVtDQEhdNltDQF0oW0NIM10pKFtDQF0oW0NIM10pKFtDSDJdW0NASF02W0NIM10pT0MoPU8pXFtDSF09W0NIXVxbQ0hdKFtDSDNdKVtDSDNdKVtDSDJdW0NASF0oW09IXSlbQ0BIXTVbQ0BIXTdbQ0BdKFtDSDNdKShbQ0BIXTRbT0hdKVtDQEhdKFtPSF0pW0NIMl1bQ0gyXVtDQEBIXTdbQ0gzXQ==

>  <s_epik_cmdline>  (379) 
J2VwaWtfcHl0aG9uJywgJy1waHQnLCAnMi4wJywgJy1waCcsICc3LjAnLCAnLXRuJywgJzgnLCAnLW1hJywgJzIwMCcsICctaW1hZScsICc8aW5maWxlLm1hZT4nLCAnLW9tYWUnLCAnPG91dGZpbGUubWFlPic=

>  <r_lp_tautomer_probability>  (379) 
1

>  <r_epik_Ionization_Penalty>  (379) 
2.00132e-06

>  <r_epik_Ionization_Penalty_Charging>  (379) 
0

>  <r_epik_Ionization_Penalty_Neutral>  (379) 
2.00132e-06

>  <r_epik_State_Penalty>  (379) 
-0

>  <r_epik_Charging_Adjusted_Penalty>  (379) 
0

>  <i_epik_Tot_Q>  (379) 
0

>  <i_epik_Tot_abs_Q>  (379) 
0

>  <s_epik_Chemistry_Notes>  (379) 
This compound has an ester and may undergo hydrolysis at high or low pH.

>  <s_lp_Force_Field>  (379) 
OPLS3e

>  <r_lp_Energy>  (379) 
131.221

>  <b_lp_Chiralities_Consistent>  (379) 
1

>  <s_lp_Variant>  (379) 
106:0-2

>  <s_i_glide_gridfile>  (379) 
pfpi4k_grid

>  <i_i_glide_lignum>  (379) 
31

>  <i_i_glide_rotatable_bonds>  (379) 
8

>  <r_i_docking_score>  (379) 
-2.94093

>  <r_i_glide_ligand_efficiency>  (379) 
-0.0700221

>  <r_i_glide_ligand_efficiency_sa>  (379) 
-0.243399

>  <r_i_glide_ligand_efficiency_ln>  (379) 
-0.620754

>  <r_i_glide_gscore>  (379) 
-2.94093

>  <r_i_glide_lipo>  (379) 
-0.301022

>  <r_i_glide_hbond>  (379) 
-0.0951977

>  <r_i_glide_metal>  (379) 
-0

>  <r_i_glide_rewards>  (379) 
-0.5

>  <r_i_glide_evdw>  (379) 
-17.1119

>  <r_i_glide_ecoul>  (379) 
-8.79232

>  <r_i_glide_erotb>  (379) 
0.140982

>  <r_i_glide_esite>  (379) 
-0.0112452

>  <r_i_glide_emodel>  (379) 
-29.4623

>  <r_i_glide_energy>  (379) 
-25.9042

>  <r_i_glide_einternal>  (379) 
16.6927

>  <r_i_glide_intrahb_reward>  (379) 
-0.5

>  <i_i_glide_confnum>  (379) 
4

>  <i_i_glide_posenum>  (379) 
14

>  <r_i_glide_eff_state_penalty>  (379) 
0

>  <ligand_id>  (379) 
106

>  <original_smiles>  (379) 
CC(C)C=CC(=O)OC1(C)CC(C)C2C3C(C(O)CC21C)C1C(C)CCC(O)C1(C)C(O)C12C=CC4(OC4CC31)C2O

>  <smiles>  (379) 
[H]OC1([H])C([H])([H])C2(C([H])([H])[H])C([H])(C([H])(C([H])([H])[H])C([H])([H])C2(OC(=O)C([H])=C([H])C([H])(C([H])([H])[H])C([H])([H])[H])C([H])([H])[H])C2([H])C1([H])C1([H])C([H])(C([H])([H])[H])C([H])([H])C([H])([H])C([H])(O[H])C1(C([H])([H])[H])C([H])(O[H])C13C([H])=C([H])C4(OC4([H])C([H])([H])C21[H])C3([H])O[H]

$$$$
106:1:2
     RDKit          3D

 94100  0  0  1  0  0  0  0  0999 V2000
   -2.0787    0.0905    4.9280 C   0  0  0  0  0  0  0  0  0  0  0  0
   -0.5605    0.2357    4.8046 C   0  0  0  0  0  0  0  0  0  0  0  0
   -0.0213    1.3903    5.6550 C   0  0  0  0  0  0  0  0  0  0  0  0
   -0.1384    0.3970    3.3336 C   0  0  0  0  0  0  0  0  0  0  0  0
    0.8380   -0.2635    2.6640 C   0  0  0  0  0  0  0  0  0  0  0  0
    1.6649   -1.3230    3.2636 C   0  0  0  0  0  0  0  0  0  0  0  0
    1.2304   -2.0781    4.1289 O   0  0  0  0  0  0  0  0  0  0  0  0
    2.9109   -1.3826    2.7054 O   0  0  0  0  0  0  0  0  0  0  0  0
    3.9408   -2.3456    3.0425 C   0  0  1  0  0  0  0  0  0  0  0  0
    5.2485   -1.6402    2.5735 C   0  0  0  0  0  0  0  0  0  0  0  0
    4.1128   -2.6382    4.5526 C   0  0  0  0  0  0  0  0  0  0  0  0
    4.7839   -4.0084    4.6665 C   0  0  1  0  0  0  0  0  0  0  0  0
    4.3114   -4.7384    5.9438 C   0  0  0  0  0  0  0  0  0  0  0  0
    4.6525   -4.7019    3.2654 C   0  0  1  0  0  0  0  0  0  0  0  0
    4.3323   -6.2595    3.2275 C   0  0  1  0  0  0  0  0  0  0  0  0
    2.7781   -6.4968    3.3831 C   0  0  1  0  0  0  0  0  0  0  0  0
    2.0844   -5.7413    2.2110 C   0  0  1  0  0  0  0  0  0  0  0  0
    0.6914   -5.9369    2.1055 O   0  0  0  0  0  0  0  0  0  0  0  0
    2.2963   -4.2514    2.4726 C   0  0  0  0  0  0  0  0  0  0  0  0
    3.7603   -3.7638    2.3810 C   0  0  1  0  0  0  0  0  0  0  0  0
    4.1478   -3.7364    0.8719 C   0  0  0  0  0  0  0  0  0  0  0  0
    2.1027   -7.8869    3.7410 C   0  0  2  0  0  0  0  0  0  0  0  0
    1.0424   -7.7603    4.9202 C   0  0  1  0  0  0  0  0  0  0  0  0
    0.0580   -6.5642    4.9122 C   0  0  0  0  0  0  0  0  0  0  0  0
    0.1895   -9.0387    5.0362 C   0  0  0  0  0  0  0  0  0  0  0  0
    1.0378  -10.2853    5.2735 C   0  0  0  0  0  0  0  0  0  0  0  0
    2.1366  -10.4313    4.2087 C   0  0  1  0  0  0  0  0  0  0  0  0
    1.4585  -10.9022    3.0622 O   0  0  0  0  0  0  0  0  0  0  0  0
    3.0310   -9.1434    3.9758 C   0  0  2  0  0  0  0  0  0  0  0  0
    3.8265   -9.0121    5.3090 C   0  0  0  0  0  0  0  0  0  0  0  0
    3.9936   -9.4474    2.7468 C   0  0  1  0  0  0  0  0  0  0  0  0
    3.2586   -9.4696    1.5279 O   0  0  0  0  0  0  0  0  0  0  0  0
    5.2746   -8.5956    2.4397 C   0  0  2  0  0  0  0  0  0  0  0  0
    6.3938   -8.6944    3.5081 C   0  0  0  0  0  0  0  0  0  0  0  0
    7.6224   -8.7370    2.9818 C   0  0  0  0  0  0  0  0  0  0  0  0
    7.4106   -8.5618    1.5416 C   0  0  1  0  0  0  0  0  0  0  0  0
    8.2100   -7.8670    0.5531 O   0  0  0  0  0  0  0  0  0  0  0  0
    7.4651   -7.0404    1.4448 C   0  0  1  0  0  0  0  0  0  0  0  0
    6.1031   -6.4441    1.1543 C   0  0  0  0  0  0  0  0  0  0  0  0
    4.9554   -7.0892    2.0391 C   0  0  2  0  0  0  0  0  0  0  0  0
    6.0638   -9.1736    1.2277 C   0  0  1  0  0  0  0  0  0  0  0  0
    6.2221  -10.5891    1.2157 O   0  0  0  0  0  0  0  0  0  0  0  0
   -2.4357   -0.7976    4.4045 H   0  0  0  0  0  0  0  0  0  0  0  0
   -2.5741    0.9608    4.4994 H   0  0  0  0  0  0  0  0  0  0  0  0
   -2.3834   -0.0036    5.9711 H   0  0  0  0  0  0  0  0  0  0  0  0
   -0.1741   -0.6560    5.2958 H   0  0  0  0  0  0  0  0  0  0  0  0
    1.0692    1.4165    5.6193 H   0  0  0  0  0  0  0  0  0  0  0  0
   -0.3085    1.2747    6.7015 H   0  0  0  0  0  0  0  0  0  0  0  0
   -0.3986    2.3462    5.2956 H   0  0  0  0  0  0  0  0  0  0  0  0
   -0.6979    1.1475    2.7814 H   0  0  0  0  0  0  0  0  0  0  0  0
    1.0350   -0.0166    1.6233 H   0  0  0  0  0  0  0  0  0  0  0  0
    6.1243   -2.2865    2.6435 H   0  0  0  0  0  0  0  0  0  0  0  0
    5.4734   -0.7595    3.1752 H   0  0  0  0  0  0  0  0  0  0  0  0
    5.2004   -1.2918    1.5388 H   0  0  0  0  0  0  0  0  0  0  0  0
    4.6669   -1.8506    5.0649 H   0  0  0  0  0  0  0  0  0  0  0  0
    3.1765   -2.7227    5.0835 H   0  0  0  0  0  0  0  0  0  0  0  0
    5.8470   -3.8197    4.8195 H   0  0  0  0  0  0  0  0  0  0  0  0
    3.2278   -4.8475    6.0023 H   0  0  0  0  0  0  0  0  0  0  0  0
    4.5980   -4.1615    6.8243 H   0  0  0  0  0  0  0  0  0  0  0  0
    4.7657   -5.7196    6.0612 H   0  0  0  0  0  0  0  0  0  0  0  0
    5.6732   -4.5840    2.9237 H   0  0  0  0  0  0  0  0  0  0  0  0
    4.8442   -6.6252    4.1056 H   0  0  0  0  0  0  0  0  0  0  0  0
    2.5759   -5.9420    4.2898 H   0  0  0  0  0  0  0  0  0  0  0  0
    2.4607   -6.0337    1.2277 H   0  0  0  0  0  0  0  0  0  0  0  0
    0.5312   -6.8680    2.0284 H   0  0  0  0  0  0  0  0  0  0  0  0
    1.6982   -3.6617    1.7812 H   0  0  0  0  0  0  0  0  0  0  0  0
    1.9236   -4.0800    3.4637 H   0  0  0  0  0  0  0  0  0  0  0  0
    4.0055   -4.6995    0.3842 H   0  0  0  0  0  0  0  0  0  0  0  0
    5.1853   -3.4534    0.6991 H   0  0  0  0  0  0  0  0  0  0  0  0
    3.5310   -3.0177    0.3298 H   0  0  0  0  0  0  0  0  0  0  0  0
    1.5187   -8.1554    2.8616 H   0  0  0  0  0  0  0  0  0  0  0  0
    1.5877   -7.6358    5.8548 H   0  0  0  0  0  0  0  0  0  0  0  0
   -0.6701   -6.6400    4.1054 H   0  0  0  0  0  0  0  0  0  0  0  0
    0.5470   -5.5928    4.8476 H   0  0  0  0  0  0  0  0  0  0  0  0
   -0.5169   -6.5414    5.8395 H   0  0  0  0  0  0  0  0  0  0  0  0
   -0.5301   -8.9506    5.8519 H   0  0  0  0  0  0  0  0  0  0  0  0
   -0.3994   -9.1724    4.1270 H   0  0  0  0  0  0  0  0  0  0  0  0
    1.4634  -10.2572    6.2741 H   0  0  0  0  0  0  0  0  0  0  0  0
    0.3966  -11.1700    5.2742 H   0  0  0  0  0  0  0  0  0  0  0  0
    2.7823  -11.2522    4.5230 H   0  0  0  0  0  0  0  0  0  0  0  0
    2.0981  -11.2840    2.4793 H   0  0  0  0  0  0  0  0  0  0  0  0
    4.5263   -9.8387    5.4333 H   0  0  0  0  0  0  0  0  0  0  0  0
    3.1986   -9.0415    6.1950 H   0  0  0  0  0  0  0  0  0  0  0  0
    4.3702   -8.0830    5.4171 H   0  0  0  0  0  0  0  0  0  0  0  0
    4.3389  -10.4690    2.9096 H   0  0  0  0  0  0  0  0  0  0  0  0
    3.4217  -10.2985    1.0898 H   0  0  0  0  0  0  0  0  0  0  0  0
    6.2288   -8.7763    4.5678 H   0  0  0  0  0  0  0  0  0  0  0  0
    8.5791   -8.8368    3.4655 H   0  0  0  0  0  0  0  0  0  0  0  0
    8.1051   -6.4669    2.1213 H   0  0  0  0  0  0  0  0  0  0  0  0
    6.2063   -5.3768    1.1805 H   0  0  0  0  0  0  0  0  0  0  0  0
    5.8694   -6.6236    0.1034 H   0  0  0  0  0  0  0  0  0  0  0  0
    4.1624   -7.1609    1.3022 H   0  0  0  0  0  0  0  0  0  0  0  0
    5.6509   -8.8641    0.2713 H   0  0  0  0  0  0  0  0  0  0  0  0
    5.4068  -11.0051    0.9113 H   0  0  0  0  0  0  0  0  0  0  0  0
  1  2  1  0
  1 43  1  0
  1 44  1  0
  1 45  1  0
  2  3  1  0
  2  4  1  0
  2 46  1  0
  3 47  1  0
  3 48  1  0
  3 49  1  0
  4  5  2  3
  4 50  1  0
  5  6  1  0
  5 51  1  0
  6  7  2  0
  6  8  1  0
  9  8  1  1
  9 20  1  0
  9 10  1  0
  9 11  1  0
 10 52  1  0
 10 53  1  0
 10 54  1  0
 11 12  1  0
 11 55  1  0
 11 56  1  0
 12 13  1  0
 12 14  1  0
 12 57  1  1
 13 58  1  0
 13 59  1  0
 13 60  1  0
 14 20  1  0
 14 15  1  0
 14 61  1  6
 15 40  1  0
 15 16  1  0
 15 62  1  1
 16 17  1  0
 16 22  1  0
 16 63  1  1
 17 18  1  0
 17 19  1  0
 17 64  1  6
 18 65  1  0
 19 20  1  0
 19 66  1  0
 19 67  1  0
 20 21  1  6
 21 68  1  0
 21 69  1  0
 21 70  1  0
 22 29  1  0
 22 23  1  0
 22 71  1  6
 23 24  1  0
 23 25  1  0
 23 72  1  1
 24 73  1  0
 24 74  1  0
 24 75  1  0
 25 26  1  0
 25 76  1  0
 25 77  1  0
 26 27  1  0
 26 78  1  0
 26 79  1  0
 27 28  1  0
 27 29  1  0
 27 80  1  1
 28 81  1  0
 29 30  1  1
 29 31  1  0
 30 82  1  0
 30 83  1  0
 30 84  1  0
 31 32  1  0
 31 33  1  0
 31 85  1  1
 32 86  1  0
 33 40  1  0
 33 41  1  0
 33 34  1  1
 34 35  2  0
 34 87  1  0
 35 36  1  0
 35 88  1  0
 36 38  1  0
 36 37  1  6
 36 41  1  0
 37 38  1  0
 38 39  1  0
 38 89  1  1
 39 40  1  0
 39 90  1  0
 39 91  1  0
 40 92  1  6
 41 42  1  0
 41 93  1  6
 42 94  1  0
M  END
>  <i_m_ct_stereo_status>  (380) 
1

>  <s_m_source_file>  (380) 
/var/tmp/pbs.5076255.sched01/tmp7b2cfgi2/13234zcpj2x.sdf

>  <i_m_source_file_index>  (380) 
31

>  <i_lp_mmshare_version>  (380) 
48012

>  <i_f3d_flags>  (380) 
0

>  <s_epik_input>  (380) 
W0NIXTE9W0NIXVtDQEBdKE8yKShbQ0BIXTNbT0hdKVtDQEBIXTJbQ0gyXVtDQEBIXShbQ0BdMTM0KVtDQEhdNVtDQEhdNltDQF0oW0NIM10pKFtDQF0oW0NIM10pKFtDSDJdW0NASF02W0NIM10pT0MoPU8pXFtDSF09W0NIXVxbQ0hdKFtDSDNdKVtDSDNdKVtDSDJdW0NASF0oW09IXSlbQ0BIXTVbQ0BIXTdbQ0BdKFtDSDNdKShbQ0BIXTRbT0hdKVtDQEhdKFtPSF0pW0NIMl1bQ0gyXVtDQEBIXTdbQ0gzXQ==

>  <s_epik_cmdline>  (380) 
J2VwaWtfcHl0aG9uJywgJy1waHQnLCAnMi4wJywgJy1waCcsICc3LjAnLCAnLXRuJywgJzgnLCAnLW1hJywgJzIwMCcsICctaW1hZScsICc8aW5maWxlLm1hZT4nLCAnLW9tYWUnLCAnPG91dGZpbGUubWFlPic=

>  <r_lp_tautomer_probability>  (380) 
1

>  <r_epik_Ionization_Penalty>  (380) 
2.00132e-06

>  <r_epik_Ionization_Penalty_Charging>  (380) 
0

>  <r_epik_Ionization_Penalty_Neutral>  (380) 
2.00132e-06

>  <r_epik_State_Penalty>  (380) 
-0

>  <r_epik_Charging_Adjusted_Penalty>  (380) 
0

>  <i_epik_Tot_Q>  (380) 
0

>  <i_epik_Tot_abs_Q>  (380) 
0

>  <s_epik_Chemistry_Notes>  (380) 
This compound has an ester and may undergo hydrolysis at high or low pH.

>  <s_lp_Force_Field>  (380) 
OPLS3e

>  <r_lp_Energy>  (380) 
131.221

>  <b_lp_Chiralities_Consistent>  (380) 
1

>  <s_lp_Variant>  (380) 
106:0-2

>  <s_i_glide_gridfile>  (380) 
pfpi4k_grid

>  <i_i_glide_lignum>  (380) 
31

>  <i_i_glide_rotatable_bonds>  (380) 
8

>  <r_i_docking_score>  (380) 
-2.90261

>  <r_i_glide_ligand_efficiency>  (380) 
-0.0691098

>  <r_i_glide_ligand_efficiency_sa>  (380) 
-0.240228

>  <r_i_glide_ligand_efficiency_ln>  (380) 
-0.612667

>  <r_i_glide_gscore>  (380) 
-2.90261

>  <r_i_glide_lipo>  (380) 
-0.377932

>  <r_i_glide_hbond>  (380) 
-0.142977

>  <r_i_glide_metal>  (380) 
-0

>  <r_i_glide_rewards>  (380) 
0

>  <r_i_glide_evdw>  (380) 
-26.5369

>  <r_i_glide_ecoul>  (380) 
-7.9241

>  <r_i_glide_erotb>  (380) 
0.140982

>  <r_i_glide_esite>  (380) 
-0.00722576

>  <r_i_glide_emodel>  (380) 
-33.1007

>  <r_i_glide_energy>  (380) 
-34.461

>  <r_i_glide_einternal>  (380) 
16.5182

>  <r_i_glide_intrahb_reward>  (380) 
-0

>  <i_i_glide_confnum>  (380) 
4

>  <i_i_glide_posenum>  (380) 
1

>  <r_i_glide_eff_state_penalty>  (380) 
0

>  <ligand_id>  (380) 
106

>  <original_smiles>  (380) 
CC(C)C=CC(=O)OC1(C)CC(C)C2C3C(C(O)CC21C)C1C(C)CCC(O)C1(C)C(O)C12C=CC4(OC4CC31)C2O

>  <smiles>  (380) 
[H]OC1([H])C([H])([H])C2(C([H])([H])[H])C([H])(C([H])(C([H])([H])[H])C([H])([H])C2(OC(=O)C([H])=C([H])C([H])(C([H])([H])[H])C([H])([H])[H])C([H])([H])[H])C2([H])C1([H])C1([H])C([H])(C([H])([H])[H])C([H])([H])C([H])([H])C([H])(O[H])C1(C([H])([H])[H])C([H])(O[H])C13C([H])=C([H])C4(OC4([H])C([H])([H])C21[H])C3([H])O[H]

$$$$
110:0:0
     RDKit          3D

 45 49  0  0  1  0  0  0  0  0999 V2000
    1.8031   -5.4000    0.1179 O   0  0  0  0  0  0  0  0  0  0  0  0
    2.8230   -5.1844    0.7815 C   0  0  0  0  0  0  0  0  0  0  0  0
    4.1928   -4.9966    0.1425 C   0  0  2  0  0  0  0  0  0  0  0  0
    5.1444   -4.9832    1.3773 C   0  0  2  0  0  0  0  0  0  0  0  0
    4.1754   -4.9799    2.5540 C   0  0  0  0  0  0  0  0  0  0  0  0
    4.5513   -4.8912    3.7285 O   0  0  0  0  0  0  0  0  0  0  0  0
    2.9073   -5.1079    2.1235 N   0  0  0  0  0  0  0  0  0  0  0  0
    1.7453   -5.2078    3.0122 C   0  0  0  0  0  0  0  0  0  0  0  0
    1.1272   -6.6036    3.0996 C   0  0  0  0  0  0  0  0  0  0  0  0
    1.6724   -7.7132    2.4103 C   0  0  0  0  0  0  0  0  0  0  0  0
    1.0708   -8.9780    2.4942 C   0  0  0  0  0  0  0  0  0  0  0  0
   -0.0726   -9.1600    3.2924 C   0  0  0  0  0  0  0  0  0  0  0  0
   -0.6182   -8.0694    3.9941 C   0  0  0  0  0  0  0  0  0  0  0  0
   -0.0213   -6.7952    3.8944 C   0  0  0  0  0  0  0  0  0  0  0  0
    6.1297   -3.7732    1.2967 C   0  0  1  0  0  0  0  0  0  0  0  0
    6.7213   -3.8260   -0.1101 C   0  0  0  0  0  0  0  0  0  0  0  0
    5.8216   -3.7141   -1.1108 C   0  0  0  0  0  0  0  0  0  0  0  0
    4.3634   -3.6618   -0.6664 C   0  0  2  0  0  0  0  0  0  0  0  0
    4.1789   -2.4736    0.3443 C   0  0  2  0  0  0  0  0  0  0  0  0
    3.8767   -1.0583   -0.1317 C   0  0  0  0  0  0  0  0  0  0  0  0
    3.5504   -0.2413    1.1456 C   0  0  0  0  0  0  0  0  0  0  0  0
    4.5641   -0.4600    2.3085 C   0  0  0  0  0  0  0  0  0  0  0  0
    4.9278   -1.8383    2.5147 O   0  0  0  0  0  0  0  0  0  0  0  0
    5.3934   -2.4016    1.2979 C   0  0  1  0  0  0  0  0  0  0  0  0
    4.3949   -5.8594   -0.4950 H   0  0  0  0  0  0  0  0  0  0  0  0
    5.7097   -5.9152    1.4143 H   0  0  0  0  0  0  0  0  0  0  0  0
    0.9913   -4.4891    2.6818 H   0  0  0  0  0  0  0  0  0  0  0  0
    2.0023   -4.8874    4.0254 H   0  0  0  0  0  0  0  0  0  0  0  0
    2.5551   -7.6356    1.8004 H   0  0  0  0  0  0  0  0  0  0  0  0
    1.4988   -9.8072    1.9480 H   0  0  0  0  0  0  0  0  0  0  0  0
   -0.5222  -10.1417    3.3739 H   0  0  0  0  0  0  0  0  0  0  0  0
   -1.4901   -8.2186    4.6133 H   0  0  0  0  0  0  0  0  0  0  0  0
   -0.4425   -5.9679    4.4404 H   0  0  0  0  0  0  0  0  0  0  0  0
    6.9137   -3.8317    2.0556 H   0  0  0  0  0  0  0  0  0  0  0  0
    7.7889   -3.9275   -0.2516 H   0  0  0  0  0  0  0  0  0  0  0  0
    6.0707   -3.7440   -2.1619 H   0  0  0  0  0  0  0  0  0  0  0  0
    3.6772   -3.6174   -1.5163 H   0  0  0  0  0  0  0  0  0  0  0  0
    3.2960   -2.6959    0.9460 H   0  0  0  0  0  0  0  0  0  0  0  0
    4.7255   -0.6313   -0.6675 H   0  0  0  0  0  0  0  0  0  0  0  0
    3.0225   -1.0587   -0.8112 H   0  0  0  0  0  0  0  0  0  0  0  0
    3.4882    0.8197    0.9019 H   0  0  0  0  0  0  0  0  0  0  0  0
    2.5571   -0.5285    1.4943 H   0  0  0  0  0  0  0  0  0  0  0  0
    5.4690    0.1267    2.1268 H   0  0  0  0  0  0  0  0  0  0  0  0
    4.1370   -0.0779    3.2360 H   0  0  0  0  0  0  0  0  0  0  0  0
    6.1269   -1.6946    0.9058 H   0  0  0  0  0  0  0  0  0  0  0  0
  1  2  2  0
  2  3  1  0
  2  7  1  0
  3 18  1  0
  3 25  1  6
  3  4  1  0
  4 15  1  0
  4 26  1  1
  4  5  1  0
  5  6  2  0
  5  7  1  0
  7  8  1  0
  8  9  1  0
  8 27  1  0
  8 28  1  0
  9 14  1  0
  9 10  2  0
 10 11  1  0
 10 29  1  0
 11 12  2  0
 11 30  1  0
 12 13  1  0
 12 31  1  0
 13 14  2  0
 13 32  1  0
 14 33  1  0
 15 24  1  0
 15 16  1  0
 15 34  1  1
 16 17  2  0
 16 35  1  0
 17 18  1  0
 17 36  1  0
 18 19  1  0
 18 37  1  6
 19 24  1  0
 19 20  1  0
 19 38  1  1
 20 21  1  0
 20 39  1  0
 20 40  1  0
 21 22  1  0
 21 41  1  0
 21 42  1  0
 22 23  1  0
 22 43  1  0
 22 44  1  0
 23 24  1  0
 24 45  1  6
M  END
>  <i_m_ct_stereo_status>  (381) 
1

>  <s_m_source_file>  (381) 
/var/tmp/pbs.5076255.sched01/tmp7b2cfgi2/13234zcpj2x.sdf

>  <i_m_source_file_index>  (381) 
35

>  <i_lp_mmshare_version>  (381) 
48012

>  <i_f3d_flags>  (381) 
0

>  <s_epik_input>  (381) 
W2NIXTFbY0hdW2NIXVtjSF1bY0hdYzFbQ0gyXW4oYzJbT0hdKWMoW09IXSljKGMyMylbQ0BASF00W0NASF01W0NASF0oW0NASF0zW0NIXT1bQ0hdNClbQ0gyXVtDSDJdW0NIMl1PNQ==

>  <s_epik_cmdline>  (381) 
J2VwaWtfcHl0aG9uJywgJy1waHQnLCAnMi4wJywgJy1waCcsICc3LjAnLCAnLXRuJywgJzgnLCAnLW1hJywgJzIwMCcsICctaW1hZScsICc8aW5maWxlLm1hZT4nLCAnLW9tYWUnLCAnPG91dGZpbGUubWFlPic=

>  <r_lp_tautomer_probability>  (381) 
1

>  <r_epik_Ionization_Penalty>  (381) 
7.33291e-11

>  <r_epik_Ionization_Penalty_Charging>  (381) 
0

>  <r_epik_Ionization_Penalty_Neutral>  (381) 
7.33291e-11

>  <r_epik_State_Penalty>  (381) 
-0

>  <r_epik_Charging_Adjusted_Penalty>  (381) 
0

>  <i_epik_Tot_Q>  (381) 
0

>  <i_epik_Tot_abs_Q>  (381) 
0

>  <s_lp_Force_Field>  (381) 
OPLS3e

>  <r_lp_Energy>  (381) 
53.5739

>  <b_lp_Chiralities_Consistent>  (381) 
1

>  <s_lp_Variant>  (381) 
110:0-1

>  <s_i_glide_gridfile>  (381) 
pfpi4k_grid

>  <i_i_glide_lignum>  (381) 
35

>  <i_i_glide_rotatable_bonds>  (381) 
2

>  <r_i_docking_score>  (381) 
-3.07804

>  <r_i_glide_ligand_efficiency>  (381) 
-0.128252

>  <r_i_glide_ligand_efficiency_sa>  (381) 
-0.369942

>  <r_i_glide_ligand_efficiency_ln>  (381) 
-0.736716

>  <r_i_glide_gscore>  (381) 
-3.07804

>  <r_i_glide_lipo>  (381) 
-0.476518

>  <r_i_glide_hbond>  (381) 
-0.0832953

>  <r_i_glide_metal>  (381) 
-0

>  <r_i_glide_rewards>  (381) 
-1.20496

>  <r_i_glide_evdw>  (381) 
-23.788

>  <r_i_glide_ecoul>  (381) 
-3.00381

>  <r_i_glide_erotb>  (381) 
0.357881

>  <r_i_glide_esite>  (381) 
-0.0311726

>  <r_i_glide_emodel>  (381) 
-31.0487

>  <r_i_glide_energy>  (381) 
-26.7919

>  <r_i_glide_einternal>  (381) 
1.50798

>  <r_i_glide_intrahb_reward>  (381) 
-0

>  <i_i_glide_confnum>  (381) 
3

>  <i_i_glide_posenum>  (381) 
1

>  <r_i_glide_eff_state_penalty>  (381) 
0

>  <ligand_id>  (381) 
110

>  <original_smiles>  (381) 
Oc1c2c(c(O)n1Cc1ccccc1)C1C=CC2C2CCCOC12

>  <smiles>  (381) 
[H]C1=C([H])C2([H])C3([H])C(=O)N(C([H])([H])c4c([H])c([H])c([H])c([H])c4[H])C(=O)C3([H])C1([H])C1([H])OC([H])([H])C([H])([H])C([H])([H])C12[H]

$$$$
110:0:1
     RDKit          3D

 45 49  0  0  1  0  0  0  0  0999 V2000
    1.3974   -5.8551    0.5122 O   0  0  0  0  0  0  0  0  0  0  0  0
    2.4795   -5.7795    1.1012 C   0  0  0  0  0  0  0  0  0  0  0  0
    3.7891   -5.4353    0.3935 C   0  0  2  0  0  0  0  0  0  0  0  0
    4.8481   -5.6743    1.5080 C   0  0  2  0  0  0  0  0  0  0  0  0
    3.9835   -5.9213    2.7438 C   0  0  0  0  0  0  0  0  0  0  0  0
    4.4522   -6.0510    3.8739 O   0  0  0  0  0  0  0  0  0  0  0  0
    2.6815   -5.9753    2.4121 N   0  0  0  0  0  0  0  0  0  0  0  0
    1.6080   -6.1995    3.3837 C   0  0  0  0  0  0  0  0  0  0  0  0
    1.3405   -7.6720    3.6478 C   0  0  0  0  0  0  0  0  0  0  0  0
    0.8144   -8.4991    2.6314 C   0  0  0  0  0  0  0  0  0  0  0  0
    0.5849   -9.8656    2.8791 C   0  0  0  0  0  0  0  0  0  0  0  0
    0.8811  -10.4134    4.1416 C   0  0  0  0  0  0  0  0  0  0  0  0
    1.4023   -9.5918    5.1600 C   0  0  0  0  0  0  0  0  0  0  0  0
    1.6318   -8.2242    4.9118 C   0  0  0  0  0  0  0  0  0  0  0  0
    5.8467   -4.4739    1.5874 C   0  0  1  0  0  0  0  0  0  0  0  0
    6.3088   -4.2383    0.1487 C   0  0  0  0  0  0  0  0  0  0  0  0
    5.3261   -3.9245   -0.7194 C   0  0  0  0  0  0  0  0  0  0  0  0
    3.9154   -3.9605   -0.1349 C   0  0  2  0  0  0  0  0  0  0  0  0
    3.8495   -3.0032    1.1105 C   0  0  2  0  0  0  0  0  0  0  0  0
    3.5346   -1.5146    0.9694 C   0  0  0  0  0  0  0  0  0  0  0  0
    3.3548   -0.9696    2.4081 C   0  0  0  0  0  0  0  0  0  0  0  0
    4.4673   -1.4278    3.3990 C   0  0  0  0  0  0  0  0  0  0  0  0
    4.8130   -2.8193    3.2818 O   0  0  0  0  0  0  0  0  0  0  0  0
    5.1467   -3.1289    1.9373 C   0  0  1  0  0  0  0  0  0  0  0  0
    3.9329   -6.1488   -0.4168 H   0  0  0  0  0  0  0  0  0  0  0  0
    5.3996   -6.5926    1.2980 H   0  0  0  0  0  0  0  0  0  0  0  0
    0.6813   -5.7325    3.0434 H   0  0  0  0  0  0  0  0  0  0  0  0
    1.8547   -5.6929    4.3200 H   0  0  0  0  0  0  0  0  0  0  0  0
    0.5883   -8.0966    1.6549 H   0  0  0  0  0  0  0  0  0  0  0  0
    0.1841  -10.4915    2.0933 H   0  0  0  0  0  0  0  0  0  0  0  0
    0.7039  -11.4617    4.3342 H   0  0  0  0  0  0  0  0  0  0  0  0
    1.6276  -10.0146    6.1291 H   0  0  0  0  0  0  0  0  0  0  0  0
    2.0433   -7.6010    5.6928 H   0  0  0  0  0  0  0  0  0  0  0  0
    6.6968   -4.6813    2.2362 H   0  0  0  0  0  0  0  0  0  0  0  0
    7.3556   -4.3006   -0.1118 H   0  0  0  0  0  0  0  0  0  0  0  0
    5.4762   -3.7300   -1.7722 H   0  0  0  0  0  0  0  0  0  0  0  0
    3.1570   -3.7308   -0.8832 H   0  0  0  0  0  0  0  0  0  0  0  0
    3.0280   -3.3531    1.7323 H   0  0  0  0  0  0  0  0  0  0  0  0
    4.3331   -0.9847    0.4502 H   0  0  0  0  0  0  0  0  0  0  0  0
    2.6180   -1.3665    0.3980 H   0  0  0  0  0  0  0  0  0  0  0  0
    3.2915    0.1192    2.3944 H   0  0  0  0  0  0  0  0  0  0  0  0
    2.3944   -1.3164    2.7887 H   0  0  0  0  0  0  0  0  0  0  0  0
    5.3609   -0.8173    3.2599 H   0  0  0  0  0  0  0  0  0  0  0  0
    4.1337   -1.2478    4.4207 H   0  0  0  0  0  0  0  0  0  0  0  0
    5.8589   -2.3575    1.6310 H   0  0  0  0  0  0  0  0  0  0  0  0
  1  2  2  0
  2  3  1  0
  2  7  1  0
  3 18  1  0
  3 25  1  6
  3  4  1  0
  4 15  1  0
  4 26  1  6
  4  5  1  0
  5  6  2  0
  5  7  1  0
  7  8  1  0
  8  9  1  0
  8 27  1  0
  8 28  1  0
  9 14  1  0
  9 10  2  0
 10 11  1  0
 10 29  1  0
 11 12  2  0
 11 30  1  0
 12 13  1  0
 12 31  1  0
 13 14  2  0
 13 32  1  0
 14 33  1  0
 15 24  1  0
 15 16  1  0
 15 34  1  1
 16 17  2  0
 16 35  1  0
 17 18  1  0
 17 36  1  0
 18 19  1  0
 18 37  1  6
 19 24  1  0
 19 20  1  0
 19 38  1  1
 20 21  1  0
 20 39  1  0
 20 40  1  0
 21 22  1  0
 21 41  1  0
 21 42  1  0
 22 23  1  0
 22 43  1  0
 22 44  1  0
 23 24  1  0
 24 45  1  6
M  END
>  <i_m_ct_stereo_status>  (382) 
1

>  <s_m_source_file>  (382) 
/var/tmp/pbs.5076255.sched01/tmp7b2cfgi2/13234zcpj2x.sdf

>  <i_m_source_file_index>  (382) 
35

>  <i_lp_mmshare_version>  (382) 
48012

>  <i_f3d_flags>  (382) 
0

>  <s_epik_input>  (382) 
W2NIXTFbY0hdW2NIXVtjSF1bY0hdYzFbQ0gyXW4oYzJbT0hdKWMoW09IXSljKGMyMylbQ0BASF00W0NASF01W0NASF0oW0NASF0zW0NIXT1bQ0hdNClbQ0gyXVtDSDJdW0NIMl1PNQ==

>  <s_epik_cmdline>  (382) 
J2VwaWtfcHl0aG9uJywgJy1waHQnLCAnMi4wJywgJy1waCcsICc3LjAnLCAnLXRuJywgJzgnLCAnLW1hJywgJzIwMCcsICctaW1hZScsICc8aW5maWxlLm1hZT4nLCAnLW9tYWUnLCAnPG91dGZpbGUubWFlPic=

>  <r_lp_tautomer_probability>  (382) 
1

>  <r_epik_Ionization_Penalty>  (382) 
7.33291e-11

>  <r_epik_Ionization_Penalty_Charging>  (382) 
0

>  <r_epik_Ionization_Penalty_Neutral>  (382) 
7.33291e-11

>  <r_epik_State_Penalty>  (382) 
-0

>  <r_epik_Charging_Adjusted_Penalty>  (382) 
0

>  <i_epik_Tot_Q>  (382) 
0

>  <i_epik_Tot_abs_Q>  (382) 
0

>  <s_lp_Force_Field>  (382) 
OPLS3e

>  <r_lp_Energy>  (382) 
53.5739

>  <b_lp_Chiralities_Consistent>  (382) 
1

>  <s_lp_Variant>  (382) 
110:0-1

>  <s_i_glide_gridfile>  (382) 
pfpi4k_grid

>  <i_i_glide_lignum>  (382) 
35

>  <i_i_glide_rotatable_bonds>  (382) 
2

>  <r_i_docking_score>  (382) 
-3.06493

>  <r_i_glide_ligand_efficiency>  (382) 
-0.127705

>  <r_i_glide_ligand_efficiency_sa>  (382) 
-0.368366

>  <r_i_glide_ligand_efficiency_ln>  (382) 
-0.733579

>  <r_i_glide_gscore>  (382) 
-3.06493

>  <r_i_glide_lipo>  (382) 
-0.362656

>  <r_i_glide_hbond>  (382) 
-0.157054

>  <r_i_glide_metal>  (382) 
-0

>  <r_i_glide_rewards>  (382) 
-1.20419

>  <r_i_glide_evdw>  (382) 
-21.2965

>  <r_i_glide_ecoul>  (382) 
-4.02002

>  <r_i_glide_erotb>  (382) 
0.357881

>  <r_i_glide_esite>  (382) 
-0.0310858

>  <r_i_glide_emodel>  (382) 
-30.5143

>  <r_i_glide_energy>  (382) 
-25.3165

>  <r_i_glide_einternal>  (382) 
0.183483

>  <r_i_glide_intrahb_reward>  (382) 
-0

>  <i_i_glide_confnum>  (382) 
4

>  <i_i_glide_posenum>  (382) 
40

>  <r_i_glide_eff_state_penalty>  (382) 
0

>  <ligand_id>  (382) 
110

>  <original_smiles>  (382) 
Oc1c2c(c(O)n1Cc1ccccc1)C1C=CC2C2CCCOC12

>  <smiles>  (382) 
[H]C1=C([H])C2([H])C3([H])C(=O)N(C([H])([H])c4c([H])c([H])c([H])c([H])c4[H])C(=O)C3([H])C1([H])C1([H])OC([H])([H])C([H])([H])C([H])([H])C12[H]

$$$$
110:0:2
     RDKit          3D

 45 49  0  0  1  0  0  0  0  0999 V2000
    1.7557   -5.4451    0.1194 O   0  0  0  0  0  0  0  0  0  0  0  0
    2.7690   -5.2464    0.7929 C   0  0  0  0  0  0  0  0  0  0  0  0
    4.1396   -5.0518    0.1546 C   0  0  2  0  0  0  0  0  0  0  0  0
    5.0860   -5.0402    1.3893 C   0  0  2  0  0  0  0  0  0  0  0  0
    4.1096   -5.0281    2.5653 C   0  0  0  0  0  0  0  0  0  0  0  0
    4.4750   -4.9142    3.7352 O   0  0  0  0  0  0  0  0  0  0  0  0
    2.8428   -5.1636    2.1343 N   0  0  0  0  0  0  0  0  0  0  0  0
    1.6819   -5.1858    3.0306 C   0  0  0  0  0  0  0  0  0  0  0  0
    1.1145   -6.5768    3.2618 C   0  0  0  0  0  0  0  0  0  0  0  0
    1.3949   -7.2619    4.4615 C   0  0  0  0  0  0  0  0  0  0  0  0
    0.8698   -8.5523    4.6806 C   0  0  0  0  0  0  0  0  0  0  0  0
    0.0705   -9.1644    3.6923 C   0  0  0  0  0  0  0  0  0  0  0  0
   -0.2041   -8.4897    2.4891 C   0  0  0  0  0  0  0  0  0  0  0  0
    0.3103   -7.1975    2.2802 C   0  0  0  0  0  0  0  0  0  0  0  0
    6.0817   -3.8370    1.3042 C   0  0  1  0  0  0  0  0  0  0  0  0
    6.6749   -3.8989   -0.1017 C   0  0  0  0  0  0  0  0  0  0  0  0
    5.7784   -3.7871   -1.1026 C   0  0  0  0  0  0  0  0  0  0  0  0
    4.3223   -3.7183   -0.6572 C   0  0  2  0  0  0  0  0  0  0  0  0
    4.1512   -2.5214    0.3443 C   0  0  2  0  0  0  0  0  0  0  0  0
    3.8724   -1.1009   -0.1449 C   0  0  0  0  0  0  0  0  0  0  0  0
    3.5662   -0.2651    1.1255 C   0  0  0  0  0  0  0  0  0  0  0  0
    4.5757   -0.4911    2.2891 C   0  0  0  0  0  0  0  0  0  0  0  0
    4.9162   -1.8723    2.5067 O   0  0  0  0  0  0  0  0  0  0  0  0
    5.3659   -2.4571    1.2956 C   0  0  1  0  0  0  0  0  0  0  0  0
    4.3374   -5.9187   -0.4791 H   0  0  0  0  0  0  0  0  0  0  0  0
    5.6428   -5.9783    1.4310 H   0  0  0  0  0  0  0  0  0  0  0  0
    0.9015   -4.5461    2.6234 H   0  0  0  0  0  0  0  0  0  0  0  0
    1.9268   -4.7362    3.9957 H   0  0  0  0  0  0  0  0  0  0  0  0
    2.0160   -6.8022    5.2156 H   0  0  0  0  0  0  0  0  0  0  0  0
    1.0824   -9.0766    5.6011 H   0  0  0  0  0  0  0  0  0  0  0  0
   -0.3303  -10.1545    3.8578 H   0  0  0  0  0  0  0  0  0  0  0  0
   -0.8019   -8.9595    1.7206 H   0  0  0  0  0  0  0  0  0  0  0  0
    0.0859   -6.7081    1.3496 H   0  0  0  0  0  0  0  0  0  0  0  0
    6.8667   -3.8991    2.0584 H   0  0  0  0  0  0  0  0  0  0  0  0
    7.7380   -4.0197   -0.2457 H   0  0  0  0  0  0  0  0  0  0  0  0
    6.0222   -3.8335   -2.1547 H   0  0  0  0  0  0  0  0  0  0  0  0
    3.6347   -3.6674   -1.5037 H   0  0  0  0  0  0  0  0  0  0  0  0
    3.2690   -2.7354    0.9458 H   0  0  0  0  0  0  0  0  0  0  0  0
    4.7285   -0.6878   -0.6828 H   0  0  0  0  0  0  0  0  0  0  0  0
    3.0212   -1.0861   -0.8243 H   0  0  0  0  0  0  0  0  0  0  0  0
    3.5189    0.7955    0.8799 H   0  0  0  0  0  0  0  0  0  0  0  0
    2.5685   -0.5311    1.4765 H   0  0  0  0  0  0  0  0  0  0  0  0
    5.4880    0.0803    2.1043 H   0  0  0  0  0  0  0  0  0  0  0  0
    4.1553   -0.0970    3.2138 H   0  0  0  0  0  0  0  0  0  0  0  0
    6.1102   -1.7645    0.8963 H   0  0  0  0  0  0  0  0  0  0  0  0
  1  2  2  0
  2  3  1  0
  2  7  1  0
  3 18  1  0
  3 25  1  6
  3  4  1  0
  4 15  1  0
  4 26  1  1
  4  5  1  0
  5  6  2  0
  5  7  1  0
  7  8  1  0
  8  9  1  0
  8 27  1  0
  8 28  1  0
  9 14  1  0
  9 10  2  0
 10 11  1  0
 10 29  1  0
 11 12  2  0
 11 30  1  0
 12 13  1  0
 12 31  1  0
 13 14  2  0
 13 32  1  0
 14 33  1  0
 15 24  1  0
 15 16  1  0
 15 34  1  1
 16 17  2  0
 16 35  1  0
 17 18  1  0
 17 36  1  0
 18 19  1  0
 18 37  1  6
 19 24  1  0
 19 20  1  0
 19 38  1  1
 20 21  1  0
 20 39  1  0
 20 40  1  0
 21 22  1  0
 21 41  1  0
 21 42  1  0
 22 23  1  0
 22 43  1  0
 22 44  1  0
 23 24  1  0
 24 45  1  6
M  END
>  <i_m_ct_stereo_status>  (383) 
1

>  <s_m_source_file>  (383) 
/var/tmp/pbs.5076255.sched01/tmp7b2cfgi2/13234zcpj2x.sdf

>  <i_m_source_file_index>  (383) 
35

>  <i_lp_mmshare_version>  (383) 
48012

>  <i_f3d_flags>  (383) 
0

>  <s_epik_input>  (383) 
W2NIXTFbY0hdW2NIXVtjSF1bY0hdYzFbQ0gyXW4oYzJbT0hdKWMoW09IXSljKGMyMylbQ0BASF00W0NASF01W0NASF0oW0NASF0zW0NIXT1bQ0hdNClbQ0gyXVtDSDJdW0NIMl1PNQ==

>  <s_epik_cmdline>  (383) 
J2VwaWtfcHl0aG9uJywgJy1waHQnLCAnMi4wJywgJy1waCcsICc3LjAnLCAnLXRuJywgJzgnLCAnLW1hJywgJzIwMCcsICctaW1hZScsICc8aW5maWxlLm1hZT4nLCAnLW9tYWUnLCAnPG91dGZpbGUubWFlPic=

>  <r_lp_tautomer_probability>  (383) 
1

>  <r_epik_Ionization_Penalty>  (383) 
7.33291e-11

>  <r_epik_Ionization_Penalty_Charging>  (383) 
0

>  <r_epik_Ionization_Penalty_Neutral>  (383) 
7.33291e-11

>  <r_epik_State_Penalty>  (383) 
-0

>  <r_epik_Charging_Adjusted_Penalty>  (383) 
0

>  <i_epik_Tot_Q>  (383) 
0

>  <i_epik_Tot_abs_Q>  (383) 
0

>  <s_lp_Force_Field>  (383) 
OPLS3e

>  <r_lp_Energy>  (383) 
53.5739

>  <b_lp_Chiralities_Consistent>  (383) 
1

>  <s_lp_Variant>  (383) 
110:0-1

>  <s_i_glide_gridfile>  (383) 
pfpi4k_grid

>  <i_i_glide_lignum>  (383) 
35

>  <i_i_glide_rotatable_bonds>  (383) 
2

>  <r_i_docking_score>  (383) 
-3.00855

>  <r_i_glide_ligand_efficiency>  (383) 
-0.125356

>  <r_i_glide_ligand_efficiency_sa>  (383) 
-0.36159

>  <r_i_glide_ligand_efficiency_ln>  (383) 
-0.720083

>  <r_i_glide_gscore>  (383) 
-3.00855

>  <r_i_glide_lipo>  (383) 
-0.435952

>  <r_i_glide_hbond>  (383) 
-0.0938819

>  <r_i_glide_metal>  (383) 
-0

>  <r_i_glide_rewards>  (383) 
-1.20419

>  <r_i_glide_evdw>  (383) 
-22.3975

>  <r_i_glide_ecoul>  (383) 
-3.1834

>  <r_i_glide_erotb>  (383) 
0.357881

>  <r_i_glide_esite>  (383) 
-0.035021

>  <r_i_glide_emodel>  (383) 
-30.4877

>  <r_i_glide_energy>  (383) 
-25.5809

>  <r_i_glide_einternal>  (383) 
0.340094

>  <r_i_glide_intrahb_reward>  (383) 
-0

>  <i_i_glide_confnum>  (383) 
3

>  <i_i_glide_posenum>  (383) 
19

>  <r_i_glide_eff_state_penalty>  (383) 
0

>  <ligand_id>  (383) 
110

>  <original_smiles>  (383) 
Oc1c2c(c(O)n1Cc1ccccc1)C1C=CC2C2CCCOC12

>  <smiles>  (383) 
[H]C1=C([H])C2([H])C3([H])C(=O)N(C([H])([H])c4c([H])c([H])c([H])c([H])c4[H])C(=O)C3([H])C1([H])C1([H])OC([H])([H])C([H])([H])C([H])([H])C12[H]

$$$$
110:1:0
     RDKit          3D

 45 49  0  0  1  0  0  0  0  0999 V2000
    3.6038   -4.3841    0.9032 O   0  0  0  0  0  0  0  0  0  0  0  0
    4.4691   -3.5261    1.0961 C   0  0  0  0  0  0  0  0  0  0  0  0
    4.6309   -2.8002    2.4339 C   0  0  1  0  0  0  0  0  0  0  0  0
    5.7129   -1.7234    2.1149 C   0  0  1  0  0  0  0  0  0  0  0  0
    6.1381   -2.0935    0.6985 C   0  0  0  0  0  0  0  0  0  0  0  0
    7.0482   -1.5074    0.1044 O   0  0  0  0  0  0  0  0  0  0  0  0
    5.3843   -3.0933    0.2107 N   0  0  0  0  0  0  0  0  0  0  0  0
    5.4799   -3.5916   -1.1689 C   0  0  0  0  0  0  0  0  0  0  0  0
    4.7449   -2.7346   -2.2029 C   0  0  0  0  0  0  0  0  0  0  0  0
    4.6281   -1.3309   -2.0671 C   0  0  0  0  0  0  0  0  0  0  0  0
    3.9498   -0.5664   -3.0294 C   0  0  0  0  0  0  0  0  0  0  0  0
    3.3638   -1.1931   -4.1363 C   0  0  0  0  0  0  0  0  0  0  0  0
    3.4620   -2.5875   -4.2709 C   0  0  0  0  0  0  0  0  0  0  0  0
    4.1669   -3.3566   -3.3263 C   0  0  0  0  0  0  0  0  0  0  0  0
    5.1062   -0.2843    2.2607 C   0  0  1  0  0  0  0  0  0  0  0  0
    3.7692   -0.2270    1.5209 C   0  0  0  0  0  0  0  0  0  0  0  0
    2.8534   -1.1181    1.9380 C   0  0  0  0  0  0  0  0  0  0  0  0
    3.3452   -2.0997    3.0062 C   0  0  2  0  0  0  0  0  0  0  0  0
    3.9190   -1.3102    4.2308 C   0  0  2  0  0  0  0  0  0  0  0  0
    3.0333   -0.8860    5.3989 C   0  0  0  0  0  0  0  0  0  0  0  0
    3.9826   -0.3267    6.4877 C   0  0  0  0  0  0  0  0  0  0  0  0
    5.0550    0.6606    5.9401 C   0  0  0  0  0  0  0  0  0  0  0  0
    5.6790    0.2203    4.7184 O   0  0  0  0  0  0  0  0  0  0  0  0
    4.6866   -0.0571    3.7407 C   0  0  1  0  0  0  0  0  0  0  0  0
    5.0201   -3.5264    3.1508 H   0  0  0  0  0  0  0  0  0  0  0  0
    6.5805   -1.8091    2.7608 H   0  0  0  0  0  0  0  0  0  0  0  0
    5.1042   -4.6196   -1.2241 H   0  0  0  0  0  0  0  0  0  0  0  0
    6.5283   -3.6701   -1.4672 H   0  0  0  0  0  0  0  0  0  0  0  0
    5.0367   -0.7789   -1.2417 H   0  0  0  0  0  0  0  0  0  0  0  0
    3.8770    0.5059   -2.8941 H   0  0  0  0  0  0  0  0  0  0  0  0
    2.8226   -0.5985   -4.8640 H   0  0  0  0  0  0  0  0  0  0  0  0
    3.0036   -3.0698   -5.1129 H   0  0  0  0  0  0  0  0  0  0  0  0
    4.2354   -4.4251   -3.4665 H   0  0  0  0  0  0  0  0  0  0  0  0
    5.7830    0.4807    1.8861 H   0  0  0  0  0  0  0  0  0  0  0  0
    3.5843    0.5331    0.7760 H   0  0  0  0  0  0  0  0  0  0  0  0
    1.8483   -1.1865    1.5414 H   0  0  0  0  0  0  0  0  0  0  0  0
    2.5747   -2.8211    3.2855 H   0  0  0  0  0  0  0  0  0  0  0  0
    4.6491   -1.9820    4.6929 H   0  0  0  0  0  0  0  0  0  0  0  0
    2.3121   -0.1294    5.0865 H   0  0  0  0  0  0  0  0  0  0  0  0
    2.4706   -1.7355    5.7876 H   0  0  0  0  0  0  0  0  0  0  0  0
    3.4022    0.1539    7.2761 H   0  0  0  0  0  0  0  0  0  0  0  0
    4.4958   -1.1640    6.9605 H   0  0  0  0  0  0  0  0  0  0  0  0
    4.6080    1.6454    5.7845 H   0  0  0  0  0  0  0  0  0  0  0  0
    5.8312    0.7981    6.6922 H   0  0  0  0  0  0  0  0  0  0  0  0
    4.0229    0.8080    3.7286 H   0  0  0  0  0  0  0  0  0  0  0  0
  1  2  2  0
  2  3  1  0
  2  7  1  0
  3 18  1  0
  3 25  1  1
  3  4  1  0
  4 15  1  0
  4 26  1  1
  4  5  1  0
  5  6  2  0
  5  7  1  0
  7  8  1  0
  8  9  1  0
  8 27  1  0
  8 28  1  0
  9 14  1  0
  9 10  2  0
 10 11  1  0
 10 29  1  0
 11 12  2  0
 11 30  1  0
 12 13  1  0
 12 31  1  0
 13 14  2  0
 13 32  1  0
 14 33  1  0
 15 24  1  0
 15 16  1  0
 15 34  1  6
 16 17  2  0
 16 35  1  0
 17 18  1  0
 17 36  1  0
 18 19  1  0
 18 37  1  1
 19 24  1  0
 19 20  1  0
 19 38  1  1
 20 21  1  0
 20 39  1  0
 20 40  1  0
 21 22  1  0
 21 41  1  0
 21 42  1  0
 22 23  1  0
 22 43  1  0
 22 44  1  0
 23 24  1  0
 24 45  1  6
M  END
>  <i_m_ct_stereo_status>  (384) 
1

>  <s_m_source_file>  (384) 
/var/tmp/pbs.5076255.sched01/tmp7b2cfgi2/13234zcpj2x.sdf

>  <i_m_source_file_index>  (384) 
36

>  <i_lp_mmshare_version>  (384) 
48012

>  <i_f3d_flags>  (384) 
0

>  <s_epik_input>  (384) 
W2NIXTFbY0hdW2NIXVtjSF1bY0hdYzFbQ0gyXW4oYzJbT0hdKWMoW09IXSljKGMyMylbQ0BASF00W0NASF01W0NASF0oW0NASF0zW0NIXT1bQ0hdNClbQ0gyXVtDSDJdW0NIMl1PNQ==

>  <s_epik_cmdline>  (384) 
J2VwaWtfcHl0aG9uJywgJy1waHQnLCAnMi4wJywgJy1waCcsICc3LjAnLCAnLXRuJywgJzgnLCAnLW1hJywgJzIwMCcsICctaW1hZScsICc8aW5maWxlLm1hZT4nLCAnLW9tYWUnLCAnPG91dGZpbGUubWFlPic=

>  <r_lp_tautomer_probability>  (384) 
1

>  <r_epik_Ionization_Penalty>  (384) 
7.33291e-11

>  <r_epik_Ionization_Penalty_Charging>  (384) 
0

>  <r_epik_Ionization_Penalty_Neutral>  (384) 
7.33291e-11

>  <r_epik_State_Penalty>  (384) 
-0

>  <r_epik_Charging_Adjusted_Penalty>  (384) 
0

>  <i_epik_Tot_Q>  (384) 
0

>  <i_epik_Tot_abs_Q>  (384) 
0

>  <s_lp_Force_Field>  (384) 
OPLS3e

>  <r_lp_Energy>  (384) 
55.4784

>  <b_lp_Chiralities_Consistent>  (384) 
1

>  <s_lp_Variant>  (384) 
110:0-2

>  <s_i_glide_gridfile>  (384) 
pfpi4k_grid

>  <i_i_glide_lignum>  (384) 
36

>  <i_i_glide_rotatable_bonds>  (384) 
2

>  <r_i_docking_score>  (384) 
-3.53147

>  <r_i_glide_ligand_efficiency>  (384) 
-0.147144

>  <r_i_glide_ligand_efficiency_sa>  (384) 
-0.424438

>  <r_i_glide_ligand_efficiency_ln>  (384) 
-0.845242

>  <r_i_glide_gscore>  (384) 
-3.53147

>  <r_i_glide_lipo>  (384) 
-0.856346

>  <r_i_glide_hbond>  (384) 
-0.0839562

>  <r_i_glide_metal>  (384) 
-0

>  <r_i_glide_rewards>  (384) 
-1.41728

>  <r_i_glide_evdw>  (384) 
-24.1389

>  <r_i_glide_ecoul>  (384) 
-2.16547

>  <r_i_glide_erotb>  (384) 
0.357881

>  <r_i_glide_esite>  (384) 
0

>  <r_i_glide_emodel>  (384) 
-31.8761

>  <r_i_glide_energy>  (384) 
-26.3043

>  <r_i_glide_einternal>  (384) 
0.51275

>  <r_i_glide_intrahb_reward>  (384) 
-0

>  <i_i_glide_confnum>  (384) 
3

>  <i_i_glide_posenum>  (384) 
29

>  <r_i_glide_eff_state_penalty>  (384) 
0

>  <ligand_id>  (384) 
110

>  <original_smiles>  (384) 
Oc1c2c(c(O)n1Cc1ccccc1)C1C=CC2C2CCCOC12

>  <smiles>  (384) 
[H]C1=C([H])C2([H])C3([H])C(=O)N(C([H])([H])c4c([H])c([H])c([H])c([H])c4[H])C(=O)C3([H])C1([H])C1([H])OC([H])([H])C([H])([H])C([H])([H])C12[H]

$$$$
110:1:1
     RDKit          3D

 45 49  0  0  1  0  0  0  0  0999 V2000
    4.2372   -6.0846    3.9191 O   0  0  0  0  0  0  0  0  0  0  0  0
    3.7623   -5.9740    2.7872 C   0  0  0  0  0  0  0  0  0  0  0  0
    4.5683   -5.4330    1.6048 C   0  0  1  0  0  0  0  0  0  0  0  0
    3.4921   -5.3249    0.4780 C   0  0  1  0  0  0  0  0  0  0  0  0
    2.2484   -5.9191    1.1458 C   0  0  0  0  0  0  0  0  0  0  0  0
    1.1609   -6.0106    0.5654 O   0  0  0  0  0  0  0  0  0  0  0  0
    2.5021   -6.2709    2.4170 N   0  0  0  0  0  0  0  0  0  0  0  0
    1.4847   -6.7785    3.3496 C   0  0  0  0  0  0  0  0  0  0  0  0
    0.9060   -5.7274    4.2959 C   0  0  0  0  0  0  0  0  0  0  0  0
    1.1100   -4.3452    4.0864 C   0  0  0  0  0  0  0  0  0  0  0  0
    0.6000   -3.3929    4.9821 C   0  0  0  0  0  0  0  0  0  0  0  0
   -0.1433   -3.8122    6.0980 C   0  0  0  0  0  0  0  0  0  0  0  0
   -0.3658   -5.1862    6.3156 C   0  0  0  0  0  0  0  0  0  0  0  0
    0.1552   -6.1394    5.4154 C   0  0  0  0  0  0  0  0  0  0  0  0
    3.3207   -3.8265    0.0307 C   0  0  1  0  0  0  0  0  0  0  0  0
    3.1635   -2.9511    1.2760 C   0  0  0  0  0  0  0  0  0  0  0  0
    4.1823   -3.0257    2.1529 C   0  0  0  0  0  0  0  0  0  0  0  0
    5.2717   -4.0389    1.7976 C   0  0  2  0  0  0  0  0  0  0  0  0
    5.8211   -3.7442    0.3622 C   0  0  2  0  0  0  0  0  0  0  0  0
    6.9886   -2.7860    0.1261 C   0  0  0  0  0  0  0  0  0  0  0  0
    7.3660   -2.9187   -1.3711 C   0  0  0  0  0  0  0  0  0  0  0  0
    6.1407   -2.8944   -2.3299 C   0  0  0  0  0  0  0  0  0  0  0  0
    5.0347   -3.6944   -1.8814 O   0  0  0  0  0  0  0  0  0  0  0  0
    4.6606   -3.3144   -0.5668 C   0  0  1  0  0  0  0  0  0  0  0  0
    5.3088   -6.1969    1.3554 H   0  0  0  0  0  0  0  0  0  0  0  0
    3.7726   -5.9491   -0.3696 H   0  0  0  0  0  0  0  0  0  0  0  0
    1.9148   -7.5930    3.9374 H   0  0  0  0  0  0  0  0  0  0  0  0
    0.6568   -7.2372    2.8049 H   0  0  0  0  0  0  0  0  0  0  0  0
    1.6696   -3.9807    3.2448 H   0  0  0  0  0  0  0  0  0  0  0  0
    0.7855   -2.3435    4.8004 H   0  0  0  0  0  0  0  0  0  0  0  0
   -0.5334   -3.0770    6.7868 H   0  0  0  0  0  0  0  0  0  0  0  0
   -0.9343   -5.5112    7.1754 H   0  0  0  0  0  0  0  0  0  0  0  0
   -0.0140   -7.1912    5.5938 H   0  0  0  0  0  0  0  0  0  0  0  0
    2.4815   -3.6749   -0.6506 H   0  0  0  0  0  0  0  0  0  0  0  0
    2.3140   -2.2904    1.3823 H   0  0  0  0  0  0  0  0  0  0  0  0
    4.2457   -2.4524    3.0672 H   0  0  0  0  0  0  0  0  0  0  0  0
    6.0576   -4.0772    2.5525 H   0  0  0  0  0  0  0  0  0  0  0  0
    6.1980   -4.7034   -0.0051 H   0  0  0  0  0  0  0  0  0  0  0  0
    6.7048   -1.7597    0.3699 H   0  0  0  0  0  0  0  0  0  0  0  0
    7.8394   -3.0471    0.7554 H   0  0  0  0  0  0  0  0  0  0  0  0
    8.0908   -2.1594   -1.6568 H   0  0  0  0  0  0  0  0  0  0  0  0
    7.8966   -3.8550   -1.5087 H   0  0  0  0  0  0  0  0  0  0  0  0
    5.7994   -1.8662   -2.4723 H   0  0  0  0  0  0  0  0  0  0  0  0
    6.4404   -3.2565   -3.3112 H   0  0  0  0  0  0  0  0  0  0  0  0
    4.5748   -2.2254   -0.5790 H   0  0  0  0  0  0  0  0  0  0  0  0
  1  2  2  0
  2  3  1  0
  2  7  1  0
  3 18  1  0
  3 25  1  6
  3  4  1  0
  4 15  1  0
  4 26  1  6
  4  5  1  0
  5  6  2  0
  5  7  1  0
  7  8  1  0
  8  9  1  0
  8 27  1  0
  8 28  1  0
  9 14  1  0
  9 10  2  0
 10 11  1  0
 10 29  1  0
 11 12  2  0
 11 30  1  0
 12 13  1  0
 12 31  1  0
 13 14  2  0
 13 32  1  0
 14 33  1  0
 15 24  1  0
 15 16  1  0
 15 34  1  6
 16 17  2  0
 16 35  1  0
 17 18  1  0
 17 36  1  0
 18 19  1  0
 18 37  1  1
 19 24  1  0
 19 20  1  0
 19 38  1  6
 20 21  1  0
 20 39  1  0
 20 40  1  0
 21 22  1  0
 21 41  1  0
 21 42  1  0
 22 23  1  0
 22 43  1  0
 22 44  1  0
 23 24  1  0
 24 45  1  6
M  END
>  <i_m_ct_stereo_status>  (385) 
1

>  <s_m_source_file>  (385) 
/var/tmp/pbs.5076255.sched01/tmp7b2cfgi2/13234zcpj2x.sdf

>  <i_m_source_file_index>  (385) 
36

>  <i_lp_mmshare_version>  (385) 
48012

>  <i_f3d_flags>  (385) 
0

>  <s_epik_input>  (385) 
W2NIXTFbY0hdW2NIXVtjSF1bY0hdYzFbQ0gyXW4oYzJbT0hdKWMoW09IXSljKGMyMylbQ0BASF00W0NASF01W0NASF0oW0NASF0zW0NIXT1bQ0hdNClbQ0gyXVtDSDJdW0NIMl1PNQ==

>  <s_epik_cmdline>  (385) 
J2VwaWtfcHl0aG9uJywgJy1waHQnLCAnMi4wJywgJy1waCcsICc3LjAnLCAnLXRuJywgJzgnLCAnLW1hJywgJzIwMCcsICctaW1hZScsICc8aW5maWxlLm1hZT4nLCAnLW9tYWUnLCAnPG91dGZpbGUubWFlPic=

>  <r_lp_tautomer_probability>  (385) 
1

>  <r_epik_Ionization_Penalty>  (385) 
7.33291e-11

>  <r_epik_Ionization_Penalty_Charging>  (385) 
0

>  <r_epik_Ionization_Penalty_Neutral>  (385) 
7.33291e-11

>  <r_epik_State_Penalty>  (385) 
-0

>  <r_epik_Charging_Adjusted_Penalty>  (385) 
0

>  <i_epik_Tot_Q>  (385) 
0

>  <i_epik_Tot_abs_Q>  (385) 
0

>  <s_lp_Force_Field>  (385) 
OPLS3e

>  <r_lp_Energy>  (385) 
55.4784

>  <b_lp_Chiralities_Consistent>  (385) 
1

>  <s_lp_Variant>  (385) 
110:0-2

>  <s_i_glide_gridfile>  (385) 
pfpi4k_grid

>  <i_i_glide_lignum>  (385) 
36

>  <i_i_glide_rotatable_bonds>  (385) 
2

>  <r_i_docking_score>  (385) 
-2.93005

>  <r_i_glide_ligand_efficiency>  (385) 
-0.122085

>  <r_i_glide_ligand_efficiency_sa>  (385) 
-0.352155

>  <r_i_glide_ligand_efficiency_ln>  (385) 
-0.701296

>  <r_i_glide_gscore>  (385) 
-2.93005

>  <r_i_glide_lipo>  (385) 
-0.416008

>  <r_i_glide_hbond>  (385) 
-0.16

>  <r_i_glide_metal>  (385) 
-0

>  <r_i_glide_rewards>  (385) 
-1.20419

>  <r_i_glide_evdw>  (385) 
-21.3495

>  <r_i_glide_ecoul>  (385) 
-2.684

>  <r_i_glide_erotb>  (385) 
0.357881

>  <r_i_glide_esite>  (385) 
-0.0376593

>  <r_i_glide_emodel>  (385) 
-28.6104

>  <r_i_glide_energy>  (385) 
-24.0335

>  <r_i_glide_einternal>  (385) 
0.622311

>  <r_i_glide_intrahb_reward>  (385) 
-0

>  <i_i_glide_confnum>  (385) 
3

>  <i_i_glide_posenum>  (385) 
3

>  <r_i_glide_eff_state_penalty>  (385) 
0

>  <ligand_id>  (385) 
110

>  <original_smiles>  (385) 
Oc1c2c(c(O)n1Cc1ccccc1)C1C=CC2C2CCCOC12

>  <smiles>  (385) 
[H]C1=C([H])C2([H])C3([H])C(=O)N(C([H])([H])c4c([H])c([H])c([H])c([H])c4[H])C(=O)C3([H])C1([H])C1([H])OC([H])([H])C([H])([H])C([H])([H])C12[H]

$$$$
110:1:2
     RDKit          3D

 45 49  0  0  1  0  0  0  0  0999 V2000
    2.7172   -4.1162    2.7985 O   0  0  0  0  0  0  0  0  0  0  0  0
    1.8397   -3.4950    3.4058 C   0  0  0  0  0  0  0  0  0  0  0  0
    1.5343   -2.0270    3.1311 C   0  0  1  0  0  0  0  0  0  0  0  0
    0.5304   -1.6626    4.2608 C   0  0  1  0  0  0  0  0  0  0  0  0
    0.2796   -3.0122    4.9265 C   0  0  0  0  0  0  0  0  0  0  0  0
   -0.5314   -3.1568    5.8460 O   0  0  0  0  0  0  0  0  0  0  0  0
    1.0391   -3.9765    4.3712 N   0  0  0  0  0  0  0  0  0  0  0  0
    1.0261   -5.3858    4.8077 C   0  0  0  0  0  0  0  0  0  0  0  0
    0.3107   -6.3398    3.8498 C   0  0  0  0  0  0  0  0  0  0  0  0
   -0.8295   -7.0547    4.2701 C   0  0  0  0  0  0  0  0  0  0  0  0
   -1.4783   -7.9488    3.4004 C   0  0  0  0  0  0  0  0  0  0  0  0
   -0.9953   -8.1259    2.0920 C   0  0  0  0  0  0  0  0  0  0  0  0
    0.1391   -7.4153    1.6646 C   0  0  0  0  0  0  0  0  0  0  0  0
    0.8010   -6.5425    2.5417 C   0  0  0  0  0  0  0  0  0  0  0  0
    1.1702   -0.6005    5.2249 C   0  0  1  0  0  0  0  0  0  0  0  0
    2.5813   -1.0698    5.6057 C   0  0  0  0  0  0  0  0  0  0  0  0
    3.4165   -1.2573    4.5663 C   0  0  0  0  0  0  0  0  0  0  0  0
    2.7808   -1.0777    3.1831 C   0  0  2  0  0  0  0  0  0  0  0  0
    2.1242    0.3334    3.0781 C   0  0  2  0  0  0  0  0  0  0  0  0
    2.9182    1.5448    2.6062 C   0  0  0  0  0  0  0  0  0  0  0  0
    1.8979    2.6957    2.4433 C   0  0  0  0  0  0  0  0  0  0  0  0
    0.9140    2.8408    3.6415 C   0  0  0  0  0  0  0  0  0  0  0  0
    0.3910    1.5876    4.1234 O   0  0  0  0  0  0  0  0  0  0  0  0
    1.4596    0.7043    4.4280 C   0  0  1  0  0  0  0  0  0  0  0  0
    1.0463   -1.9637    2.1560 H   0  0  0  0  0  0  0  0  0  0  0  0
   -0.4091   -1.2847    3.8511 H   0  0  0  0  0  0  0  0  0  0  0  0
    0.5690   -5.4717    5.7954 H   0  0  0  0  0  0  0  0  0  0  0  0
    2.0502   -5.7366    4.9535 H   0  0  0  0  0  0  0  0  0  0  0  0
   -1.2081   -6.9324    5.2733 H   0  0  0  0  0  0  0  0  0  0  0  0
   -2.3374   -8.5183    3.7405 H   0  0  0  0  0  0  0  0  0  0  0  0
   -1.4783   -8.8209    1.4140 H   0  0  0  0  0  0  0  0  0  0  0  0
    0.5235   -7.5570    0.6647 H   0  0  0  0  0  0  0  0  0  0  0  0
    1.6970   -6.0426    2.1906 H   0  0  0  0  0  0  0  0  0  0  0  0
    0.5730   -0.4165    6.1190 H   0  0  0  0  0  0  0  0  0  0  0  0
    2.8716   -1.1856    6.6398 H   0  0  0  0  0  0  0  0  0  0  0  0
    4.4456   -1.5719    4.6617 H   0  0  0  0  0  0  0  0  0  0  0  0
    3.4828   -1.2862    2.3757 H   0  0  0  0  0  0  0  0  0  0  0  0
    1.3336    0.2320    2.3281 H   0  0  0  0  0  0  0  0  0  0  0  0
    3.6960    1.8004    3.3255 H   0  0  0  0  0  0  0  0  0  0  0  0
    3.4096    1.3401    1.6546 H   0  0  0  0  0  0  0  0  0  0  0  0
    2.4167    3.6383    2.2685 H   0  0  0  0  0  0  0  0  0  0  0  0
    1.3123    2.5095    1.5449 H   0  0  0  0  0  0  0  0  0  0  0  0
    1.4086    3.3629    4.4628 H   0  0  0  0  0  0  0  0  0  0  0  0
    0.0765    3.4699    3.3430 H   0  0  0  0  0  0  0  0  0  0  0  0
    2.1586    1.2708    5.0466 H   0  0  0  0  0  0  0  0  0  0  0  0
  1  2  2  0
  2  3  1  0
  2  7  1  0
  3 18  1  0
  3 25  1  6
  3  4  1  0
  4 15  1  0
  4 26  1  6
  4  5  1  0
  5  6  2  0
  5  7  1  0
  7  8  1  0
  8  9  1  0
  8 27  1  0
  8 28  1  0
  9 14  1  0
  9 10  2  0
 10 11  1  0
 10 29  1  0
 11 12  2  0
 11 30  1  0
 12 13  1  0
 12 31  1  0
 13 14  2  0
 13 32  1  0
 14 33  1  0
 15 24  1  0
 15 16  1  0
 15 34  1  1
 16 17  2  0
 16 35  1  0
 17 18  1  0
 17 36  1  0
 18 19  1  0
 18 37  1  6
 19 24  1  0
 19 20  1  0
 19 38  1  6
 20 21  1  0
 20 39  1  0
 20 40  1  0
 21 22  1  0
 21 41  1  0
 21 42  1  0
 22 23  1  0
 22 43  1  0
 22 44  1  0
 23 24  1  0
 24 45  1  1
M  END
>  <i_m_ct_stereo_status>  (386) 
1

>  <s_m_source_file>  (386) 
/var/tmp/pbs.5076255.sched01/tmp7b2cfgi2/13234zcpj2x.sdf

>  <i_m_source_file_index>  (386) 
36

>  <i_lp_mmshare_version>  (386) 
48012

>  <i_f3d_flags>  (386) 
0

>  <s_epik_input>  (386) 
W2NIXTFbY0hdW2NIXVtjSF1bY0hdYzFbQ0gyXW4oYzJbT0hdKWMoW09IXSljKGMyMylbQ0BASF00W0NASF01W0NASF0oW0NASF0zW0NIXT1bQ0hdNClbQ0gyXVtDSDJdW0NIMl1PNQ==

>  <s_epik_cmdline>  (386) 
J2VwaWtfcHl0aG9uJywgJy1waHQnLCAnMi4wJywgJy1waCcsICc3LjAnLCAnLXRuJywgJzgnLCAnLW1hJywgJzIwMCcsICctaW1hZScsICc8aW5maWxlLm1hZT4nLCAnLW9tYWUnLCAnPG91dGZpbGUubWFlPic=

>  <r_lp_tautomer_probability>  (386) 
1

>  <r_epik_Ionization_Penalty>  (386) 
7.33291e-11

>  <r_epik_Ionization_Penalty_Charging>  (386) 
0

>  <r_epik_Ionization_Penalty_Neutral>  (386) 
7.33291e-11

>  <r_epik_State_Penalty>  (386) 
-0

>  <r_epik_Charging_Adjusted_Penalty>  (386) 
0

>  <i_epik_Tot_Q>  (386) 
0

>  <i_epik_Tot_abs_Q>  (386) 
0

>  <s_lp_Force_Field>  (386) 
OPLS3e

>  <r_lp_Energy>  (386) 
55.4784

>  <b_lp_Chiralities_Consistent>  (386) 
1

>  <s_lp_Variant>  (386) 
110:0-2

>  <s_i_glide_gridfile>  (386) 
pfpi4k_grid

>  <i_i_glide_lignum>  (386) 
36

>  <i_i_glide_rotatable_bonds>  (386) 
2

>  <r_i_docking_score>  (386) 
-2.60737

>  <r_i_glide_ligand_efficiency>  (386) 
-0.108641

>  <r_i_glide_ligand_efficiency_sa>  (386) 
-0.313374

>  <r_i_glide_ligand_efficiency_ln>  (386) 
-0.624064

>  <r_i_glide_gscore>  (386) 
-2.60737

>  <r_i_glide_lipo>  (386) 
-0.00264708

>  <r_i_glide_hbond>  (386) 
0

>  <r_i_glide_metal>  (386) 
-0

>  <r_i_glide_rewards>  (386) 
-1.24796

>  <r_i_glide_evdw>  (386) 
-21.7178

>  <r_i_glide_ecoul>  (386) 
-4.19175

>  <r_i_glide_erotb>  (386) 
0.357881

>  <r_i_glide_esite>  (386) 
0

>  <r_i_glide_emodel>  (386) 
-29.7717

>  <r_i_glide_energy>  (386) 
-25.9095

>  <r_i_glide_einternal>  (386) 
0.470933

>  <r_i_glide_intrahb_reward>  (386) 
-0

>  <i_i_glide_confnum>  (386) 
2

>  <i_i_glide_posenum>  (386) 
2

>  <r_i_glide_eff_state_penalty>  (386) 
0

>  <ligand_id>  (386) 
110

>  <original_smiles>  (386) 
Oc1c2c(c(O)n1Cc1ccccc1)C1C=CC2C2CCCOC12

>  <smiles>  (386) 
[H]C1=C([H])C2([H])C3([H])C(=O)N(C([H])([H])c4c([H])c([H])c([H])c([H])c4[H])C(=O)C3([H])C1([H])C1([H])OC([H])([H])C([H])([H])C([H])([H])C12[H]

$$$$
111:0:0
     RDKit          3D

 85 90  0  0  1  0  0  0  0  0999 V2000
    3.9022   -5.6908    7.9116 C   0  0  0  0  0  0  0  0  0  0  0  0
    3.7732   -5.8823    6.5089 O   0  0  0  0  0  0  0  0  0  0  0  0
    2.6556   -5.3104    5.8159 C   0  0  2  0  0  0  0  0  0  0  0  0
    1.3438   -5.9364    6.3714 C   0  0  0  0  0  0  0  0  0  0  0  0
    0.7502   -6.8849    5.3236 C   0  0  0  0  0  0  0  0  0  0  0  0
    1.8671   -7.1856    4.3205 C   0  0  1  0  0  0  0  0  0  0  0  0
    2.6329   -8.2060    4.9402 O   0  0  0  0  0  0  0  0  0  0  0  0
    1.3358   -7.8273    2.9617 C   0  0  0  0  0  0  0  0  0  0  0  0
    2.3941   -8.0125    1.8450 C   0  0  0  0  0  0  0  0  0  0  0  0
    0.0180   -7.2615    2.3624 C   0  0  0  0  0  0  0  0  0  0  0  0
    2.7097   -5.8492    4.3253 C   0  0  2  0  0  0  0  0  0  0  0  0
    4.1864   -6.0829    3.8800 C   0  0  0  0  0  0  0  0  0  0  0  0
    2.0217   -4.8559    3.3327 C   0  0  0  0  0  0  0  0  0  0  0  0
    2.3668   -3.4169    3.5975 C   0  0  0  0  0  0  0  0  0  0  0  0
    3.2289   -2.6491    2.8566 C   0  0  0  0  0  0  0  0  0  0  0  0
    3.5159   -2.8218    1.3179 C   0  0  1  0  0  0  0  0  0  0  0  0
    4.6889   -3.8127    1.1276 C   0  0  0  0  0  0  0  0  0  0  0  0
    2.2500   -3.3003    0.5319 C   0  0  0  0  0  0  0  0  0  0  0  0
    2.4652   -3.5113   -0.9771 C   0  0  1  0  0  0  0  0  0  0  0  0
    1.2163   -3.8582   -1.5083 O   0  0  0  0  0  0  0  0  0  0  0  0
    3.0385   -2.2971   -1.7148 C   0  0  2  0  0  0  0  0  0  0  0  0
    3.8419   -2.7354   -2.9249 C   0  0  1  0  0  0  0  0  0  0  0  0
    3.6488   -1.8158   -4.1362 C   0  0  0  0  0  0  0  0  0  0  0  0
    5.2572   -2.6748   -2.4042 C   0  0  0  0  0  0  0  0  0  0  0  0
    6.1982   -3.2183   -2.9632 O   0  0  0  0  0  0  0  0  0  0  0  0
    5.3065   -1.9719   -1.2811 O   0  0  0  0  0  0  0  0  0  0  0  0
    4.0386   -1.4672   -0.8943 C   0  0  2  0  0  0  0  0  0  0  0  0
    3.8737   -1.4501    0.6489 C   0  0  1  0  0  0  0  0  0  0  0  0
    2.8749   -0.4730    0.8974 O   0  0  0  0  0  0  0  0  0  0  0  0
    4.0951   -1.6181    3.6045 C   0  0  0  0  0  0  0  0  0  0  0  0
    4.0368   -1.6233    5.1690 C   0  0  2  0  0  0  0  0  0  0  0  0
    4.0968   -3.0493    5.8258 C   0  0  0  0  0  0  0  0  0  0  0  0
    2.6984   -3.7373    5.9811 C   0  0  1  0  0  0  0  0  0  0  0  0
    1.7969   -3.0624    4.9592 C   0  0  1  0  0  0  0  0  0  0  0  0
    1.5459   -1.5631    5.1998 C   0  0  0  0  0  0  0  0  0  0  0  0
    2.8098   -0.8283    5.6573 C   0  0  1  0  0  0  0  0  0  0  0  0
    2.8338   -0.5195    7.1710 C   0  0  0  0  0  0  0  0  0  0  0  0
    4.9088   -5.9944    8.1930 H   0  0  0  0  0  0  0  0  0  0  0  0
    3.2089   -6.3093    8.4794 H   0  0  0  0  0  0  0  0  0  0  0  0
    3.7750   -4.6525    8.2092 H   0  0  0  0  0  0  0  0  0  0  0  0
    1.5100   -6.5129    7.2771 H   0  0  0  0  0  0  0  0  0  0  0  0
    0.6052   -5.1770    6.6272 H   0  0  0  0  0  0  0  0  0  0  0  0
    0.3106   -7.7920    5.7547 H   0  0  0  0  0  0  0  0  0  0  0  0
   -0.0590   -6.3348    4.8534 H   0  0  0  0  0  0  0  0  0  0  0  0
    3.3719   -8.4037    4.3854 H   0  0  0  0  0  0  0  0  0  0  0  0
    1.0633   -8.8471    3.2326 H   0  0  0  0  0  0  0  0  0  0  0  0
    2.7463   -7.0766    1.4155 H   0  0  0  0  0  0  0  0  0  0  0  0
    1.9675   -8.5502    0.9984 H   0  0  0  0  0  0  0  0  0  0  0  0
    3.2637   -8.5716    2.2005 H   0  0  0  0  0  0  0  0  0  0  0  0
    0.0492   -6.1908    2.1659 H   0  0  0  0  0  0  0  0  0  0  0  0
   -0.8243   -7.4740    3.0256 H   0  0  0  0  0  0  0  0  0  0  0  0
   -0.2099   -7.7429    1.4036 H   0  0  0  0  0  0  0  0  0  0  0  0
    4.2711   -6.5085    2.8845 H   0  0  0  0  0  0  0  0  0  0  0  0
    4.7464   -6.7675    4.5221 H   0  0  0  0  0  0  0  0  0  0  0  0
    4.7426   -5.1508    3.8487 H   0  0  0  0  0  0  0  0  0  0  0  0
    2.3159   -5.1672    2.3725 H   0  0  0  0  0  0  0  0  0  0  0  0
    0.9372   -4.8930    3.4420 H   0  0  0  0  0  0  0  0  0  0  0  0
    4.8394   -4.1280    0.0995 H   0  0  0  0  0  0  0  0  0  0  0  0
    4.4894   -4.7396    1.6454 H   0  0  0  0  0  0  0  0  0  0  0  0
    5.6334   -3.4149    1.4958 H   0  0  0  0  0  0  0  0  0  0  0  0
    1.8596   -4.2534    0.7796 H   0  0  0  0  0  0  0  0  0  0  0  0
    1.4843   -2.5289    0.7183 H   0  0  0  0  0  0  0  0  0  0  0  0
    3.1210   -4.3746   -1.0971 H   0  0  0  0  0  0  0  0  0  0  0  0
    1.3129   -4.1607   -2.4305 H   0  0  0  0  0  0  0  0  0  0  0  0
    2.2398   -1.6614   -2.0709 H   0  0  0  0  0  0  0  0  0  0  0  0
    3.6398   -3.7697   -3.2077 H   0  0  0  0  0  0  0  0  0  0  0  0
    4.3305   -2.1081   -4.9231 H   0  0  0  0  0  0  0  0  0  0  0  0
    3.8596   -0.7727   -3.9060 H   0  0  0  0  0  0  0  0  0  0  0  0
    2.6245   -1.8979   -4.5096 H   0  0  0  0  0  0  0  0  0  0  0  0
    4.0200   -0.4364   -1.2689 H   0  0  0  0  0  0  0  0  0  0  0  0
    4.8023   -1.0715    1.0719 H   0  0  0  0  0  0  0  0  0  0  0  0
    2.1011   -0.6693    0.3644 H   0  0  0  0  0  0  0  0  0  0  0  0
    5.1334   -1.8356    3.3393 H   0  0  0  0  0  0  0  0  0  0  0  0
    3.9027   -0.6036    3.2460 H   0  0  0  0  0  0  0  0  0  0  0  0
    4.9075   -1.0746    5.5191 H   0  0  0  0  0  0  0  0  0  0  0  0
    4.8211   -3.6679    5.2959 H   0  0  0  0  0  0  0  0  0  0  0  0
    4.5113   -2.9415    6.8148 H   0  0  0  0  0  0  0  0  0  0  0  0
    2.2899   -3.4927    6.9779 H   0  0  0  0  0  0  0  0  0  0  0  0
    0.8041   -3.4884    5.0303 H   0  0  0  0  0  0  0  0  0  0  0  0
    1.1395   -1.0950    4.2879 H   0  0  0  0  0  0  0  0  0  0  0  0
    0.7792   -1.4639    5.9644 H   0  0  0  0  0  0  0  0  0  0  0  0
    2.8096    0.1418    5.1727 H   0  0  0  0  0  0  0  0  0  0  0  0
    2.8019   -1.4185    7.7833 H   0  0  0  0  0  0  0  0  0  0  0  0
    1.9904    0.1083    7.4633 H   0  0  0  0  0  0  0  0  0  0  0  0
    3.7401    0.0227    7.4360 H   0  0  0  0  0  0  0  0  0  0  0  0
  1  2  1  0
  1 38  1  0
  1 39  1  0
  1 40  1  0
  3  2  1  1
  3 11  1  0
  3 33  1  0
  3  4  1  0
  4  5  1  0
  4 41  1  0
  4 42  1  0
  5  6  1  0
  5 43  1  0
  5 44  1  0
  6  7  1  1
  6  8  1  0
  6 11  1  0
  7 45  1  0
  8  9  1  0
  8 10  1  0
  8 46  1  0
  9 47  1  0
  9 48  1  0
  9 49  1  0
 10 50  1  0
 10 51  1  0
 10 52  1  0
 11 12  1  6
 11 13  1  0
 12 53  1  0
 12 54  1  0
 12 55  1  0
 13 14  1  0
 13 56  1  0
 13 57  1  0
 14 34  1  0
 14 15  2  0
 15 16  1  0
 15 30  1  0
 16 28  1  0
 16 17  1  1
 16 18  1  0
 17 58  1  0
 17 59  1  0
 17 60  1  0
 18 19  1  0
 18 61  1  0
 18 62  1  0
 19 20  1  0
 19 21  1  0
 19 63  1  1
 20 64  1  0
 21 27  1  0
 21 22  1  0
 21 65  1  6
 22 23  1  0
 22 24  1  0
 22 66  1  6
 23 67  1  0
 23 68  1  0
 23 69  1  0
 24 25  2  0
 24 26  1  0
 26 27  1  0
 27 28  1  0
 27 70  1  6
 28 29  1  0
 28 71  1  1
 29 72  1  0
 30 31  1  0
 30 73  1  0
 30 74  1  0
 31 36  1  0
 31 32  1  0
 31 75  1  1
 32 33  1  0
 32 76  1  0
 32 77  1  0
 33 34  1  0
 33 78  1  1
 34 35  1  0
 34 79  1  6
 35 36  1  0
 35 80  1  0
 35 81  1  0
 36 37  1  0
 36 82  1  6
 37 83  1  0
 37 84  1  0
 37 85  1  0
M  END
>  <i_m_ct_stereo_status>  (387) 
1

>  <s_m_source_file>  (387) 
/var/tmp/pbs.5076255.sched01/tmp7b2cfgi2/13234zcpj2x.sdf

>  <i_m_source_file_index>  (387) 
37

>  <i_lp_mmshare_version>  (387) 
48012

>  <i_f3d_flags>  (387) 
0

>  <s_epik_input>  (387) 
W0NIM11PW0NAQF0xMltDQEBdKFtDSDNdKShbQ0BAXShbT0hdKShbQ0gyXVtDSDJdMSlbQ0hdKFtDSDNdKVtDSDNdKVtDSDJdQz0zW0NASF00W0NAQEhdMltDSDJdW0NASF0oW0NAQEhdKFtDSDJdNClbQ0gzXSlbQ0gyXUMzW0NAQF0oW0NIM10pKFtDSDJdW0NASF01W09IXSlbQ0BIXShbT0hdKVtDQEhdKFtDQEhdNTYpT0MoPU8pW0NAQEhdNltDSDNd

>  <s_epik_cmdline>  (387) 
J2VwaWtfcHl0aG9uJywgJy1waHQnLCAnMi4wJywgJy1waCcsICc3LjAnLCAnLXRuJywgJzgnLCAnLW1hJywgJzIwMCcsICctaW1hZScsICc8aW5maWxlLm1hZT4nLCAnLW9tYWUnLCAnPG91dGZpbGUubWFlPic=

>  <r_lp_tautomer_probability>  (387) 
1

>  <r_epik_Ionization_Penalty>  (387) 
1.60013e-06

>  <r_epik_Ionization_Penalty_Charging>  (387) 
0

>  <r_epik_Ionization_Penalty_Neutral>  (387) 
1.60013e-06

>  <r_epik_State_Penalty>  (387) 
-0

>  <r_epik_Charging_Adjusted_Penalty>  (387) 
0

>  <i_epik_Tot_Q>  (387) 
0

>  <i_epik_Tot_abs_Q>  (387) 
0

>  <s_epik_Chemistry_Notes>  (387) 
This compound has an ester and may undergo hydrolysis at high or low pH.

>  <s_lp_Force_Field>  (387) 
OPLS3e

>  <r_lp_Energy>  (387) 
80.5867

>  <b_lp_Chiralities_Consistent>  (387) 
1

>  <s_lp_Variant>  (387) 
111:0-1

>  <s_i_glide_gridfile>  (387) 
pfpi4k_grid

>  <i_i_glide_lignum>  (387) 
37

>  <i_i_glide_rotatable_bonds>  (387) 
6

>  <r_i_docking_score>  (387) 
-2.63692

>  <r_i_glide_ligand_efficiency>  (387) 
-0.0712681

>  <r_i_glide_ligand_efficiency_sa>  (387) 
-0.237481

>  <r_i_glide_ligand_efficiency_ln>  (387) 
-0.571886

>  <r_i_glide_gscore>  (387) 
-2.63692

>  <r_i_glide_lipo>  (387) 
-0.0856248

>  <r_i_glide_hbond>  (387) 
-0.357291

>  <r_i_glide_metal>  (387) 
-0

>  <r_i_glide_rewards>  (387) 
-0.176691

>  <r_i_glide_evdw>  (387) 
-20.8677

>  <r_i_glide_ecoul>  (387) 
-7.0054

>  <r_i_glide_erotb>  (387) 
0.0768846

>  <r_i_glide_esite>  (387) 
0

>  <r_i_glide_emodel>  (387) 
-29.1641

>  <r_i_glide_energy>  (387) 
-27.8731

>  <r_i_glide_einternal>  (387) 
4.15588

>  <r_i_glide_intrahb_reward>  (387) 
-0

>  <i_i_glide_confnum>  (387) 
2

>  <i_i_glide_posenum>  (387) 
9

>  <r_i_glide_eff_state_penalty>  (387) 
0

>  <ligand_id>  (387) 
111

>  <original_smiles>  (387) 
COC12CCC(O)(C(C)C)C1(C)CC1=C(C3(C)CC(O)C4C(C)C(=O)OC4C3O)CC3CC2C1CC3C

>  <smiles>  (387) 
[H]OC1([H])C([H])([H])C(C2=C3C([H])([H])C4(C([H])([H])[H])C(O[H])(C([H])(C([H])([H])[H])C([H])([H])[H])C([H])([H])C([H])([H])C4(OC([H])([H])[H])C4([H])C([H])([H])C([H])(C2([H])[H])C([H])(C([H])([H])[H])C([H])([H])C34[H])(C([H])([H])[H])C([H])(O[H])C2([H])OC(=O)C([H])(C([H])([H])[H])C12[H]

$$$$
111:0:1
     RDKit          3D

 85 90  0  0  1  0  0  0  0  0999 V2000
    3.0900    1.0617    4.3881 C   0  0  0  0  0  0  0  0  0  0  0  0
    2.8725   -0.1147    3.6196 O   0  0  0  0  0  0  0  0  0  0  0  0
    3.8920   -1.1281    3.5570 C   0  0  2  0  0  0  0  0  0  0  0  0
    5.1752   -0.5198    2.9412 C   0  0  0  0  0  0  0  0  0  0  0  0
    5.3741   -1.0839    1.5378 C   0  0  0  0  0  0  0  0  0  0  0  0
    4.0259   -1.6853    1.1046 C   0  0  1  0  0  0  0  0  0  0  0  0
    3.2357   -0.5862    0.6757 O   0  0  0  0  0  0  0  0  0  0  0  0
    4.1408   -2.6874   -0.1285 C   0  0  0  0  0  0  0  0  0  0  0  0
    5.3742   -3.6385   -0.1532 C   0  0  0  0  0  0  0  0  0  0  0  0
    4.1150   -1.9726   -1.5125 C   0  0  0  0  0  0  0  0  0  0  0  0
    3.4404   -2.2093    2.4717 C   0  0  2  0  0  0  0  0  0  0  0  0
    1.8844   -2.2989    2.4263 C   0  0  0  0  0  0  0  0  0  0  0  0
    4.0340   -3.6382    2.7538 C   0  0  0  0  0  0  0  0  0  0  0  0
    3.9657   -3.9924    4.2350 C   0  0  0  0  0  0  0  0  0  0  0  0
    3.0988   -4.8513    4.8218 C   0  0  0  0  0  0  0  0  0  0  0  0
    2.4572   -6.1069    4.1220 C   0  0  1  0  0  0  0  0  0  0  0  0
    1.2506   -5.6475    3.2646 C   0  0  0  0  0  0  0  0  0  0  0  0
    3.5135   -6.8371    3.2279 C   0  0  0  0  0  0  0  0  0  0  0  0
    2.9656   -8.0825    2.4952 C   0  0  1  0  0  0  0  0  0  0  0  0
    4.0419   -8.7195    1.8424 O   0  0  0  0  0  0  0  0  0  0  0  0
    2.2368   -9.1199    3.3866 C   0  0  2  0  0  0  0  0  0  0  0  0
    1.1454   -9.8721    2.6110 C   0  0  1  0  0  0  0  0  0  0  0  0
    1.0508  -11.3623    2.9515 C   0  0  0  0  0  0  0  0  0  0  0  0
   -0.1420   -9.1433    3.0141 C   0  0  0  0  0  0  0  0  0  0  0  0
   -1.2216   -9.2362    2.4485 O   0  0  0  0  0  0  0  0  0  0  0  0
    0.1020   -8.3706    4.0714 O   0  0  0  0  0  0  0  0  0  0  0  0
    1.4280   -8.4991    4.5496 C   0  0  2  0  0  0  0  0  0  0  0  0
    1.9730   -7.1848    5.1479 C   0  0  1  0  0  0  0  0  0  0  0  0
    3.0147   -7.5913    6.0141 O   0  0  0  0  0  0  0  0  0  0  0  0
    2.5874   -4.5302    6.2581 C   0  0  0  0  0  0  0  0  0  0  0  0
    2.9894   -3.1508    6.8717 C   0  0  2  0  0  0  0  0  0  0  0  0
    2.8556   -1.9282    5.9026 C   0  0  0  0  0  0  0  0  0  0  0  0
    4.1231   -1.6852    5.0166 C   0  0  1  0  0  0  0  0  0  0  0  0
    4.8785   -3.0055    4.9696 C   0  0  1  0  0  0  0  0  0  0  0  0
    5.4051   -3.4823    6.3408 C   0  0  0  0  0  0  0  0  0  0  0  0
    4.4066   -3.2482    7.4782 C   0  0  1  0  0  0  0  0  0  0  0  0
    4.7664   -2.0450    8.3764 C   0  0  0  0  0  0  0  0  0  0  0  0
    2.1367    1.5837    4.4733 H   0  0  0  0  0  0  0  0  0  0  0  0
    3.7858    1.7534    3.9135 H   0  0  0  0  0  0  0  0  0  0  0  0
    3.4414    0.8493    5.3963 H   0  0  0  0  0  0  0  0  0  0  0  0
    5.1083    0.5509    2.8551 H   0  0  0  0  0  0  0  0  0  0  0  0
    6.0575   -0.7158    3.5365 H   0  0  0  0  0  0  0  0  0  0  0  0
    5.7510   -0.3532    0.8181 H   0  0  0  0  0  0  0  0  0  0  0  0
    6.1357   -1.8567    1.6341 H   0  0  0  0  0  0  0  0  0  0  0  0
    2.4345   -0.9018    0.2712 H   0  0  0  0  0  0  0  0  0  0  0  0
    3.2527   -3.3196   -0.1246 H   0  0  0  0  0  0  0  0  0  0  0  0
    6.3029   -3.0719   -0.2053 H   0  0  0  0  0  0  0  0  0  0  0  0
    5.3742   -4.2571   -1.0572 H   0  0  0  0  0  0  0  0  0  0  0  0
    5.4349   -4.3100    0.7035 H   0  0  0  0  0  0  0  0  0  0  0  0
    4.8303   -1.1591   -1.5541 H   0  0  0  0  0  0  0  0  0  0  0  0
    3.1330   -1.5642   -1.7408 H   0  0  0  0  0  0  0  0  0  0  0  0
    4.3566   -2.6568   -2.3185 H   0  0  0  0  0  0  0  0  0  0  0  0
    1.5921   -2.9615    1.6269 H   0  0  0  0  0  0  0  0  0  0  0  0
    1.3772   -1.3495    2.2366 H   0  0  0  0  0  0  0  0  0  0  0  0
    1.4688   -2.6954    3.3449 H   0  0  0  0  0  0  0  0  0  0  0  0
    3.5369   -4.3617    2.1302 H   0  0  0  0  0  0  0  0  0  0  0  0
    5.0816   -3.6574    2.4805 H   0  0  0  0  0  0  0  0  0  0  0  0
    0.8490   -6.4330    2.6250 H   0  0  0  0  0  0  0  0  0  0  0  0
    1.5239   -4.8609    2.5731 H   0  0  0  0  0  0  0  0  0  0  0  0
    0.4277   -5.2846    3.8824 H   0  0  0  0  0  0  0  0  0  0  0  0
    3.9317   -6.2068    2.4444 H   0  0  0  0  0  0  0  0  0  0  0  0
    4.3567   -7.1322    3.8639 H   0  0  0  0  0  0  0  0  0  0  0  0
    2.3011   -7.7534    1.7000 H   0  0  0  0  0  0  0  0  0  0  0  0
    4.5605   -9.1730    2.4896 H   0  0  0  0  0  0  0  0  0  0  0  0
    2.9705   -9.8111    3.7999 H   0  0  0  0  0  0  0  0  0  0  0  0
    1.2823   -9.7551    1.5421 H   0  0  0  0  0  0  0  0  0  0  0  0
    0.2183  -11.8338    2.4182 H   0  0  0  0  0  0  0  0  0  0  0  0
    0.8988  -11.5336    4.0219 H   0  0  0  0  0  0  0  0  0  0  0  0
    1.9674  -11.8776    2.6655 H   0  0  0  0  0  0  0  0  0  0  0  0
    1.3793   -9.2525    5.3459 H   0  0  0  0  0  0  0  0  0  0  0  0
    1.1800   -6.7682    5.7664 H   0  0  0  0  0  0  0  0  0  0  0  0
    2.6639   -8.2091    6.6347 H   0  0  0  0  0  0  0  0  0  0  0  0
    1.5013   -4.5296    6.1950 H   0  0  0  0  0  0  0  0  0  0  0  0
    2.8592   -5.3126    6.9625 H   0  0  0  0  0  0  0  0  0  0  0  0
    2.3110   -2.9798    7.7071 H   0  0  0  0  0  0  0  0  0  0  0  0
    1.9552   -2.0338    5.3019 H   0  0  0  0  0  0  0  0  0  0  0  0
    2.6912   -1.0377    6.5070 H   0  0  0  0  0  0  0  0  0  0  0  0
    4.7659   -0.9733    5.5429 H   0  0  0  0  0  0  0  0  0  0  0  0
    5.7858   -2.8738    4.3895 H   0  0  0  0  0  0  0  0  0  0  0  0
    5.6678   -4.5401    6.2868 H   0  0  0  0  0  0  0  0  0  0  0  0
    6.3329   -2.9572    6.5612 H   0  0  0  0  0  0  0  0  0  0  0  0
    4.4495   -4.1174    8.1404 H   0  0  0  0  0  0  0  0  0  0  0  0
    4.7953   -1.1000    7.8338 H   0  0  0  0  0  0  0  0  0  0  0  0
    5.7410   -2.1787    8.8492 H   0  0  0  0  0  0  0  0  0  0  0  0
    4.0402   -1.9351    9.1821 H   0  0  0  0  0  0  0  0  0  0  0  0
  1  2  1  0
  1 38  1  0
  1 39  1  0
  1 40  1  0
  3  2  1  1
  3 11  1  0
  3 33  1  0
  3  4  1  0
  4  5  1  0
  4 41  1  0
  4 42  1  0
  5  6  1  0
  5 43  1  0
  5 44  1  0
  6  7  1  6
  6  8  1  0
  6 11  1  0
  7 45  1  0
  8  9  1  0
  8 10  1  0
  8 46  1  0
  9 47  1  0
  9 48  1  0
  9 49  1  0
 10 50  1  0
 10 51  1  0
 10 52  1  0
 11 12  1  6
 11 13  1  0
 12 53  1  0
 12 54  1  0
 12 55  1  0
 13 14  1  0
 13 56  1  0
 13 57  1  0
 14 34  1  0
 14 15  2  0
 15 16  1  0
 15 30  1  0
 16 28  1  0
 16 17  1  6
 16 18  1  0
 17 58  1  0
 17 59  1  0
 17 60  1  0
 18 19  1  0
 18 61  1  0
 18 62  1  0
 19 20  1  0
 19 21  1  0
 19 63  1  6
 20 64  1  0
 21 27  1  0
 21 22  1  0
 21 65  1  1
 22 23  1  0
 22 24  1  0
 22 66  1  6
 23 67  1  0
 23 68  1  0
 23 69  1  0
 24 25  2  0
 24 26  1  0
 26 27  1  0
 27 28  1  0
 27 70  1  1
 28 29  1  0
 28 71  1  1
 29 72  1  0
 30 31  1  0
 30 73  1  0
 30 74  1  0
 31 36  1  0
 31 32  1  0
 31 75  1  1
 32 33  1  0
 32 76  1  0
 32 77  1  0
 33 34  1  0
 33 78  1  1
 34 35  1  0
 34 79  1  6
 35 36  1  0
 35 80  1  0
 35 81  1  0
 36 37  1  0
 36 82  1  1
 37 83  1  0
 37 84  1  0
 37 85  1  0
M  END
>  <i_m_ct_stereo_status>  (388) 
1

>  <s_m_source_file>  (388) 
/var/tmp/pbs.5076255.sched01/tmp7b2cfgi2/13234zcpj2x.sdf

>  <i_m_source_file_index>  (388) 
37

>  <i_lp_mmshare_version>  (388) 
48012

>  <i_f3d_flags>  (388) 
0

>  <s_epik_input>  (388) 
W0NIM11PW0NAQF0xMltDQEBdKFtDSDNdKShbQ0BAXShbT0hdKShbQ0gyXVtDSDJdMSlbQ0hdKFtDSDNdKVtDSDNdKVtDSDJdQz0zW0NASF00W0NAQEhdMltDSDJdW0NASF0oW0NAQEhdKFtDSDJdNClbQ0gzXSlbQ0gyXUMzW0NAQF0oW0NIM10pKFtDSDJdW0NASF01W09IXSlbQ0BIXShbT0hdKVtDQEhdKFtDQEhdNTYpT0MoPU8pW0NAQEhdNltDSDNd

>  <s_epik_cmdline>  (388) 
J2VwaWtfcHl0aG9uJywgJy1waHQnLCAnMi4wJywgJy1waCcsICc3LjAnLCAnLXRuJywgJzgnLCAnLW1hJywgJzIwMCcsICctaW1hZScsICc8aW5maWxlLm1hZT4nLCAnLW9tYWUnLCAnPG91dGZpbGUubWFlPic=

>  <r_lp_tautomer_probability>  (388) 
1

>  <r_epik_Ionization_Penalty>  (388) 
1.60013e-06

>  <r_epik_Ionization_Penalty_Charging>  (388) 
0

>  <r_epik_Ionization_Penalty_Neutral>  (388) 
1.60013e-06

>  <r_epik_State_Penalty>  (388) 
-0

>  <r_epik_Charging_Adjusted_Penalty>  (388) 
0

>  <i_epik_Tot_Q>  (388) 
0

>  <i_epik_Tot_abs_Q>  (388) 
0

>  <s_epik_Chemistry_Notes>  (388) 
This compound has an ester and may undergo hydrolysis at high or low pH.

>  <s_lp_Force_Field>  (388) 
OPLS3e

>  <r_lp_Energy>  (388) 
80.5867

>  <b_lp_Chiralities_Consistent>  (388) 
1

>  <s_lp_Variant>  (388) 
111:0-1

>  <s_i_glide_gridfile>  (388) 
pfpi4k_grid

>  <i_i_glide_lignum>  (388) 
37

>  <i_i_glide_rotatable_bonds>  (388) 
6

>  <r_i_docking_score>  (388) 
-2.24808

>  <r_i_glide_ligand_efficiency>  (388) 
-0.060759

>  <r_i_glide_ligand_efficiency_sa>  (388) 
-0.202463

>  <r_i_glide_ligand_efficiency_ln>  (388) 
-0.487557

>  <r_i_glide_gscore>  (388) 
-2.24808

>  <r_i_glide_lipo>  (388) 
-0.623246

>  <r_i_glide_hbond>  (388) 
0

>  <r_i_glide_metal>  (388) 
-0

>  <r_i_glide_rewards>  (388) 
0

>  <r_i_glide_evdw>  (388) 
-24.6869

>  <r_i_glide_ecoul>  (388) 
-2.89711

>  <r_i_glide_erotb>  (388) 
0.0768846

>  <r_i_glide_esite>  (388) 
-0.0328119

>  <r_i_glide_emodel>  (388) 
-27.213

>  <r_i_glide_energy>  (388) 
-27.584

>  <r_i_glide_einternal>  (388) 
7.04742

>  <r_i_glide_intrahb_reward>  (388) 
-0

>  <i_i_glide_confnum>  (388) 
2

>  <i_i_glide_posenum>  (388) 
31

>  <r_i_glide_eff_state_penalty>  (388) 
0

>  <ligand_id>  (388) 
111

>  <original_smiles>  (388) 
COC12CCC(O)(C(C)C)C1(C)CC1=C(C3(C)CC(O)C4C(C)C(=O)OC4C3O)CC3CC2C1CC3C

>  <smiles>  (388) 
[H]OC1([H])C([H])([H])C(C2=C3C([H])([H])C4(C([H])([H])[H])C(O[H])(C([H])(C([H])([H])[H])C([H])([H])[H])C([H])([H])C([H])([H])C4(OC([H])([H])[H])C4([H])C([H])([H])C([H])(C2([H])[H])C([H])(C([H])([H])[H])C([H])([H])C34[H])(C([H])([H])[H])C([H])(O[H])C2([H])OC(=O)C([H])(C([H])([H])[H])C12[H]

$$$$
111:0:2
     RDKit          3D

 85 90  0  0  1  0  0  0  0  0999 V2000
    3.5699    1.0242    7.5148 C   0  0  0  0  0  0  0  0  0  0  0  0
    3.1433    0.1870    6.4503 O   0  0  0  0  0  0  0  0  0  0  0  0
    4.0053   -0.8605    5.9546 C   0  0  2  0  0  0  0  0  0  0  0  0
    5.2947   -0.2094    5.3864 C   0  0  0  0  0  0  0  0  0  0  0  0
    5.2683   -0.3334    3.8634 C   0  0  0  0  0  0  0  0  0  0  0  0
    3.8107   -0.6034    3.4628 C   0  0  1  0  0  0  0  0  0  0  0  0
    3.1545    0.6481    3.4846 O   0  0  0  0  0  0  0  0  0  0  0  0
    3.7179   -1.1661    1.9923 C   0  0  0  0  0  0  0  0  0  0  0  0
    4.2597   -0.1752    0.9385 C   0  0  0  0  0  0  0  0  0  0  0  0
    2.3187   -1.6335    1.5540 C   0  0  0  0  0  0  0  0  0  0  0  0
    3.3034   -1.4925    4.6652 C   0  0  2  0  0  0  0  0  0  0  0  0
    1.7590   -1.4179    4.8071 C   0  0  0  0  0  0  0  0  0  0  0  0
    3.7544   -2.9814    4.4357 C   0  0  0  0  0  0  0  0  0  0  0  0
    3.8016   -3.7742    5.7157 C   0  0  0  0  0  0  0  0  0  0  0  0
    2.8732   -4.6876    6.1498 C   0  0  0  0  0  0  0  0  0  0  0  0
    2.0128   -5.5928    5.1917 C   0  0  1  0  0  0  0  0  0  0  0  0
    0.7814   -4.7954    4.6917 C   0  0  0  0  0  0  0  0  0  0  0  0
    2.8598   -6.1128    3.9944 C   0  0  0  0  0  0  0  0  0  0  0  0
    2.1089   -6.9888    2.9895 C   0  0  1  0  0  0  0  0  0  0  0  0
    3.0225   -7.4729    2.0338 O   0  0  0  0  0  0  0  0  0  0  0  0
    1.3515   -8.1870    3.6052 C   0  0  2  0  0  0  0  0  0  0  0  0
    0.1083   -8.5523    2.7979 C   0  0  1  0  0  0  0  0  0  0  0  0
   -0.1313  -10.0673    2.6536 C   0  0  0  0  0  0  0  0  0  0  0  0
   -1.0341   -7.9025    3.5547 C   0  0  0  0  0  0  0  0  0  0  0  0
   -2.1531   -7.7108    3.1110 O   0  0  0  0  0  0  0  0  0  0  0  0
   -0.5963   -7.5336    4.7674 O   0  0  0  0  0  0  0  0  0  0  0  0
    0.7556   -7.9116    4.9967 C   0  0  2  0  0  0  0  0  0  0  0  0
    1.5094   -6.8973    5.8982 C   0  0  1  0  0  0  0  0  0  0  0  0
    2.5778   -7.6379    6.4560 O   0  0  0  0  0  0  0  0  0  0  0  0
    2.5437   -4.7742    7.6484 C   0  0  0  0  0  0  0  0  0  0  0  0
    3.1641   -3.7110    8.6054 C   0  0  2  0  0  0  0  0  0  0  0  0
    3.1035   -2.2372    8.0743 C   0  0  0  0  0  0  0  0  0  0  0  0
    4.2939   -1.8525    7.1382 C   0  0  1  0  0  0  0  0  0  0  0  0
    4.8855   -3.1565    6.6049 C   0  0  1  0  0  0  0  0  0  0  0  0
    5.4567   -4.0745    7.6949 C   0  0  0  0  0  0  0  0  0  0  0  0
    4.6072   -4.1230    8.9718 C   0  0  1  0  0  0  0  0  0  0  0  0
    5.1993   -3.2914   10.1403 C   0  0  0  0  0  0  0  0  0  0  0  0
    2.7031    1.5862    7.8707 H   0  0  0  0  0  0  0  0  0  0  0  0
    4.3113    1.7600    7.2014 H   0  0  0  0  0  0  0  0  0  0  0  0
    3.9656    0.4749    8.3681 H   0  0  0  0  0  0  0  0  0  0  0  0
    5.3666    0.8477    5.6335 H   0  0  0  0  0  0  0  0  0  0  0  0
    6.2022   -0.6759    5.7786 H   0  0  0  0  0  0  0  0  0  0  0  0
    5.6985    0.5418    3.3674 H   0  0  0  0  0  0  0  0  0  0  0  0
    5.8793   -1.1772    3.5540 H   0  0  0  0  0  0  0  0  0  0  0  0
    3.5677    1.2164    2.8304 H   0  0  0  0  0  0  0  0  0  0  0  0
    4.3592   -2.0438    1.9217 H   0  0  0  0  0  0  0  0  0  0  0  0
    3.6692    0.7412    0.8965 H   0  0  0  0  0  0  0  0  0  0  0  0
    4.2281   -0.6076   -0.0621 H   0  0  0  0  0  0  0  0  0  0  0  0
    5.2970    0.1052    1.1209 H   0  0  0  0  0  0  0  0  0  0  0  0
    1.5605   -0.8715    1.7346 H   0  0  0  0  0  0  0  0  0  0  0  0
    2.0061   -2.5546    2.0333 H   0  0  0  0  0  0  0  0  0  0  0  0
    2.3040   -1.8552    0.4848 H   0  0  0  0  0  0  0  0  0  0  0  0
    1.2442   -1.7512    3.9158 H   0  0  0  0  0  0  0  0  0  0  0  0
    1.3834   -0.4101    4.9837 H   0  0  0  0  0  0  0  0  0  0  0  0
    1.4023   -2.0357    5.6223 H   0  0  0  0  0  0  0  0  0  0  0  0
    3.0740   -3.4275    3.7136 H   0  0  0  0  0  0  0  0  0  0  0  0
    4.7340   -3.0325    3.9709 H   0  0  0  0  0  0  0  0  0  0  0  0
    0.2276   -5.2937    3.9064 H   0  0  0  0  0  0  0  0  0  0  0  0
    1.0714   -3.8595    4.2462 H   0  0  0  0  0  0  0  0  0  0  0  0
    0.0843   -4.5806    5.4966 H   0  0  0  0  0  0  0  0  0  0  0  0
    3.2861   -5.3018    3.3778 H   0  0  0  0  0  0  0  0  0  0  0  0
    3.7358   -6.6378    4.3817 H   0  0  0  0  0  0  0  0  0  0  0  0
    1.4087   -6.3658    2.4318 H   0  0  0  0  0  0  0  0  0  0  0  0
    3.6230   -8.0726    2.4737 H   0  0  0  0  0  0  0  0  0  0  0  0
    2.0401   -9.0352    3.6872 H   0  0  0  0  0  0  0  0  0  0  0  0
    0.1324   -8.1207    1.7952 H   0  0  0  0  0  0  0  0  0  0  0  0
   -1.0598  -10.2567    2.1138 H   0  0  0  0  0  0  0  0  0  0  0  0
   -0.1907  -10.5600    3.6304 H   0  0  0  0  0  0  0  0  0  0  0  0
    0.6783  -10.5294    2.0852 H   0  0  0  0  0  0  0  0  0  0  0  0
    0.6913   -8.8692    5.5284 H   0  0  0  0  0  0  0  0  0  0  0  0
    0.8386   -6.6394    6.7141 H   0  0  0  0  0  0  0  0  0  0  0  0
    2.2252   -8.4315    6.8584 H   0  0  0  0  0  0  0  0  0  0  0  0
    1.4598   -4.6607    7.7381 H   0  0  0  0  0  0  0  0  0  0  0  0
    2.7683   -5.7622    8.0568 H   0  0  0  0  0  0  0  0  0  0  0  0
    2.5949   -3.7460    9.5293 H   0  0  0  0  0  0  0  0  0  0  0  0
    2.1366   -2.0672    7.5924 H   0  0  0  0  0  0  0  0  0  0  0  0
    3.1057   -1.5820    8.9331 H   0  0  0  0  0  0  0  0  0  0  0  0
    5.0724   -1.4018    7.7748 H   0  0  0  0  0  0  0  0  0  0  0  0
    5.7310   -2.9324    5.9622 H   0  0  0  0  0  0  0  0  0  0  0  0
    5.5774   -5.0963    7.3001 H   0  0  0  0  0  0  0  0  0  0  0  0
    6.4570   -3.7378    7.9505 H   0  0  0  0  0  0  0  0  0  0  0  0
    4.5992   -5.1433    9.3364 H   0  0  0  0  0  0  0  0  0  0  0  0
    5.2969   -2.2373    9.9067 H   0  0  0  0  0  0  0  0  0  0  0  0
    6.1844   -3.6615   10.4238 H   0  0  0  0  0  0  0  0  0  0  0  0
    4.5683   -3.3730   11.0281 H   0  0  0  0  0  0  0  0  0  0  0  0
  1  2  1  0
  1 38  1  0
  1 39  1  0
  1 40  1  0
  3  2  1  1
  3 11  1  0
  3 33  1  0
  3  4  1  0
  4  5  1  0
  4 41  1  0
  4 42  1  0
  5  6  1  0
  5 43  1  0
  5 44  1  0
  6  7  1  6
  6  8  1  0
  6 11  1  0
  7 45  1  0
  8  9  1  0
  8 10  1  0
  8 46  1  0
  9 47  1  0
  9 48  1  0
  9 49  1  0
 10 50  1  0
 10 51  1  0
 10 52  1  0
 11 12  1  1
 11 13  1  0
 12 53  1  0
 12 54  1  0
 12 55  1  0
 13 14  1  0
 13 56  1  0
 13 57  1  0
 14 34  1  0
 14 15  2  0
 15 16  1  0
 15 30  1  0
 16 28  1  0
 16 17  1  6
 16 18  1  0
 17 58  1  0
 17 59  1  0
 17 60  1  0
 18 19  1  0
 18 61  1  0
 18 62  1  0
 19 20  1  0
 19 21  1  0
 19 63  1  6
 20 64  1  0
 21 27  1  0
 21 22  1  0
 21 65  1  1
 22 23  1  0
 22 24  1  0
 22 66  1  6
 23 67  1  0
 23 68  1  0
 23 69  1  0
 24 25  2  0
 24 26  1  0
 26 27  1  0
 27 28  1  0
 27 70  1  1
 28 29  1  0
 28 71  1  1
 29 72  1  0
 30 31  1  0
 30 73  1  0
 30 74  1  0
 31 36  1  0
 31 32  1  0
 31 75  1  1
 32 33  1  0
 32 76  1  0
 32 77  1  0
 33 34  1  0
 33 78  1  1
 34 35  1  0
 34 79  1  6
 35 36  1  0
 35 80  1  0
 35 81  1  0
 36 37  1  0
 36 82  1  1
 37 83  1  0
 37 84  1  0
 37 85  1  0
M  END
>  <i_m_ct_stereo_status>  (389) 
1

>  <s_m_source_file>  (389) 
/var/tmp/pbs.5076255.sched01/tmp7b2cfgi2/13234zcpj2x.sdf

>  <i_m_source_file_index>  (389) 
37

>  <i_lp_mmshare_version>  (389) 
48012

>  <i_f3d_flags>  (389) 
0

>  <s_epik_input>  (389) 
W0NIM11PW0NAQF0xMltDQEBdKFtDSDNdKShbQ0BAXShbT0hdKShbQ0gyXVtDSDJdMSlbQ0hdKFtDSDNdKVtDSDNdKVtDSDJdQz0zW0NASF00W0NAQEhdMltDSDJdW0NASF0oW0NAQEhdKFtDSDJdNClbQ0gzXSlbQ0gyXUMzW0NAQF0oW0NIM10pKFtDSDJdW0NASF01W09IXSlbQ0BIXShbT0hdKVtDQEhdKFtDQEhdNTYpT0MoPU8pW0NAQEhdNltDSDNd

>  <s_epik_cmdline>  (389) 
J2VwaWtfcHl0aG9uJywgJy1waHQnLCAnMi4wJywgJy1waCcsICc3LjAnLCAnLXRuJywgJzgnLCAnLW1hJywgJzIwMCcsICctaW1hZScsICc8aW5maWxlLm1hZT4nLCAnLW9tYWUnLCAnPG91dGZpbGUubWFlPic=

>  <r_lp_tautomer_probability>  (389) 
1

>  <r_epik_Ionization_Penalty>  (389) 
1.60013e-06

>  <r_epik_Ionization_Penalty_Charging>  (389) 
0

>  <r_epik_Ionization_Penalty_Neutral>  (389) 
1.60013e-06

>  <r_epik_State_Penalty>  (389) 
-0

>  <r_epik_Charging_Adjusted_Penalty>  (389) 
0

>  <i_epik_Tot_Q>  (389) 
0

>  <i_epik_Tot_abs_Q>  (389) 
0

>  <s_epik_Chemistry_Notes>  (389) 
This compound has an ester and may undergo hydrolysis at high or low pH.

>  <s_lp_Force_Field>  (389) 
OPLS3e

>  <r_lp_Energy>  (389) 
80.5867

>  <b_lp_Chiralities_Consistent>  (389) 
1

>  <s_lp_Variant>  (389) 
111:0-1

>  <s_i_glide_gridfile>  (389) 
pfpi4k_grid

>  <i_i_glide_lignum>  (389) 
37

>  <i_i_glide_rotatable_bonds>  (389) 
6

>  <r_i_docking_score>  (389) 
-1.79575

>  <r_i_glide_ligand_efficiency>  (389) 
-0.0485339

>  <r_i_glide_ligand_efficiency_sa>  (389) 
-0.161726

>  <r_i_glide_ligand_efficiency_ln>  (389) 
-0.389457

>  <r_i_glide_gscore>  (389) 
-1.79575

>  <r_i_glide_lipo>  (389) 
-0.325965

>  <r_i_glide_hbond>  (389) 
0

>  <r_i_glide_metal>  (389) 
-0

>  <r_i_glide_rewards>  (389) 
0

>  <r_i_glide_evdw>  (389) 
-23.1389

>  <r_i_glide_ecoul>  (389) 
-2.15983

>  <r_i_glide_erotb>  (389) 
0.0768846

>  <r_i_glide_esite>  (389) 
-0.0657557

>  <r_i_glide_emodel>  (389) 
-27.2004

>  <r_i_glide_energy>  (389) 
-25.2987

>  <r_i_glide_einternal>  (389) 
1.70149

>  <r_i_glide_intrahb_reward>  (389) 
-0

>  <i_i_glide_confnum>  (389) 
3

>  <i_i_glide_posenum>  (389) 
32

>  <r_i_glide_eff_state_penalty>  (389) 
0

>  <ligand_id>  (389) 
111

>  <original_smiles>  (389) 
COC12CCC(O)(C(C)C)C1(C)CC1=C(C3(C)CC(O)C4C(C)C(=O)OC4C3O)CC3CC2C1CC3C

>  <smiles>  (389) 
[H]OC1([H])C([H])([H])C(C2=C3C([H])([H])C4(C([H])([H])[H])C(O[H])(C([H])(C([H])([H])[H])C([H])([H])[H])C([H])([H])C([H])([H])C4(OC([H])([H])[H])C4([H])C([H])([H])C([H])(C2([H])[H])C([H])(C([H])([H])[H])C([H])([H])C34[H])(C([H])([H])[H])C([H])(O[H])C2([H])OC(=O)C([H])(C([H])([H])[H])C12[H]

$$$$
114:0:0
     RDKit          3D

 60 66  0  0  1  0  0  0  0  0999 V2000
    6.9566   -8.6529    2.0447 C   0  0  0  0  0  0  0  0  0  0  0  0
    6.0070   -8.3980    3.2343 C   0  0  2  0  0  0  0  0  0  0  0  0
    4.6401   -9.0207    3.0134 C   0  0  0  0  0  0  0  0  0  0  0  0
    4.4605  -10.2081    2.7487 O   0  0  0  0  0  0  0  0  0  0  0  0
    3.5313   -7.9953    3.1497 C   0  0  2  0  0  0  0  0  0  0  0  0
    3.1234   -7.5016    1.7452 C   0  0  0  0  0  0  0  0  0  0  0  0
    2.3152   -6.1847    1.7584 C   0  0  1  0  0  0  0  0  0  0  0  0
    1.9759   -5.8470    0.2899 C   0  0  0  0  0  0  0  0  0  0  0  0
    1.0199   -6.4801    2.5604 C   0  0  0  0  0  0  0  0  0  0  0  0
   -0.0955   -7.1085    1.9471 C   0  0  0  0  0  0  0  0  0  0  0  0
   -1.2290   -7.4690    2.6956 C   0  0  0  0  0  0  0  0  0  0  0  0
   -1.2728   -7.2197    4.0740 C   0  0  0  0  0  0  0  0  0  0  0  0
   -0.1828   -6.5968    4.7052 C   0  0  0  0  0  0  0  0  0  0  0  0
    0.9526   -6.2262    3.9539 C   0  0  0  0  0  0  0  0  0  0  0  0
    2.0923   -5.5456    4.6869 C   0  0  0  0  0  0  0  0  0  0  0  0
    3.4343   -5.5192    3.8995 C   0  0  2  0  0  0  0  0  0  0  0  0
    3.1720   -5.0175    2.4226 C   0  0  2  0  0  0  0  0  0  0  0  0
    2.3123   -3.7069    2.4749 C   0  0  0  0  0  0  0  0  0  0  0  0
    4.5266   -4.6713    1.6289 C   0  0  1  0  0  0  0  0  0  0  0  0
    4.4954   -3.4777    0.6766 C   0  0  0  0  0  0  0  0  0  0  0  0
    4.6072   -2.0867    0.9837 C   0  0  0  0  0  0  0  0  0  0  0  0
    4.5426   -1.4109   -0.2028 C   0  0  0  0  0  0  0  0  0  0  0  0
    4.4290   -2.2741   -1.2405 O   0  0  0  0  0  0  0  0  0  0  0  0
    4.3973   -3.5161   -0.6927 C   0  0  0  0  0  0  0  0  0  0  0  0
    5.7779   -4.4944    2.5188 C   0  0  0  0  0  0  0  0  0  0  0  0
    6.4136   -5.8093    2.8558 C   0  0  1  0  0  0  0  0  0  0  0  0
    6.5845   -6.1158    4.2397 O   0  0  0  0  0  0  0  0  0  0  0  0
    5.6512   -6.9346    3.5141 C   0  0  2  0  0  0  0  0  0  0  0  0
    4.1973   -6.9017    4.0107 C   0  0  2  0  0  0  0  0  0  0  0  0
    4.2396   -7.3666    5.4983 C   0  0  0  0  0  0  0  0  0  0  0  0
    7.0438   -9.7256    1.8582 H   0  0  0  0  0  0  0  0  0  0  0  0
    7.9644   -8.2670    2.2198 H   0  0  0  0  0  0  0  0  0  0  0  0
    6.5732   -8.2072    1.1281 H   0  0  0  0  0  0  0  0  0  0  0  0
    6.4336   -8.8432    4.1309 H   0  0  0  0  0  0  0  0  0  0  0  0
    2.6782   -8.4445    3.6574 H   0  0  0  0  0  0  0  0  0  0  0  0
    3.9974   -7.4233    1.0998 H   0  0  0  0  0  0  0  0  0  0  0  0
    2.5232   -8.2788    1.2708 H   0  0  0  0  0  0  0  0  0  0  0  0
    2.8693   -5.6641   -0.2993 H   0  0  0  0  0  0  0  0  0  0  0  0
    1.3785   -4.9573    0.1955 H   0  0  0  0  0  0  0  0  0  0  0  0
    1.4362   -6.6463   -0.2093 H   0  0  0  0  0  0  0  0  0  0  0  0
   -0.1028   -7.3714    0.9067 H   0  0  0  0  0  0  0  0  0  0  0  0
   -2.0586   -7.9570    2.2077 H   0  0  0  0  0  0  0  0  0  0  0  0
   -2.1328   -7.5246    4.6488 H   0  0  0  0  0  0  0  0  0  0  0  0
   -0.2129   -6.4170    5.7699 H   0  0  0  0  0  0  0  0  0  0  0  0
    1.7833   -4.5199    4.8866 H   0  0  0  0  0  0  0  0  0  0  0  0
    2.1911   -5.9528    5.6895 H   0  0  0  0  0  0  0  0  0  0  0  0
    4.0373   -4.7940    4.4432 H   0  0  0  0  0  0  0  0  0  0  0  0
    2.7877   -2.9365    3.0854 H   0  0  0  0  0  0  0  0  0  0  0  0
    1.3102   -3.8516    2.8736 H   0  0  0  0  0  0  0  0  0  0  0  0
    2.1301   -3.2779    1.4896 H   0  0  0  0  0  0  0  0  0  0  0  0
    4.7835   -5.4852    0.9584 H   0  0  0  0  0  0  0  0  0  0  0  0
    4.7175   -1.6209    1.9536 H   0  0  0  0  0  0  0  0  0  0  0  0
    4.5725   -0.3694   -0.4800 H   0  0  0  0  0  0  0  0  0  0  0  0
    4.3160   -4.3088   -1.4203 H   0  0  0  0  0  0  0  0  0  0  0  0
    6.5455   -3.9571    1.9583 H   0  0  0  0  0  0  0  0  0  0  0  0
    5.6175   -3.8811    3.4073 H   0  0  0  0  0  0  0  0  0  0  0  0
    7.2921   -6.0389    2.2574 H   0  0  0  0  0  0  0  0  0  0  0  0
    4.4995   -6.5371    6.1598 H   0  0  0  0  0  0  0  0  0  0  0  0
    4.9710   -8.1566    5.6887 H   0  0  0  0  0  0  0  0  0  0  0  0
    3.2776   -7.7769    5.8178 H   0  0  0  0  0  0  0  0  0  0  0  0
  1  2  1  0
  1 31  1  0
  1 32  1  0
  1 33  1  0
  2 28  1  0
  2  3  1  0
  2 34  1  1
  3  4  2  0
  3  5  1  0
  5 29  1  0
  5  6  1  0
  5 35  1  1
  6  7  1  0
  6 36  1  0
  6 37  1  0
  7 17  1  0
  7  8  1  6
  7  9  1  0
  8 38  1  0
  8 39  1  0
  8 40  1  0
  9 14  2  0
  9 10  1  0
 10 11  2  0
 10 41  1  0
 11 12  1  0
 11 42  1  0
 12 13  2  0
 12 43  1  0
 13 14  1  0
 13 44  1  0
 14 15  1  0
 15 16  1  0
 15 45  1  0
 15 46  1  0
 16 29  1  0
 16 17  1  0
 16 47  1  1
 17 18  1  1
 17 19  1  0
 18 48  1  0
 18 49  1  0
 18 50  1  0
 19 20  1  0
 19 25  1  0
 19 51  1  6
 20 24  2  0
 20 21  1  0
 21 22  2  0
 21 52  1  0
 22 23  1  0
 22 53  1  0
 23 24  1  0
 24 54  1  0
 25 26  1  0
 25 55  1  0
 25 56  1  0
 26 28  1  0
 26 27  1  0
 26 57  1  6
 28 27  1  1
 28 29  1  0
 29 30  1  1
 30 58  1  0
 30 59  1  0
 30 60  1  0
M  END
>  <i_m_ct_stereo_status>  (390) 
1

>  <s_m_source_file>  (390) 
/var/tmp/pbs.5076255.sched01/tmp7b2cfgi2/13234zcpj2x.sdf

>  <i_m_source_file_index>  (390) 
41

>  <i_lp_mmshare_version>  (390) 
48012

>  <i_f3d_flags>  (390) 
0

>  <s_epik_input>  (390) 
W0NIM11bQ0BASF0xQyg9TylbQ0BIXShbQ0gyXTIpW0NAXTMoW0NIM10pW0NAQEhdNFtDSDJdYyhbY0hdW2NIXVtjSF1bY0hdNSljNVtDQEBdMihbQ0gzXSlbQ0BdNChbQ0gzXSlbQ0BIXShbQ0gyXVtDQEBIXShPNilbQ0BdMTM2KWM3W2NIXVtjSF1vW2NIXTc=

>  <s_epik_cmdline>  (390) 
J2VwaWtfcHl0aG9uJywgJy1waHQnLCAnMi4wJywgJy1waCcsICc3LjAnLCAnLXRuJywgJzgnLCAnLW1hJywgJzIwMCcsICctaW1hZScsICc8aW5maWxlLm1hZT4nLCAnLW9tYWUnLCAnPG91dGZpbGUubWFlPic=

>  <r_lp_tautomer_probability>  (390) 
1

>  <r_epik_Ionization_Penalty>  (390) 
5.55531e-12

>  <r_epik_Ionization_Penalty_Charging>  (390) 
0

>  <r_epik_Ionization_Penalty_Neutral>  (390) 
5.55531e-12

>  <r_epik_State_Penalty>  (390) 
-0

>  <r_epik_Charging_Adjusted_Penalty>  (390) 
0

>  <i_epik_Tot_Q>  (390) 
0

>  <i_epik_Tot_abs_Q>  (390) 
0

>  <s_lp_Force_Field>  (390) 
OPLS3e

>  <r_lp_Energy>  (390) 
79.8396

>  <b_lp_Chiralities_Consistent>  (390) 
1

>  <s_lp_Variant>  (390) 
114:0-1

>  <s_i_glide_gridfile>  (390) 
pfpi4k_grid

>  <i_i_glide_lignum>  (390) 
41

>  <i_i_glide_rotatable_bonds>  (390) 
1

>  <r_i_docking_score>  (390) 
-2.1346

>  <r_i_glide_ligand_efficiency>  (390) 
-0.0711534

>  <r_i_glide_ligand_efficiency_sa>  (390) 
-0.22109

>  <r_i_glide_ligand_efficiency_ln>  (390) 
-0.485005

>  <r_i_glide_gscore>  (390) 
-2.1346

>  <r_i_glide_lipo>  (390) 
-0.255413

>  <r_i_glide_hbond>  (390) 
0

>  <r_i_glide_metal>  (390) 
-0

>  <r_i_glide_rewards>  (390) 
-0.6646

>  <r_i_glide_evdw>  (390) 
-26.2401

>  <r_i_glide_ecoul>  (390) 
-0.10036

>  <r_i_glide_erotb>  (390) 
0.12112

>  <r_i_glide_esite>  (390) 
-0.00865162

>  <r_i_glide_emodel>  (390) 
-29.4486

>  <r_i_glide_energy>  (390) 
-26.3404

>  <r_i_glide_einternal>  (390) 
0.0033819

>  <r_i_glide_intrahb_reward>  (390) 
-0

>  <i_i_glide_confnum>  (390) 
6

>  <i_i_glide_posenum>  (390) 
8

>  <r_i_glide_eff_state_penalty>  (390) 
0

>  <ligand_id>  (390) 
114

>  <original_smiles>  (390) 
CC1C(=O)C2CC3(C)c4ccccc4CC4C3(C)C(c3ccoc3)CC3OC31C24C

>  <smiles>  (390) 
[H]c1oc([H])c(C2([H])C([H])([H])C3([H])OC34C([H])(C([H])([H])[H])C(=O)C3([H])C([H])([H])C5(C([H])([H])[H])c6c([H])c([H])c([H])c([H])c6C([H])([H])C([H])(C34C([H])([H])[H])C25C([H])([H])[H])c1[H]

$$$$
114:0:1
     RDKit          3D

 60 66  0  0  1  0  0  0  0  0999 V2000
    7.2454   -8.1702    1.7846 C   0  0  0  0  0  0  0  0  0  0  0  0
    6.2782   -8.0392    2.9808 C   0  0  2  0  0  0  0  0  0  0  0  0
    4.9401   -8.7059    2.6957 C   0  0  0  0  0  0  0  0  0  0  0  0
    4.8176   -9.8730    2.3347 O   0  0  0  0  0  0  0  0  0  0  0  0
    3.7842   -7.7341    2.8824 C   0  0  2  0  0  0  0  0  0  0  0  0
    3.3641   -7.1660    1.5070 C   0  0  0  0  0  0  0  0  0  0  0  0
    2.4869   -5.8914    1.5981 C   0  0  1  0  0  0  0  0  0  0  0  0
    2.1416   -5.4608    0.1573 C   0  0  0  0  0  0  0  0  0  0  0  0
    1.2055   -6.3070    2.3690 C   0  0  0  0  0  0  0  0  0  0  0  0
    0.1362   -6.9579    1.7056 C   0  0  0  0  0  0  0  0  0  0  0  0
   -0.9844   -7.4163    2.4163 C   0  0  0  0  0  0  0  0  0  0  0  0
   -1.0564   -7.2443    3.8022 C   0  0  0  0  0  0  0  0  0  0  0  0
   -0.0094   -6.6073    4.4838 C   0  0  0  0  0  0  0  0  0  0  0  0
    1.1155   -6.1411    3.7737 C   0  0  0  0  0  0  0  0  0  0  0  0
    2.2138   -5.4477    4.5596 C   0  0  0  0  0  0  0  0  0  0  0  0
    3.5591   -5.3155    3.7870 C   0  0  2  0  0  0  0  0  0  0  0  0
    3.2781   -4.7313    2.3378 C   0  0  2  0  0  0  0  0  0  0  0  0
    2.3611   -3.4650    2.4650 C   0  0  0  0  0  0  0  0  0  0  0  0
    4.6156   -4.2701    1.5722 C   0  0  1  0  0  0  0  0  0  0  0  0
    4.5247   -3.0114    0.6995 C   0  0  0  0  0  0  0  0  0  0  0  0
    4.2279   -2.9370   -0.6954 C   0  0  0  0  0  0  0  0  0  0  0  0
    4.2344   -1.6147   -1.0390 C   0  0  0  0  0  0  0  0  0  0  0  0
    4.5831   -0.8467    0.0255 O   0  0  0  0  0  0  0  0  0  0  0  0
    4.7539   -1.7038    1.0673 C   0  0  0  0  0  0  0  0  0  0  0  0
    5.8455   -4.1215    2.4889 C   0  0  0  0  0  0  0  0  0  0  0  0
    6.5465   -5.4285    2.7561 C   0  0  1  0  0  0  0  0  0  0  0  0
    6.7317   -5.8006    4.1158 O   0  0  0  0  0  0  0  0  0  0  0  0
    5.8434   -6.6164    3.3508 C   0  0  2  0  0  0  0  0  0  0  0  0
    4.3831   -6.6707    3.8283 C   0  0  2  0  0  0  0  0  0  0  0  0
    4.4324   -7.2225    5.2836 C   0  0  0  0  0  0  0  0  0  0  0  0
    7.3958   -9.2214    1.5326 H   0  0  0  0  0  0  0  0  0  0  0  0
    8.2322   -7.7572    2.0005 H   0  0  0  0  0  0  0  0  0  0  0  0
    6.8543   -7.6840    0.8902 H   0  0  0  0  0  0  0  0  0  0  0  0
    6.7140   -8.5194    3.8541 H   0  0  0  0  0  0  0  0  0  0  0  0
    2.9438   -8.2494    3.3517 H   0  0  0  0  0  0  0  0  0  0  0  0
    4.2412   -6.9986    0.8854 H   0  0  0  0  0  0  0  0  0  0  0  0
    2.8159   -7.9432    0.9776 H   0  0  0  0  0  0  0  0  0  0  0  0
    3.0525   -5.2373   -0.3821 H   0  0  0  0  0  0  0  0  0  0  0  0
    1.4530   -4.6234    0.1000 H   0  0  0  0  0  0  0  0  0  0  0  0
    1.6664   -6.2496   -0.4199 H   0  0  0  0  0  0  0  0  0  0  0  0
    0.1541   -7.1402    0.6465 H   0  0  0  0  0  0  0  0  0  0  0  0
   -1.7814   -7.9155    1.8834 H   0  0  0  0  0  0  0  0  0  0  0  0
   -1.9131   -7.6148    4.3448 H   0  0  0  0  0  0  0  0  0  0  0  0
   -0.0619   -6.4867    5.5568 H   0  0  0  0  0  0  0  0  0  0  0  0
    1.8549   -4.4510    4.8133 H   0  0  0  0  0  0  0  0  0  0  0  0
    2.3232   -5.9091    5.5375 H   0  0  0  0  0  0  0  0  0  0  0  0
    4.1220   -4.5973    4.3826 H   0  0  0  0  0  0  0  0  0  0  0  0
    2.8017   -2.7137    3.1230 H   0  0  0  0  0  0  0  0  0  0  0  0
    1.3634   -3.6800    2.8403 H   0  0  0  0  0  0  0  0  0  0  0  0
    2.1663   -2.9842    1.5087 H   0  0  0  0  0  0  0  0  0  0  0  0
    4.9119   -5.0224    0.8515 H   0  0  0  0  0  0  0  0  0  0  0  0
    4.0150   -3.7359   -1.3938 H   0  0  0  0  0  0  0  0  0  0  0  0
    4.0355   -1.0942   -1.9612 H   0  0  0  0  0  0  0  0  0  0  0  0
    5.0517   -1.2224    1.9862 H   0  0  0  0  0  0  0  0  0  0  0  0
    6.5969   -3.5229    1.9747 H   0  0  0  0  0  0  0  0  0  0  0  0
    5.6600   -3.5702    3.4132 H   0  0  0  0  0  0  0  0  0  0  0  0
    7.4483   -5.5699    2.1641 H   0  0  0  0  0  0  0  0  0  0  0  0
    4.6466   -6.4225    5.9945 H   0  0  0  0  0  0  0  0  0  0  0  0
    5.1980   -7.9867    5.4361 H   0  0  0  0  0  0  0  0  0  0  0  0
    3.4889   -7.6938    5.5657 H   0  0  0  0  0  0  0  0  0  0  0  0
  1  2  1  0
  1 31  1  0
  1 32  1  0
  1 33  1  0
  2 28  1  0
  2  3  1  0
  2 34  1  1
  3  4  2  0
  3  5  1  0
  5 29  1  0
  5  6  1  0
  5 35  1  1
  6  7  1  0
  6 36  1  0
  6 37  1  0
  7 17  1  0
  7  8  1  6
  7  9  1  0
  8 38  1  0
  8 39  1  0
  8 40  1  0
  9 14  2  0
  9 10  1  0
 10 11  2  0
 10 41  1  0
 11 12  1  0
 11 42  1  0
 12 13  2  0
 12 43  1  0
 13 14  1  0
 13 44  1  0
 14 15  1  0
 15 16  1  0
 15 45  1  0
 15 46  1  0
 16 29  1  0
 16 17  1  0
 16 47  1  1
 17 18  1  1
 17 19  1  0
 18 48  1  0
 18 49  1  0
 18 50  1  0
 19 20  1  0
 19 25  1  0
 19 51  1  6
 20 24  2  0
 20 21  1  0
 21 22  2  0
 21 52  1  0
 22 23  1  0
 22 53  1  0
 23 24  1  0
 24 54  1  0
 25 26  1  0
 25 55  1  0
 25 56  1  0
 26 28  1  0
 26 27  1  0
 26 57  1  6
 28 27  1  1
 28 29  1  0
 29 30  1  1
 30 58  1  0
 30 59  1  0
 30 60  1  0
M  END
>  <i_m_ct_stereo_status>  (391) 
1

>  <s_m_source_file>  (391) 
/var/tmp/pbs.5076255.sched01/tmp7b2cfgi2/13234zcpj2x.sdf

>  <i_m_source_file_index>  (391) 
41

>  <i_lp_mmshare_version>  (391) 
48012

>  <i_f3d_flags>  (391) 
0

>  <s_epik_input>  (391) 
W0NIM11bQ0BASF0xQyg9TylbQ0BIXShbQ0gyXTIpW0NAXTMoW0NIM10pW0NAQEhdNFtDSDJdYyhbY0hdW2NIXVtjSF1bY0hdNSljNVtDQEBdMihbQ0gzXSlbQ0BdNChbQ0gzXSlbQ0BIXShbQ0gyXVtDQEBIXShPNilbQ0BdMTM2KWM3W2NIXVtjSF1vW2NIXTc=

>  <s_epik_cmdline>  (391) 
J2VwaWtfcHl0aG9uJywgJy1waHQnLCAnMi4wJywgJy1waCcsICc3LjAnLCAnLXRuJywgJzgnLCAnLW1hJywgJzIwMCcsICctaW1hZScsICc8aW5maWxlLm1hZT4nLCAnLW9tYWUnLCAnPG91dGZpbGUubWFlPic=

>  <r_lp_tautomer_probability>  (391) 
1

>  <r_epik_Ionization_Penalty>  (391) 
5.55531e-12

>  <r_epik_Ionization_Penalty_Charging>  (391) 
0

>  <r_epik_Ionization_Penalty_Neutral>  (391) 
5.55531e-12

>  <r_epik_State_Penalty>  (391) 
-0

>  <r_epik_Charging_Adjusted_Penalty>  (391) 
0

>  <i_epik_Tot_Q>  (391) 
0

>  <i_epik_Tot_abs_Q>  (391) 
0

>  <s_lp_Force_Field>  (391) 
OPLS3e

>  <r_lp_Energy>  (391) 
79.8396

>  <b_lp_Chiralities_Consistent>  (391) 
1

>  <s_lp_Variant>  (391) 
114:0-1

>  <s_i_glide_gridfile>  (391) 
pfpi4k_grid

>  <i_i_glide_lignum>  (391) 
41

>  <i_i_glide_rotatable_bonds>  (391) 
1

>  <r_i_docking_score>  (391) 
-2.07747

>  <r_i_glide_ligand_efficiency>  (391) 
-0.0692489

>  <r_i_glide_ligand_efficiency_sa>  (391) 
-0.215172

>  <r_i_glide_ligand_efficiency_ln>  (391) 
-0.472023

>  <r_i_glide_gscore>  (391) 
-2.07747

>  <r_i_glide_lipo>  (391) 
-0.281183

>  <r_i_glide_hbond>  (391) 
0

>  <r_i_glide_metal>  (391) 
-0

>  <r_i_glide_rewards>  (391) 
-0.6646

>  <r_i_glide_evdw>  (391) 
-25.6168

>  <r_i_glide_ecoul>  (391) 
0.230056

>  <r_i_glide_erotb>  (391) 
0.12112

>  <r_i_glide_esite>  (391) 
-0.00647118

>  <r_i_glide_emodel>  (391) 
-28.1424

>  <r_i_glide_energy>  (391) 
-25.3868

>  <r_i_glide_einternal>  (391) 
0.0870247

>  <r_i_glide_intrahb_reward>  (391) 
-0

>  <i_i_glide_confnum>  (391) 
1

>  <i_i_glide_posenum>  (391) 
19

>  <r_i_glide_eff_state_penalty>  (391) 
0

>  <ligand_id>  (391) 
114

>  <original_smiles>  (391) 
CC1C(=O)C2CC3(C)c4ccccc4CC4C3(C)C(c3ccoc3)CC3OC31C24C

>  <smiles>  (391) 
[H]c1oc([H])c(C2([H])C([H])([H])C3([H])OC34C([H])(C([H])([H])[H])C(=O)C3([H])C([H])([H])C5(C([H])([H])[H])c6c([H])c([H])c([H])c([H])c6C([H])([H])C([H])(C34C([H])([H])[H])C25C([H])([H])[H])c1[H]

$$$$
114:0:2
     RDKit          3D

 60 66  0  0  1  0  0  0  0  0999 V2000
    7.1111   -7.4541    4.4969 C   0  0  0  0  0  0  0  0  0  0  0  0
    5.7634   -7.5006    5.2508 C   0  0  2  0  0  0  0  0  0  0  0  0
    4.7343   -8.3345    4.5040 C   0  0  0  0  0  0  0  0  0  0  0  0
    4.9225   -9.4925    4.1358 O   0  0  0  0  0  0  0  0  0  0  0  0
    3.4592   -7.5474    4.2453 C   0  0  2  0  0  0  0  0  0  0  0  0
    3.4943   -6.9861    2.8038 C   0  0  0  0  0  0  0  0  0  0  0  0
    2.4739   -5.8456    2.5490 C   0  0  1  0  0  0  0  0  0  0  0  0
    2.6171   -5.4136    1.0638 C   0  0  0  0  0  0  0  0  0  0  0  0
    1.0699   -6.4631    2.8014 C   0  0  0  0  0  0  0  0  0  0  0  0
    0.4109   -7.2158    1.7962 C   0  0  0  0  0  0  0  0  0  0  0  0
   -0.8133   -7.8598    2.0571 C   0  0  0  0  0  0  0  0  0  0  0  0
   -1.4068   -7.7726    3.3219 C   0  0  0  0  0  0  0  0  0  0  0  0
   -0.7747   -7.0286    4.3276 C   0  0  0  0  0  0  0  0  0  0  0  0
    0.4504   -6.3777    4.0756 C   0  0  0  0  0  0  0  0  0  0  0  0
    1.0743   -5.5776    5.2016 C   0  0  0  0  0  0  0  0  0  0  0  0
    2.5723   -5.2241    4.9771 C   0  0  2  0  0  0  0  0  0  0  0  0
    2.7641   -4.6224    3.5245 C   0  0  2  0  0  0  0  0  0  0  0  0
    1.6823   -3.5117    3.2819 C   0  0  0  0  0  0  0  0  0  0  0  0
    4.2116   -3.9512    3.3203 C   0  0  1  0  0  0  0  0  0  0  0  0
    4.2776   -2.6957    2.4511 C   0  0  0  0  0  0  0  0  0  0  0  0
    3.9113   -1.3572    2.7916 C   0  0  0  0  0  0  0  0  0  0  0  0
    4.1664   -0.5819    1.6959 C   0  0  0  0  0  0  0  0  0  0  0  0
    4.6993   -1.3268    0.6965 O   0  0  0  0  0  0  0  0  0  0  0  0
    4.7621   -2.5983    1.1710 C   0  0  0  0  0  0  0  0  0  0  0  0
    4.9882   -3.6431    4.6247 C   0  0  0  0  0  0  0  0  0  0  0  0
    5.7182   -4.8514    5.1413 C   0  0  1  0  0  0  0  0  0  0  0  0
    5.4359   -5.2726    6.4729 O   0  0  0  0  0  0  0  0  0  0  0  0
    5.0254   -6.1643    5.4217 C   0  0  2  0  0  0  0  0  0  0  0  0
    3.5157   -6.4486    5.3309 C   0  0  2  0  0  0  0  0  0  0  0  0
    3.1083   -7.0509    6.7105 C   0  0  0  0  0  0  0  0  0  0  0  0
    7.5013   -8.4614    4.3344 H   0  0  0  0  0  0  0  0  0  0  0  0
    7.8753   -6.9059    5.0496 H   0  0  0  0  0  0  0  0  0  0  0  0
    7.0008   -6.9944    3.5148 H   0  0  0  0  0  0  0  0  0  0  0  0
    5.9189   -7.9521    6.2295 H   0  0  0  0  0  0  0  0  0  0  0  0
    2.5907   -8.1924    4.3809 H   0  0  0  0  0  0  0  0  0  0  0  0
    4.5049   -6.6773    2.5407 H   0  0  0  0  0  0  0  0  0  0  0  0
    3.2912   -7.8057    2.1145 H   0  0  0  0  0  0  0  0  0  0  0  0
    3.5804   -4.9554    0.8617 H   0  0  0  0  0  0  0  0  0  0  0  0
    1.8440   -4.7096    0.7607 H   0  0  0  0  0  0  0  0  0  0  0  0
    2.5742   -6.2577    0.3795 H   0  0  0  0  0  0  0  0  0  0  0  0
    0.8383   -7.3532    0.8180 H   0  0  0  0  0  0  0  0  0  0  0  0
   -1.2899   -8.4414    1.2812 H   0  0  0  0  0  0  0  0  0  0  0  0
   -2.3339   -8.2903    3.5241 H   0  0  0  0  0  0  0  0  0  0  0  0
   -1.2353   -6.9673    5.2969 H   0  0  0  0  0  0  0  0  0  0  0  0
    0.5006   -4.6580    5.2975 H   0  0  0  0  0  0  0  0  0  0  0  0
    0.8825   -6.0598    6.1554 H   0  0  0  0  0  0  0  0  0  0  0  0
    2.7656   -4.4579    5.7252 H   0  0  0  0  0  0  0  0  0  0  0  0
    1.7235   -2.7377    4.0484 H   0  0  0  0  0  0  0  0  0  0  0  0
    0.6594   -3.8804    3.2751 H   0  0  0  0  0  0  0  0  0  0  0  0
    1.7758   -3.0243    2.3122 H   0  0  0  0  0  0  0  0  0  0  0  0
    4.8533   -4.6363    2.7753 H   0  0  0  0  0  0  0  0  0  0  0  0
    3.4984   -1.0002    3.7233 H   0  0  0  0  0  0  0  0  0  0  0  0
    4.0433    0.4667    1.4715 H   0  0  0  0  0  0  0  0  0  0  0  0
    5.1832   -3.3051    0.4718 H   0  0  0  0  0  0  0  0  0  0  0  0
    5.7743   -2.9174    4.4105 H   0  0  0  0  0  0  0  0  0  0  0  0
    4.3887   -3.1659    5.4001 H   0  0  0  0  0  0  0  0  0  0  0  0
    6.7802   -4.8617    4.9097 H   0  0  0  0  0  0  0  0  0  0  0  0
    2.9270   -6.2640    7.4445 H   0  0  0  0  0  0  0  0  0  0  0  0
    3.8671   -7.7059    7.1434 H   0  0  0  0  0  0  0  0  0  0  0  0
    2.2076   -7.6625    6.6353 H   0  0  0  0  0  0  0  0  0  0  0  0
  1  2  1  0
  1 31  1  0
  1 32  1  0
  1 33  1  0
  2 28  1  0
  2  3  1  0
  2 34  1  1
  3  4  2  0
  3  5  1  0
  5 29  1  0
  5  6  1  0
  5 35  1  6
  6  7  1  0
  6 36  1  0
  6 37  1  0
  7 17  1  0
  7  8  1  6
  7  9  1  0
  8 38  1  0
  8 39  1  0
  8 40  1  0
  9 14  2  0
  9 10  1  0
 10 11  2  0
 10 41  1  0
 11 12  1  0
 11 42  1  0
 12 13  2  0
 12 43  1  0
 13 14  1  0
 13 44  1  0
 14 15  1  0
 15 16  1  0
 15 45  1  0
 15 46  1  0
 16 29  1  0
 16 17  1  0
 16 47  1  1
 17 18  1  6
 17 19  1  0
 18 48  1  0
 18 49  1  0
 18 50  1  0
 19 20  1  0
 19 25  1  0
 19 51  1  6
 20 24  2  0
 20 21  1  0
 21 22  2  0
 21 52  1  0
 22 23  1  0
 22 53  1  0
 23 24  1  0
 24 54  1  0
 25 26  1  0
 25 55  1  0
 25 56  1  0
 26 28  1  0
 26 27  1  0
 26 57  1  1
 28 27  1  1
 28 29  1  0
 29 30  1  1
 30 58  1  0
 30 59  1  0
 30 60  1  0
M  END
>  <i_m_ct_stereo_status>  (392) 
1

>  <s_m_source_file>  (392) 
/var/tmp/pbs.5076255.sched01/tmp7b2cfgi2/13234zcpj2x.sdf

>  <i_m_source_file_index>  (392) 
41

>  <i_lp_mmshare_version>  (392) 
48012

>  <i_f3d_flags>  (392) 
0

>  <s_epik_input>  (392) 
W0NIM11bQ0BASF0xQyg9TylbQ0BIXShbQ0gyXTIpW0NAXTMoW0NIM10pW0NAQEhdNFtDSDJdYyhbY0hdW2NIXVtjSF1bY0hdNSljNVtDQEBdMihbQ0gzXSlbQ0BdNChbQ0gzXSlbQ0BIXShbQ0gyXVtDQEBIXShPNilbQ0BdMTM2KWM3W2NIXVtjSF1vW2NIXTc=

>  <s_epik_cmdline>  (392) 
J2VwaWtfcHl0aG9uJywgJy1waHQnLCAnMi4wJywgJy1waCcsICc3LjAnLCAnLXRuJywgJzgnLCAnLW1hJywgJzIwMCcsICctaW1hZScsICc8aW5maWxlLm1hZT4nLCAnLW9tYWUnLCAnPG91dGZpbGUubWFlPic=

>  <r_lp_tautomer_probability>  (392) 
1

>  <r_epik_Ionization_Penalty>  (392) 
5.55531e-12

>  <r_epik_Ionization_Penalty_Charging>  (392) 
0

>  <r_epik_Ionization_Penalty_Neutral>  (392) 
5.55531e-12

>  <r_epik_State_Penalty>  (392) 
-0

>  <r_epik_Charging_Adjusted_Penalty>  (392) 
0

>  <i_epik_Tot_Q>  (392) 
0

>  <i_epik_Tot_abs_Q>  (392) 
0

>  <s_lp_Force_Field>  (392) 
OPLS3e

>  <r_lp_Energy>  (392) 
79.8396

>  <b_lp_Chiralities_Consistent>  (392) 
1

>  <s_lp_Variant>  (392) 
114:0-1

>  <s_i_glide_gridfile>  (392) 
pfpi4k_grid

>  <i_i_glide_lignum>  (392) 
41

>  <i_i_glide_rotatable_bonds>  (392) 
1

>  <r_i_docking_score>  (392) 
-1.9437

>  <r_i_glide_ligand_efficiency>  (392) 
-0.0647899

>  <r_i_glide_ligand_efficiency_sa>  (392) 
-0.201317

>  <r_i_glide_ligand_efficiency_ln>  (392) 
-0.441629

>  <r_i_glide_gscore>  (392) 
-1.9437

>  <r_i_glide_lipo>  (392) 
-0.148742

>  <r_i_glide_hbond>  (392) 
0

>  <r_i_glide_metal>  (392) 
-0

>  <r_i_glide_rewards>  (392) 
-0.6646

>  <r_i_glide_evdw>  (392) 
-23.5639

>  <r_i_glide_ecoul>  (392) 
-0.488534

>  <r_i_glide_erotb>  (392) 
0.12112

>  <r_i_glide_esite>  (392) 
0

>  <r_i_glide_emodel>  (392) 
-26.9031

>  <r_i_glide_energy>  (392) 
-24.0524

>  <r_i_glide_einternal>  (392) 
0.0185148

>  <r_i_glide_intrahb_reward>  (392) 
-0

>  <i_i_glide_confnum>  (392) 
2

>  <i_i_glide_posenum>  (392) 
32

>  <r_i_glide_eff_state_penalty>  (392) 
0

>  <ligand_id>  (392) 
114

>  <original_smiles>  (392) 
CC1C(=O)C2CC3(C)c4ccccc4CC4C3(C)C(c3ccoc3)CC3OC31C24C

>  <smiles>  (392) 
[H]c1oc([H])c(C2([H])C([H])([H])C3([H])OC34C([H])(C([H])([H])[H])C(=O)C3([H])C([H])([H])C5(C([H])([H])[H])c6c([H])c([H])c([H])c([H])c6C([H])([H])C([H])(C34C([H])([H])[H])C25C([H])([H])[H])c1[H]

$$$$
