0:0:0
     RDKit          3D

 55 59  0  0  1  0  0  0  0  0999 V2000
    3.3459   -3.1914    4.3194 C   0  0  0  0  0  0  0  0  0  0  0  0
    3.1164   -2.9547    2.8294 C   0  0  0  0  0  0  0  0  0  0  0  0
    2.7522   -1.8384    2.4673 O   0  0  0  0  0  0  0  0  0  0  0  0
    3.3066   -4.1476    1.8428 C   0  0  1  0  0  0  0  0  0  0  0  0
    2.5085   -5.3768    2.3645 C   0  0  0  0  0  0  0  0  0  0  0  0
    1.8456   -5.9176    1.1398 C   0  0  0  0  0  0  0  0  0  0  0  0
    1.0036   -7.1657    1.2297 C   0  0  0  0  0  0  0  0  0  0  0  0
    2.0076   -5.1011    0.0915 C   0  0  0  0  0  0  0  0  0  0  0  0
    2.7009   -3.7992    0.4520 C   0  0  2  0  0  0  0  0  0  0  0  0
    3.8619   -3.2262   -0.4372 C   0  0  1  0  0  0  0  0  0  0  0  0
    3.9492   -3.7504   -1.8847 C   0  0  2  0  0  0  0  0  0  0  0  0
    4.8297   -2.7206   -2.4749 C   0  0  0  0  0  0  0  0  0  0  0  0
    5.9080   -2.8736   -3.0183 O   0  0  0  0  0  0  0  0  0  0  0  0
    4.0160   -1.5000   -2.2055 C   0  0  1  0  0  0  0  0  0  0  0  0
    4.6085   -0.2074   -2.7132 C   0  0  0  0  0  0  0  0  0  0  0  0
    2.7237   -1.8771   -2.9056 C   0  0  1  0  0  0  0  0  0  0  0  0
    2.7345   -1.4781   -4.2650 O   0  0  0  0  0  0  0  0  0  0  0  0
    2.6682   -3.3781   -2.6695 C   0  0  1  0  0  0  0  0  0  0  0  0
    2.6794   -3.9361   -3.9294 O   0  0  0  0  0  0  0  0  0  0  0  0
    3.8022   -1.6593   -0.6774 C   0  0  2  0  0  0  0  0  0  0  0  0
    4.8418   -0.9899    0.2118 C   0  0  0  0  0  0  0  0  0  0  0  0
    5.6734   -2.1261    0.7237 C   0  0  0  0  0  0  0  0  0  0  0  0
    6.7064   -1.9308    1.3276 O   0  0  0  0  0  0  0  0  0  0  0  0
    5.1661   -3.5085    0.3495 C   0  0  1  0  0  0  0  0  0  0  0  0
    4.8090   -4.4927    1.4927 C   0  0  0  0  0  0  0  0  0  0  0  0
    5.7730   -4.4843    2.7049 C   0  0  0  0  0  0  0  0  0  0  0  0
    5.0166   -5.9025    0.8687 C   0  0  0  0  0  0  0  0  0  0  0  0
    3.8515   -4.1392    4.4975 H   0  0  0  0  0  0  0  0  0  0  0  0
    2.3912   -3.2064    4.8519 H   0  0  0  0  0  0  0  0  0  0  0  0
    3.9638   -2.3849    4.7225 H   0  0  0  0  0  0  0  0  0  0  0  0
    3.1158   -6.1494    2.8350 H   0  0  0  0  0  0  0  0  0  0  0  0
    1.7252   -5.1028    3.0688 H   0  0  0  0  0  0  0  0  0  0  0  0
    1.6272   -8.0134    1.4970 H   0  0  0  0  0  0  0  0  0  0  0  0
    0.4903   -7.3987    0.2964 H   0  0  0  0  0  0  0  0  0  0  0  0
    0.2426   -7.0688    2.0041 H   0  0  0  0  0  0  0  0  0  0  0  0
    1.5642   -5.2909   -0.8591 H   0  0  0  0  0  0  0  0  0  0  0  0
    1.8870   -3.0733    0.5145 H   0  0  0  0  0  0  0  0  0  0  0  0
    4.4326   -4.7190   -2.0132 H   0  0  0  0  0  0  0  0  0  0  0  0
    4.0580    0.6552   -2.3860 H   0  0  0  0  0  0  0  0  0  0  0  0
    4.6277   -0.1320   -3.7884 H   0  0  0  0  0  0  0  0  0  0  0  0
    5.6143   -0.0817   -2.3346 H   0  0  0  0  0  0  0  0  0  0  0  0
    1.8600   -1.4493   -2.4182 H   0  0  0  0  0  0  0  0  0  0  0  0
    2.0497   -1.9570   -4.7272 H   0  0  0  0  0  0  0  0  0  0  0  0
    1.7598   -3.6774   -2.1851 H   0  0  0  0  0  0  0  0  0  0  0  0
    2.7127   -4.8619   -3.6987 H   0  0  0  0  0  0  0  0  0  0  0  0
    2.8443   -1.2386   -0.3794 H   0  0  0  0  0  0  0  0  0  0  0  0
    5.5086   -0.2888   -0.2823 H   0  0  0  0  0  0  0  0  0  0  0  0
    4.3929   -0.4570    1.0534 H   0  0  0  0  0  0  0  0  0  0  0  0
    5.9525   -3.9318   -0.2787 H   0  0  0  0  0  0  0  0  0  0  0  0
    6.7985   -4.6983    2.4008 H   0  0  0  0  0  0  0  0  0  0  0  0
    5.4948   -5.2539    3.4263 H   0  0  0  0  0  0  0  0  0  0  0  0
    5.7965   -3.5340    3.2373 H   0  0  0  0  0  0  0  0  0  0  0  0
    6.0557   -6.0394    0.5696 H   0  0  0  0  0  0  0  0  0  0  0  0
    4.4278   -6.0607   -0.0315 H   0  0  0  0  0  0  0  0  0  0  0  0
    4.7892   -6.7113    1.5632 H   0  0  0  0  0  0  0  0  0  0  0  0
  1  2  1  0
  1 28  1  0
  1 29  1  0
  1 30  1  0
  2  3  2  0
  4  2  1  1
  4  9  1  0
  4 25  1  0
  4  5  1  0
  5  6  1  0
  5 31  1  0
  5 32  1  0
  6  7  1  0
  6  8  2  0
  7 33  1  0
  7 34  1  0
  7 35  1  0
  8  9  1  0
  8 36  1  0
  9 10  1  0
  9 37  1  1
 10 20  1  0
 10 24  1  1
 10 11  1  0
 11 18  1  0
 11 12  1  0
 11 38  1  1
 12 13  2  0
 12 14  1  0
 14 15  1  1
 14 16  1  0
 14 20  1  0
 15 39  1  0
 15 40  1  0
 15 41  1  0
 16 17  1  0
 16 18  1  0
 16 42  1  1
 17 43  1  0
 18 19  1  0
 18 44  1  1
 19 45  1  0
 20 21  1  0
 20 46  1  1
 21 22  1  0
 21 47  1  0
 21 48  1  0
 22 23  2  0
 22 24  1  0
 24 25  1  0
 24 49  1  6
 25 26  1  0
 25 27  1  0
 26 50  1  0
 26 51  1  0
 26 52  1  0
 27 53  1  0
 27 54  1  0
 27 55  1  0
M  END
>  <i_m_ct_stereo_status>  (1) 
1

>  <s_m_source_file>  (1) 
/var/tmp/pbs.5076255.sched01/tmppz0entnt/04_lepiep.sdf

>  <i_m_source_file_index>  (1) 
1

>  <i_lp_mmshare_version>  (1) 
48012

>  <i_f3d_flags>  (1) 
0

>  <s_epik_input>  (1) 
W0NIM11DKD1bQ0hdMSlbQ0gyXVtDQEBdKFtDQEhdMVtDQEBdMjM0KShDKD1PKVtDSDNdKUMoW0NIM10pKFtDSDNdKVtDQEBIXTRDKD1PKVtDSDJdW0NASF0zW0NAQF01KFtDSDNdKUMoPU8pW0NAQEhdMltDQEhdKFtPSF0pW0NAQEhdNVtPSF0=

>  <s_epik_cmdline>  (1) 
J2VwaWtfcHl0aG9uJywgJy1waHQnLCAnMi4wJywgJy1waCcsICc3LjAnLCAnLXRuJywgJzgnLCAnLW1hJywgJzIwMCcsICctaW1hZScsICc8aW5maWxlLm1hZT4nLCAnLW9tYWUnLCAnPG91dGZpbGUubWFlPic=

>  <r_lp_tautomer_probability>  (1) 
1

>  <r_epik_Ionization_Penalty>  (1) 
8.68797e-08

>  <r_epik_Ionization_Penalty_Charging>  (1) 
0

>  <r_epik_Ionization_Penalty_Neutral>  (1) 
8.68797e-08

>  <r_epik_State_Penalty>  (1) 
-0

>  <r_epik_Charging_Adjusted_Penalty>  (1) 
0

>  <i_epik_Tot_Q>  (1) 
0

>  <i_epik_Tot_abs_Q>  (1) 
0

>  <s_lp_Force_Field>  (1) 
OPLS3e

>  <r_lp_Energy>  (1) 
21.8834

>  <b_lp_Chiralities_Consistent>  (1) 
1

>  <s_lp_Variant>  (1) 
0:0-1

>  <s_i_glide_gridfile>  (1) 
pfpi4k_grid

>  <i_i_glide_lignum>  (1) 
1

>  <i_i_glide_rotatable_bonds>  (1) 
3

>  <r_i_docking_score>  (1) 
-3.49317

>  <r_i_glide_ligand_efficiency>  (1) 
-0.129377

>  <r_i_glide_ligand_efficiency_sa>  (1) 
-0.38813

>  <r_i_glide_ligand_efficiency_ln>  (1) 
-0.813152

>  <r_i_glide_gscore>  (1) 
-3.49317

>  <r_i_glide_lipo>  (1) 
-0.360667

>  <r_i_glide_hbond>  (1) 
0

>  <r_i_glide_metal>  (1) 
-0

>  <r_i_glide_rewards>  (1) 
-1.12999

>  <r_i_glide_evdw>  (1) 
-9.5879

>  <r_i_glide_ecoul>  (1) 
-10.1541

>  <r_i_glide_erotb>  (1) 
0

>  <r_i_glide_esite>  (1) 
0

>  <r_i_glide_emodel>  (1) 
-25.4776

>  <r_i_glide_energy>  (1) 
-19.742

>  <r_i_glide_einternal>  (1) 
0.73549

>  <r_i_glide_intrahb_reward>  (1) 
-0

>  <i_i_glide_confnum>  (1) 
2

>  <i_i_glide_posenum>  (1) 
11

>  <r_i_glide_eff_state_penalty>  (1) 
0

>  <ligand_id>  (1) 
0

>  <original_smiles>  (1) 
CC(=O)C12CC(C)=CC1C13C4C(=O)C(C)(C(O)C4O)C1CC(=O)C3C2(C)C

>  <smiles>  (1) 
[H]OC1([H])C([H])(O[H])C2(C([H])([H])[H])C(=O)C1([H])C13C4([H])C([H])=C(C([H])([H])[H])C([H])([H])C4(C(=O)C([H])([H])[H])C(C([H])([H])[H])(C([H])([H])[H])C1([H])C(=O)C([H])([H])C23[H]

$$$$
0:0:1
     RDKit          3D

 55 59  0  0  1  0  0  0  0  0999 V2000
    1.6885   -2.3883    3.0259 C   0  0  0  0  0  0  0  0  0  0  0  0
    3.1197   -2.8765    2.8135 C   0  0  0  0  0  0  0  0  0  0  0  0
    4.0091   -2.2437    3.3760 O   0  0  0  0  0  0  0  0  0  0  0  0
    3.3484   -4.1074    1.8717 C   0  0  1  0  0  0  0  0  0  0  0  0
    2.5566   -5.3536    2.3849 C   0  0  0  0  0  0  0  0  0  0  0  0
    1.8772   -5.8917    1.1609 C   0  0  0  0  0  0  0  0  0  0  0  0
    1.0335   -7.1461    1.2510 C   0  0  0  0  0  0  0  0  0  0  0  0
    2.0383   -5.0826    0.1091 C   0  0  0  0  0  0  0  0  0  0  0  0
    2.7305   -3.7786    0.4768 C   0  0  2  0  0  0  0  0  0  0  0  0
    3.8766   -3.2294   -0.4392 C   0  0  1  0  0  0  0  0  0  0  0  0
    3.9557   -3.7487   -1.8857 C   0  0  2  0  0  0  0  0  0  0  0  0
    4.8303   -2.7254   -2.4758 C   0  0  0  0  0  0  0  0  0  0  0  0
    5.8936   -2.8918   -3.0471 O   0  0  0  0  0  0  0  0  0  0  0  0
    4.0260   -1.4956   -2.2047 C   0  0  1  0  0  0  0  0  0  0  0  0
    4.6095   -0.2050   -2.7187 C   0  0  0  0  0  0  0  0  0  0  0  0
    2.7277   -1.8650   -2.9085 C   0  0  1  0  0  0  0  0  0  0  0  0
    2.7759   -1.4564   -4.2741 O   0  0  0  0  0  0  0  0  0  0  0  0
    2.6730   -3.3667   -2.6860 C   0  0  1  0  0  0  0  0  0  0  0  0
    2.6773   -3.9315   -3.9444 O   0  0  0  0  0  0  0  0  0  0  0  0
    3.8093   -1.6564   -0.6684 C   0  0  2  0  0  0  0  0  0  0  0  0
    4.8693   -0.9988    0.2227 C   0  0  0  0  0  0  0  0  0  0  0  0
    5.7309   -2.1328    0.6909 C   0  0  0  0  0  0  0  0  0  0  0  0
    6.8114   -1.9438    1.2095 O   0  0  0  0  0  0  0  0  0  0  0  0
    5.1939   -3.5090    0.3375 C   0  0  1  0  0  0  0  0  0  0  0  0
    4.8430   -4.4790    1.4986 C   0  0  0  0  0  0  0  0  0  0  0  0
    5.8274   -4.5362    2.6877 C   0  0  0  0  0  0  0  0  0  0  0  0
    5.0259   -5.8932    0.8606 C   0  0  0  0  0  0  0  0  0  0  0  0
    0.9460   -3.0926    2.6417 H   0  0  0  0  0  0  0  0  0  0  0  0
    1.5652   -1.4212    2.5223 H   0  0  0  0  0  0  0  0  0  0  0  0
    1.5184   -2.2490    4.0969 H   0  0  0  0  0  0  0  0  0  0  0  0
    3.1698   -6.1281    2.8382 H   0  0  0  0  0  0  0  0  0  0  0  0
    1.7908   -5.1140    3.1146 H   0  0  0  0  0  0  0  0  0  0  0  0
    1.6526   -8.0033    1.5131 H   0  0  0  0  0  0  0  0  0  0  0  0
    0.5084   -7.3794    0.3229 H   0  0  0  0  0  0  0  0  0  0  0  0
    0.2766   -7.0450    2.0307 H   0  0  0  0  0  0  0  0  0  0  0  0
    1.5891   -5.2779   -0.8474 H   0  0  0  0  0  0  0  0  0  0  0  0
    1.9312   -3.0442    0.5328 H   0  0  0  0  0  0  0  0  0  0  0  0
    4.4269   -4.7178   -2.0211 H   0  0  0  0  0  0  0  0  0  0  0  0
    4.0628    0.6559   -2.3758 H   0  0  0  0  0  0  0  0  0  0  0  0
    4.6037   -0.1356   -3.7981 H   0  0  0  0  0  0  0  0  0  0  0  0
    5.6088   -0.0973   -2.3122 H   0  0  0  0  0  0  0  0  0  0  0  0
    1.8729   -1.4385   -2.4175 H   0  0  0  0  0  0  0  0  0  0  0  0
    2.3200   -0.6342   -4.3348 H   0  0  0  0  0  0  0  0  0  0  0  0
    1.7582   -3.6575   -2.1867 H   0  0  0  0  0  0  0  0  0  0  0  0
    2.6801   -4.8474   -3.7148 H   0  0  0  0  0  0  0  0  0  0  0  0
    2.8518   -1.2319   -0.3708 H   0  0  0  0  0  0  0  0  0  0  0  0
    5.5174   -0.2941   -0.2878 H   0  0  0  0  0  0  0  0  0  0  0  0
    4.4198   -0.4721    1.0636 H   0  0  0  0  0  0  0  0  0  0  0  0
    5.9618   -3.9450   -0.3013 H   0  0  0  0  0  0  0  0  0  0  0  0
    6.8245   -4.8202    2.3432 H   0  0  0  0  0  0  0  0  0  0  0  0
    5.5318   -5.2949    3.4130 H   0  0  0  0  0  0  0  0  0  0  0  0
    5.9512   -3.6093    3.2304 H   0  0  0  0  0  0  0  0  0  0  0  0
    6.0612   -6.0426    0.5489 H   0  0  0  0  0  0  0  0  0  0  0  0
    4.4342   -6.0580   -0.0396 H   0  0  0  0  0  0  0  0  0  0  0  0
    4.8098   -6.7073    1.5521 H   0  0  0  0  0  0  0  0  0  0  0  0
  1  2  1  0
  1 28  1  0
  1 29  1  0
  1 30  1  0
  2  3  2  0
  4  2  1  1
  4  9  1  0
  4 25  1  0
  4  5  1  0
  5  6  1  0
  5 31  1  0
  5 32  1  0
  6  7  1  0
  6  8  2  0
  7 33  1  0
  7 34  1  0
  7 35  1  0
  8  9  1  0
  8 36  1  0
  9 10  1  0
  9 37  1  1
 10 20  1  0
 10 24  1  1
 10 11  1  0
 11 18  1  0
 11 12  1  0
 11 38  1  1
 12 13  2  0
 12 14  1  0
 14 15  1  1
 14 16  1  0
 14 20  1  0
 15 39  1  0
 15 40  1  0
 15 41  1  0
 16 17  1  0
 16 18  1  0
 16 42  1  1
 17 43  1  0
 18 19  1  0
 18 44  1  1
 19 45  1  0
 20 21  1  0
 20 46  1  1
 21 22  1  0
 21 47  1  0
 21 48  1  0
 22 23  2  0
 22 24  1  0
 24 25  1  0
 24 49  1  6
 25 26  1  0
 25 27  1  0
 26 50  1  0
 26 51  1  0
 26 52  1  0
 27 53  1  0
 27 54  1  0
 27 55  1  0
M  END
>  <i_m_ct_stereo_status>  (2) 
1

>  <s_m_source_file>  (2) 
/var/tmp/pbs.5076255.sched01/tmppz0entnt/04_lepiep.sdf

>  <i_m_source_file_index>  (2) 
1

>  <i_lp_mmshare_version>  (2) 
48012

>  <i_f3d_flags>  (2) 
0

>  <s_epik_input>  (2) 
W0NIM11DKD1bQ0hdMSlbQ0gyXVtDQEBdKFtDQEhdMVtDQEBdMjM0KShDKD1PKVtDSDNdKUMoW0NIM10pKFtDSDNdKVtDQEBIXTRDKD1PKVtDSDJdW0NASF0zW0NAQF01KFtDSDNdKUMoPU8pW0NAQEhdMltDQEhdKFtPSF0pW0NAQEhdNVtPSF0=

>  <s_epik_cmdline>  (2) 
J2VwaWtfcHl0aG9uJywgJy1waHQnLCAnMi4wJywgJy1waCcsICc3LjAnLCAnLXRuJywgJzgnLCAnLW1hJywgJzIwMCcsICctaW1hZScsICc8aW5maWxlLm1hZT4nLCAnLW9tYWUnLCAnPG91dGZpbGUubWFlPic=

>  <r_lp_tautomer_probability>  (2) 
1

>  <r_epik_Ionization_Penalty>  (2) 
8.68797e-08

>  <r_epik_Ionization_Penalty_Charging>  (2) 
0

>  <r_epik_Ionization_Penalty_Neutral>  (2) 
8.68797e-08

>  <r_epik_State_Penalty>  (2) 
-0

>  <r_epik_Charging_Adjusted_Penalty>  (2) 
0

>  <i_epik_Tot_Q>  (2) 
0

>  <i_epik_Tot_abs_Q>  (2) 
0

>  <s_lp_Force_Field>  (2) 
OPLS3e

>  <r_lp_Energy>  (2) 
21.8834

>  <b_lp_Chiralities_Consistent>  (2) 
1

>  <s_lp_Variant>  (2) 
0:0-1

>  <s_i_glide_gridfile>  (2) 
pfpi4k_grid

>  <i_i_glide_lignum>  (2) 
1

>  <i_i_glide_rotatable_bonds>  (2) 
3

>  <r_i_docking_score>  (2) 
-3.46239

>  <r_i_glide_ligand_efficiency>  (2) 
-0.128237

>  <r_i_glide_ligand_efficiency_sa>  (2) 
-0.38471

>  <r_i_glide_ligand_efficiency_ln>  (2) 
-0.805988

>  <r_i_glide_gscore>  (2) 
-3.46239

>  <r_i_glide_lipo>  (2) 
-0.377008

>  <r_i_glide_hbond>  (2) 
0

>  <r_i_glide_metal>  (2) 
-0

>  <r_i_glide_rewards>  (2) 
-1.13174

>  <r_i_glide_evdw>  (2) 
-10.4631

>  <r_i_glide_ecoul>  (2) 
-9.53662

>  <r_i_glide_erotb>  (2) 
0

>  <r_i_glide_esite>  (2) 
0

>  <r_i_glide_emodel>  (2) 
-24.8317

>  <r_i_glide_energy>  (2) 
-19.9998

>  <r_i_glide_einternal>  (2) 
1.46458

>  <r_i_glide_intrahb_reward>  (2) 
-0

>  <i_i_glide_confnum>  (2) 
2

>  <i_i_glide_posenum>  (2) 
31

>  <r_i_glide_eff_state_penalty>  (2) 
0

>  <ligand_id>  (2) 
0

>  <original_smiles>  (2) 
CC(=O)C12CC(C)=CC1C13C4C(=O)C(C)(C(O)C4O)C1CC(=O)C3C2(C)C

>  <smiles>  (2) 
[H]OC1([H])C([H])(O[H])C2(C([H])([H])[H])C(=O)C1([H])C13C4([H])C([H])=C(C([H])([H])[H])C([H])([H])C4(C(=O)C([H])([H])[H])C(C([H])([H])[H])(C([H])([H])[H])C1([H])C(=O)C([H])([H])C23[H]

$$$$
0:0:2
     RDKit          3D

 55 59  0  0  1  0  0  0  0  0999 V2000
    0.9510   -4.0960    4.7835 C   0  0  0  0  0  0  0  0  0  0  0  0
    0.6262   -2.6252    4.5659 C   0  0  0  0  0  0  0  0  0  0  0  0
   -0.5503   -2.2588    4.5430 O   0  0  0  0  0  0  0  0  0  0  0  0
    1.8025   -1.6243    4.3731 C   0  0  1  0  0  0  0  0  0  0  0  0
    2.8767   -2.2459    3.4301 C   0  0  0  0  0  0  0  0  0  0  0  0
    3.2202   -1.1394    2.4854 C   0  0  0  0  0  0  0  0  0  0  0  0
    4.3316   -1.3368    1.4736 C   0  0  0  0  0  0  0  0  0  0  0  0
    2.4128   -0.0843    2.6334 C   0  0  0  0  0  0  0  0  0  0  0  0
    1.3001   -0.3331    3.6448 C   0  0  2  0  0  0  0  0  0  0  0  0
    0.9386    0.7436    4.7438 C   0  0  1  0  0  0  0  0  0  0  0  0
    1.4325    2.2094    4.5383 C   0  0  2  0  0  0  0  0  0  0  0  0
    0.5206    2.9272    5.4939 C   0  0  0  0  0  0  0  0  0  0  0  0
    0.7992    3.6128    6.4798 O   0  0  0  0  0  0  0  0  0  0  0  0
   -0.8211    2.5177    4.9626 C   0  0  1  0  0  0  0  0  0  0  0  0
   -2.0573    3.0612    5.7218 C   0  0  0  0  0  0  0  0  0  0  0  0
   -0.6565    3.0033    3.5007 C   0  0  1  0  0  0  0  0  0  0  0  0
   -1.0546    4.3507    3.2780 O   0  0  0  0  0  0  0  0  0  0  0  0
    0.8695    2.8003    3.2256 C   0  0  1  0  0  0  0  0  0  0  0  0
    1.5463    4.0004    2.8976 O   0  0  0  0  0  0  0  0  0  0  0  0
   -0.6189    0.9662    4.9474 C   0  0  2  0  0  0  0  0  0  0  0  0
   -1.0499    0.2351    6.2354 C   0  0  0  0  0  0  0  0  0  0  0  0
    0.2254   -0.1852    6.9164 C   0  0  0  0  0  0  0  0  0  0  0  0
    0.2319   -0.7081    8.0307 O   0  0  0  0  0  0  0  0  0  0  0  0
    1.4665    0.1382    6.0856 C   0  0  1  0  0  0  0  0  0  0  0  0
    2.4010   -1.0501    5.7209 C   0  0  0  0  0  0  0  0  0  0  0  0
    2.5982   -2.1205    6.8263 C   0  0  0  0  0  0  0  0  0  0  0  0
    3.8091   -0.4034    5.5622 C   0  0  0  0  0  0  0  0  0  0  0  0
    2.0022   -4.2426    5.0193 H   0  0  0  0  0  0  0  0  0  0  0  0
    0.7187   -4.6600    3.8829 H   0  0  0  0  0  0  0  0  0  0  0  0
    0.3555   -4.4940    5.6019 H   0  0  0  0  0  0  0  0  0  0  0  0
    3.7570   -2.6164    3.9510 H   0  0  0  0  0  0  0  0  0  0  0  0
    2.4967   -3.0686    2.8270 H   0  0  0  0  0  0  0  0  0  0  0  0
    5.2825   -1.5096    1.9814 H   0  0  0  0  0  0  0  0  0  0  0  0
    4.4281   -0.4848    0.8011 H   0  0  0  0  0  0  0  0  0  0  0  0
    4.1120   -2.2213    0.8718 H   0  0  0  0  0  0  0  0  0  0  0  0
    2.4825    0.7890    2.0094 H   0  0  0  0  0  0  0  0  0  0  0  0
    0.4289   -0.5378    3.0120 H   0  0  0  0  0  0  0  0  0  0  0  0
    2.4967    2.3888    4.7039 H   0  0  0  0  0  0  0  0  0  0  0  0
   -2.9741    2.5946    5.3670 H   0  0  0  0  0  0  0  0  0  0  0  0
   -2.1670    4.1371    5.5891 H   0  0  0  0  0  0  0  0  0  0  0  0
   -1.9931    2.9017    6.7959 H   0  0  0  0  0  0  0  0  0  0  0  0
   -1.2582    2.3943    2.8234 H   0  0  0  0  0  0  0  0  0  0  0  0
   -0.7890    4.5446    2.3744 H   0  0  0  0  0  0  0  0  0  0  0  0
    0.9680    2.1431    2.3701 H   0  0  0  0  0  0  0  0  0  0  0  0
    1.1448    4.3191    2.0898 H   0  0  0  0  0  0  0  0  0  0  0  0
   -1.1962    0.5325    4.1268 H   0  0  0  0  0  0  0  0  0  0  0  0
   -1.6338    0.8450    6.9255 H   0  0  0  0  0  0  0  0  0  0  0  0
   -1.6413   -0.6524    6.0180 H   0  0  0  0  0  0  0  0  0  0  0  0
    2.0172    0.8734    6.6727 H   0  0  0  0  0  0  0  0  0  0  0  0
    2.9810   -1.6718    7.7456 H   0  0  0  0  0  0  0  0  0  0  0  0
    3.3245   -2.8718    6.5188 H   0  0  0  0  0  0  0  0  0  0  0  0
    1.6874   -2.6534    7.0971 H   0  0  0  0  0  0  0  0  0  0  0  0
    4.1278    0.0542    6.5034 H   0  0  0  0  0  0  0  0  0  0  0  0
    3.8268    0.3959    4.8213 H   0  0  0  0  0  0  0  0  0  0  0  0
    4.5855   -1.1212    5.2990 H   0  0  0  0  0  0  0  0  0  0  0  0
  1  2  1  0
  1 28  1  0
  1 29  1  0
  1 30  1  0
  2  3  2  0
  4  2  1  1
  4  9  1  0
  4 25  1  0
  4  5  1  0
  5  6  1  0
  5 31  1  0
  5 32  1  0
  6  7  1  0
  6  8  2  0
  7 33  1  0
  7 34  1  0
  7 35  1  0
  8  9  1  0
  8 36  1  0
  9 10  1  0
  9 37  1  6
 10 20  1  0
 10 24  1  1
 10 11  1  0
 11 18  1  0
 11 12  1  0
 11 38  1  1
 12 13  2  0
 12 14  1  0
 14 15  1  1
 14 16  1  0
 14 20  1  0
 15 39  1  0
 15 40  1  0
 15 41  1  0
 16 17  1  0
 16 18  1  0
 16 42  1  6
 17 43  1  0
 18 19  1  0
 18 44  1  6
 19 45  1  0
 20 21  1  0
 20 46  1  6
 21 22  1  0
 21 47  1  0
 21 48  1  0
 22 23  2  0
 22 24  1  0
 24 25  1  0
 24 49  1  1
 25 26  1  0
 25 27  1  0
 26 50  1  0
 26 51  1  0
 26 52  1  0
 27 53  1  0
 27 54  1  0
 27 55  1  0
M  END
>  <i_m_ct_stereo_status>  (3) 
1

>  <s_m_source_file>  (3) 
/var/tmp/pbs.5076255.sched01/tmppz0entnt/04_lepiep.sdf

>  <i_m_source_file_index>  (3) 
1

>  <i_lp_mmshare_version>  (3) 
48012

>  <i_f3d_flags>  (3) 
0

>  <s_epik_input>  (3) 
W0NIM11DKD1bQ0hdMSlbQ0gyXVtDQEBdKFtDQEhdMVtDQEBdMjM0KShDKD1PKVtDSDNdKUMoW0NIM10pKFtDSDNdKVtDQEBIXTRDKD1PKVtDSDJdW0NASF0zW0NAQF01KFtDSDNdKUMoPU8pW0NAQEhdMltDQEhdKFtPSF0pW0NAQEhdNVtPSF0=

>  <s_epik_cmdline>  (3) 
J2VwaWtfcHl0aG9uJywgJy1waHQnLCAnMi4wJywgJy1waCcsICc3LjAnLCAnLXRuJywgJzgnLCAnLW1hJywgJzIwMCcsICctaW1hZScsICc8aW5maWxlLm1hZT4nLCAnLW9tYWUnLCAnPG91dGZpbGUubWFlPic=

>  <r_lp_tautomer_probability>  (3) 
1

>  <r_epik_Ionization_Penalty>  (3) 
8.68797e-08

>  <r_epik_Ionization_Penalty_Charging>  (3) 
0

>  <r_epik_Ionization_Penalty_Neutral>  (3) 
8.68797e-08

>  <r_epik_State_Penalty>  (3) 
-0

>  <r_epik_Charging_Adjusted_Penalty>  (3) 
0

>  <i_epik_Tot_Q>  (3) 
0

>  <i_epik_Tot_abs_Q>  (3) 
0

>  <s_lp_Force_Field>  (3) 
OPLS3e

>  <r_lp_Energy>  (3) 
21.8834

>  <b_lp_Chiralities_Consistent>  (3) 
1

>  <s_lp_Variant>  (3) 
0:0-1

>  <s_i_glide_gridfile>  (3) 
pfpi4k_grid

>  <i_i_glide_lignum>  (3) 
1

>  <i_i_glide_rotatable_bonds>  (3) 
3

>  <r_i_docking_score>  (3) 
-3.38617

>  <r_i_glide_ligand_efficiency>  (3) 
-0.125414

>  <r_i_glide_ligand_efficiency_sa>  (3) 
-0.376241

>  <r_i_glide_ligand_efficiency_ln>  (3) 
-0.788244

>  <r_i_glide_gscore>  (3) 
-3.38617

>  <r_i_glide_lipo>  (3) 
-0.0374376

>  <r_i_glide_hbond>  (3) 
0

>  <r_i_glide_metal>  (3) 
-0

>  <r_i_glide_rewards>  (3) 
-0.908377

>  <r_i_glide_evdw>  (3) 
-20.0163

>  <r_i_glide_ecoul>  (3) 
-9.40495

>  <r_i_glide_erotb>  (3) 
0

>  <r_i_glide_esite>  (3) 
-0.0287972

>  <r_i_glide_emodel>  (3) 
-36.3389

>  <r_i_glide_energy>  (3) 
-29.4212

>  <r_i_glide_einternal>  (3) 
1.00535

>  <r_i_glide_intrahb_reward>  (3) 
-0

>  <i_i_glide_confnum>  (3) 
1

>  <i_i_glide_posenum>  (3) 
18

>  <r_i_glide_eff_state_penalty>  (3) 
0

>  <ligand_id>  (3) 
0

>  <original_smiles>  (3) 
CC(=O)C12CC(C)=CC1C13C4C(=O)C(C)(C(O)C4O)C1CC(=O)C3C2(C)C

>  <smiles>  (3) 
[H]OC1([H])C([H])(O[H])C2(C([H])([H])[H])C(=O)C1([H])C13C4([H])C([H])=C(C([H])([H])[H])C([H])([H])C4(C(=O)C([H])([H])[H])C(C([H])([H])[H])(C([H])([H])[H])C1([H])C(=O)C([H])([H])C23[H]

$$$$
1:0:0
     RDKit          3D

 17 18  0  0  1  0  0  0  0  0999 V2000
    3.7209   -6.0258    0.4603 F   0  0  0  0  0  0  0  0  0  0  0  0
    2.6584   -5.3340    0.9418 C   0  0  0  0  0  0  0  0  0  0  0  0
    1.5962   -5.5039    0.1102 F   0  0  0  0  0  0  0  0  0  0  0  0
    2.3116   -5.9106    2.1177 F   0  0  0  0  0  0  0  0  0  0  0  0
    2.9703   -4.0228    1.1653 O   0  0  0  0  0  0  0  0  0  0  0  0
    3.3245   -3.1726    0.1382 C   0  0  0  0  0  0  0  0  0  0  0  0
    4.0893   -2.0248    0.4750 C   0  0  0  0  0  0  0  0  0  0  0  0
    4.4586   -1.1470   -0.5175 C   0  0  0  0  0  0  0  0  0  0  0  0
    4.0480   -1.4239   -1.8469 C   0  0  0  0  0  0  0  0  0  0  0  0
    4.2144   -0.8274   -3.0306 N   0  0  0  0  0  0  0  0  0  0  0  0
    3.5803   -1.6105   -3.9815 N   0  0  0  0  0  0  0  0  0  0  0  0
    3.0288   -2.6533   -3.3569 C   0  0  0  0  0  0  0  0  0  0  0  0
    3.2933   -2.5937   -2.0264 N   0  0  0  0  0  0  0  0  0  0  0  0
    2.9090   -3.4899   -1.0895 N   0  0  0  0  0  0  0  0  0  0  0  0
    4.3859   -1.8326    1.5023 H   0  0  0  0  0  0  0  0  0  0  0  0
    5.0412   -0.2622   -0.3040 H   0  0  0  0  0  0  0  0  0  0  0  0
    2.4593   -3.4371   -3.8365 H   0  0  0  0  0  0  0  0  0  0  0  0
  1  2  1  0
  2  3  1  0
  2  4  1  0
  2  5  1  0
  5  6  1  0
  6 14  2  0
  6  7  1  0
  7  8  2  0
  7 15  1  0
  8  9  1  0
  8 16  1  0
  9 13  1  0
  9 10  2  0
 10 11  1  0
 11 12  2  0
 12 13  1  0
 12 17  1  0
 13 14  1  0
M  END
>  <i_m_ct_stereo_status>  (4) 
1

>  <s_m_source_file>  (4) 
/var/tmp/pbs.5076255.sched01/tmppz0entnt/04_lepiep.sdf

>  <i_m_source_file_index>  (4) 
2

>  <i_lp_mmshare_version>  (4) 
48012

>  <i_f3d_flags>  (4) 
0

>  <s_epik_input>  (4) 
RkMoRikoRilPYyhbY0hdW2NIXTEpbm4oYzEyKVtjSF1ubjI=

>  <s_epik_cmdline>  (4) 
J2VwaWtfcHl0aG9uJywgJy1waHQnLCAnMi4wJywgJy1waCcsICc3LjAnLCAnLXRuJywgJzgnLCAnLW1hJywgJzIwMCcsICctaW1hZScsICc8aW5maWxlLm1hZT4nLCAnLW9tYWUnLCAnPG91dGZpbGUubWFlPic=

>  <r_lp_tautomer_probability>  (4) 
1

>  <r_epik_Ionization_Penalty>  (4) 
5.74547e-09

>  <r_epik_Ionization_Penalty_Charging>  (4) 
0

>  <r_epik_Ionization_Penalty_Neutral>  (4) 
5.74547e-09

>  <r_epik_State_Penalty>  (4) 
-0

>  <r_epik_Charging_Adjusted_Penalty>  (4) 
0

>  <i_epik_Tot_Q>  (4) 
0

>  <i_epik_Tot_abs_Q>  (4) 
0

>  <s_lp_Force_Field>  (4) 
OPLS3e

>  <r_lp_Energy>  (4) 
9.07733

>  <b_lp_Chiralities_Consistent>  (4) 
1

>  <s_lp_Variant>  (4) 
1:0-1

>  <s_i_glide_gridfile>  (4) 
pfpi4k_grid

>  <i_i_glide_lignum>  (4) 
2

>  <i_i_glide_rotatable_bonds>  (4) 
2

>  <r_i_docking_score>  (4) 
-3.95556

>  <r_i_glide_ligand_efficiency>  (4) 
-0.28254

>  <r_i_glide_ligand_efficiency_sa>  (4) 
-0.680962

>  <r_i_glide_ligand_efficiency_ln>  (4) 
-1.08697

>  <r_i_glide_gscore>  (4) 
-3.95556

>  <r_i_glide_lipo>  (4) 
0

>  <r_i_glide_hbond>  (4) 
0

>  <r_i_glide_metal>  (4) 
-0

>  <r_i_glide_rewards>  (4) 
-2.28094

>  <r_i_glide_evdw>  (4) 
-20.9276

>  <r_i_glide_ecoul>  (4) 
-2.8611

>  <r_i_glide_erotb>  (4) 
0

>  <r_i_glide_esite>  (4) 
-0.199075

>  <r_i_glide_emodel>  (4) 
-28.9717

>  <r_i_glide_energy>  (4) 
-23.7887

>  <r_i_glide_einternal>  (4) 
1.44038

>  <r_i_glide_intrahb_reward>  (4) 
-0

>  <i_i_glide_confnum>  (4) 
2

>  <i_i_glide_posenum>  (4) 
34

>  <r_i_glide_eff_state_penalty>  (4) 
0

>  <ligand_id>  (4) 
1

>  <original_smiles>  (4) 
FC(F)(F)Oc1ccc2nncn2n1

>  <smiles>  (4) 
[H]c1c(OC(F)(F)F)nn2c([H])nnc2c1[H]

$$$$
1:0:1
     RDKit          3D

 17 18  0  0  1  0  0  0  0  0999 V2000
    4.2077    0.1436    0.7606 F   0  0  0  0  0  0  0  0  0  0  0  0
    3.3196   -0.3026    1.6809 C   0  0  0  0  0  0  0  0  0  0  0  0
    3.0005   -1.5722    1.3239 F   0  0  0  0  0  0  0  0  0  0  0  0
    3.9723   -0.3157    2.8714 F   0  0  0  0  0  0  0  0  0  0  0  0
    2.2317    0.5188    1.7030 O   0  0  0  0  0  0  0  0  0  0  0  0
    1.1682    0.3005    2.5598 C   0  0  0  0  0  0  0  0  0  0  0  0
    0.1177    1.2542    2.5242 C   0  0  0  0  0  0  0  0  0  0  0  0
   -0.9673    1.1102    3.3574 C   0  0  0  0  0  0  0  0  0  0  0  0
   -0.9899   -0.0023    4.2351 C   0  0  0  0  0  0  0  0  0  0  0  0
   -1.8456   -0.4646    5.1535 N   0  0  0  0  0  0  0  0  0  0  0  0
   -1.3048   -1.6286    5.6777 N   0  0  0  0  0  0  0  0  0  0  0  0
   -0.1361   -1.8463    5.0693 C   0  0  0  0  0  0  0  0  0  0  0  0
    0.1158   -0.8678    4.1607 N   0  0  0  0  0  0  0  0  0  0  0  0
    1.2083   -0.7727    3.3591 N   0  0  0  0  0  0  0  0  0  0  0  0
    0.1661    2.0966    1.8416 H   0  0  0  0  0  0  0  0  0  0  0  0
   -1.7922    1.8147    3.3447 H   0  0  0  0  0  0  0  0  0  0  0  0
    0.5207   -2.6797    5.2711 H   0  0  0  0  0  0  0  0  0  0  0  0
  1  2  1  0
  2  3  1  0
  2  4  1  0
  2  5  1  0
  5  6  1  0
  6 14  2  0
  6  7  1  0
  7  8  2  0
  7 15  1  0
  8  9  1  0
  8 16  1  0
  9 13  1  0
  9 10  2  0
 10 11  1  0
 11 12  2  0
 12 13  1  0
 12 17  1  0
 13 14  1  0
M  END
>  <i_m_ct_stereo_status>  (5) 
1

>  <s_m_source_file>  (5) 
/var/tmp/pbs.5076255.sched01/tmppz0entnt/04_lepiep.sdf

>  <i_m_source_file_index>  (5) 
2

>  <i_lp_mmshare_version>  (5) 
48012

>  <i_f3d_flags>  (5) 
0

>  <s_epik_input>  (5) 
RkMoRikoRilPYyhbY0hdW2NIXTEpbm4oYzEyKVtjSF1ubjI=

>  <s_epik_cmdline>  (5) 
J2VwaWtfcHl0aG9uJywgJy1waHQnLCAnMi4wJywgJy1waCcsICc3LjAnLCAnLXRuJywgJzgnLCAnLW1hJywgJzIwMCcsICctaW1hZScsICc8aW5maWxlLm1hZT4nLCAnLW9tYWUnLCAnPG91dGZpbGUubWFlPic=

>  <r_lp_tautomer_probability>  (5) 
1

>  <r_epik_Ionization_Penalty>  (5) 
5.74547e-09

>  <r_epik_Ionization_Penalty_Charging>  (5) 
0

>  <r_epik_Ionization_Penalty_Neutral>  (5) 
5.74547e-09

>  <r_epik_State_Penalty>  (5) 
-0

>  <r_epik_Charging_Adjusted_Penalty>  (5) 
0

>  <i_epik_Tot_Q>  (5) 
0

>  <i_epik_Tot_abs_Q>  (5) 
0

>  <s_lp_Force_Field>  (5) 
OPLS3e

>  <r_lp_Energy>  (5) 
9.07733

>  <b_lp_Chiralities_Consistent>  (5) 
1

>  <s_lp_Variant>  (5) 
1:0-1

>  <s_i_glide_gridfile>  (5) 
pfpi4k_grid

>  <i_i_glide_lignum>  (5) 
2

>  <i_i_glide_rotatable_bonds>  (5) 
2

>  <r_i_docking_score>  (5) 
-3.80578

>  <r_i_glide_ligand_efficiency>  (5) 
-0.271842

>  <r_i_glide_ligand_efficiency_sa>  (5) 
-0.655177

>  <r_i_glide_ligand_efficiency_ln>  (5) 
-1.04582

>  <r_i_glide_gscore>  (5) 
-3.80578

>  <r_i_glide_lipo>  (5) 
0

>  <r_i_glide_hbond>  (5) 
0

>  <r_i_glide_metal>  (5) 
-0

>  <r_i_glide_rewards>  (5) 
-2.14513

>  <r_i_glide_evdw>  (5) 
-16.921

>  <r_i_glide_ecoul>  (5) 
-4.09211

>  <r_i_glide_erotb>  (5) 
0

>  <r_i_glide_esite>  (5) 
-0.200784

>  <r_i_glide_emodel>  (5) 
-26.8838

>  <r_i_glide_energy>  (5) 
-21.0131

>  <r_i_glide_einternal>  (5) 
0.00785231

>  <r_i_glide_intrahb_reward>  (5) 
-0

>  <i_i_glide_confnum>  (5) 
2

>  <i_i_glide_posenum>  (5) 
1

>  <r_i_glide_eff_state_penalty>  (5) 
0

>  <ligand_id>  (5) 
1

>  <original_smiles>  (5) 
FC(F)(F)Oc1ccc2nncn2n1

>  <smiles>  (5) 
[H]c1c(OC(F)(F)F)nn2c([H])nnc2c1[H]

$$$$
1:0:2
     RDKit          3D

 17 18  0  0  1  0  0  0  0  0999 V2000
    1.8865   -5.9471    3.0396 F   0  0  0  0  0  0  0  0  0  0  0  0
    2.8455   -5.4852    2.1935 C   0  0  0  0  0  0  0  0  0  0  0  0
    3.5903   -4.5885    2.8957 F   0  0  0  0  0  0  0  0  0  0  0  0
    3.6213   -6.5526    1.8604 F   0  0  0  0  0  0  0  0  0  0  0  0
    2.2777   -4.9115    1.0979 O   0  0  0  0  0  0  0  0  0  0  0  0
    3.0718   -4.3524    0.1142 C   0  0  0  0  0  0  0  0  0  0  0  0
    4.5088   -4.3494    0.1817 C   0  0  0  0  0  0  0  0  0  0  0  0
    5.2281   -3.8015   -0.8383 C   0  0  0  0  0  0  0  0  0  0  0  0
    4.5332   -3.2604   -1.9510 C   0  0  0  0  0  0  0  0  0  0  0  0
    4.9177   -2.6992   -3.0950 N   0  0  0  0  0  0  0  0  0  0  0  0
    3.7638   -2.3983   -3.8144 N   0  0  0  0  0  0  0  0  0  0  0  0
    2.7161   -2.7757   -3.0704 C   0  0  0  0  0  0  0  0  0  0  0  0
    3.1289   -3.3234   -1.8842 N   0  0  0  0  0  0  0  0  0  0  0  0
    2.3497   -3.8425   -0.8842 N   0  0  0  0  0  0  0  0  0  0  0  0
    5.0812   -4.7753    0.9959 H   0  0  0  0  0  0  0  0  0  0  0  0
    6.3127   -3.7830   -0.8240 H   0  0  0  0  0  0  0  0  0  0  0  0
    1.6901   -2.6842   -3.4093 H   0  0  0  0  0  0  0  0  0  0  0  0
  1  2  1  0
  2  3  1  0
  2  4  1  0
  2  5  1  0
  5  6  1  0
  6 14  2  0
  6  7  1  0
  7  8  2  0
  7 15  1  0
  8  9  1  0
  8 16  1  0
  9 13  1  0
  9 10  2  0
 10 11  1  0
 11 12  2  0
 12 13  1  0
 12 17  1  0
 13 14  1  0
M  END
>  <i_m_ct_stereo_status>  (6) 
1

>  <s_m_source_file>  (6) 
/var/tmp/pbs.5076255.sched01/tmppz0entnt/04_lepiep.sdf

>  <i_m_source_file_index>  (6) 
2

>  <i_lp_mmshare_version>  (6) 
48012

>  <i_f3d_flags>  (6) 
0

>  <s_epik_input>  (6) 
RkMoRikoRilPYyhbY0hdW2NIXTEpbm4oYzEyKVtjSF1ubjI=

>  <s_epik_cmdline>  (6) 
J2VwaWtfcHl0aG9uJywgJy1waHQnLCAnMi4wJywgJy1waCcsICc3LjAnLCAnLXRuJywgJzgnLCAnLW1hJywgJzIwMCcsICctaW1hZScsICc8aW5maWxlLm1hZT4nLCAnLW9tYWUnLCAnPG91dGZpbGUubWFlPic=

>  <r_lp_tautomer_probability>  (6) 
1

>  <r_epik_Ionization_Penalty>  (6) 
5.74547e-09

>  <r_epik_Ionization_Penalty_Charging>  (6) 
0

>  <r_epik_Ionization_Penalty_Neutral>  (6) 
5.74547e-09

>  <r_epik_State_Penalty>  (6) 
-0

>  <r_epik_Charging_Adjusted_Penalty>  (6) 
0

>  <i_epik_Tot_Q>  (6) 
0

>  <i_epik_Tot_abs_Q>  (6) 
0

>  <s_lp_Force_Field>  (6) 
OPLS3e

>  <r_lp_Energy>  (6) 
9.07733

>  <b_lp_Chiralities_Consistent>  (6) 
1

>  <s_lp_Variant>  (6) 
1:0-1

>  <s_i_glide_gridfile>  (6) 
pfpi4k_grid

>  <i_i_glide_lignum>  (6) 
2

>  <i_i_glide_rotatable_bonds>  (6) 
2

>  <r_i_docking_score>  (6) 
-3.73296

>  <r_i_glide_ligand_efficiency>  (6) 
-0.26664

>  <r_i_glide_ligand_efficiency_sa>  (6) 
-0.642641

>  <r_i_glide_ligand_efficiency_ln>  (6) 
-1.0258

>  <r_i_glide_gscore>  (6) 
-3.73296

>  <r_i_glide_lipo>  (6) 
-0.0722875

>  <r_i_glide_hbond>  (6) 
-0.00751093

>  <r_i_glide_metal>  (6) 
-0

>  <r_i_glide_rewards>  (6) 
-2.22516

>  <r_i_glide_evdw>  (6) 
-17.8271

>  <r_i_glide_ecoul>  (6) 
-3.49905

>  <r_i_glide_erotb>  (6) 
0

>  <r_i_glide_esite>  (6) 
-0.0117924

>  <r_i_glide_emodel>  (6) 
-24.5163

>  <r_i_glide_energy>  (6) 
-21.3261

>  <r_i_glide_einternal>  (6) 
4.99645

>  <r_i_glide_intrahb_reward>  (6) 
-0

>  <i_i_glide_confnum>  (6) 
2

>  <i_i_glide_posenum>  (6) 
25

>  <r_i_glide_eff_state_penalty>  (6) 
0

>  <ligand_id>  (6) 
1

>  <original_smiles>  (6) 
FC(F)(F)Oc1ccc2nncn2n1

>  <smiles>  (6) 
[H]c1c(OC(F)(F)F)nn2c([H])nnc2c1[H]

$$$$
2:0:0
     RDKit          3D

 72 79  0  0  1  0  0  0  0  0999 V2000
   -1.7877   -9.0565    2.7128 C   0  0  0  0  0  0  0  0  0  0  0  0
   -0.4940   -8.8312    2.9413 C   0  0  0  0  0  0  0  0  0  0  0  0
    0.2577   -7.8617    2.1493 C   0  0  0  0  0  0  0  0  0  0  0  0
   -0.2263   -7.3202    1.1457 O   0  0  0  0  0  0  0  0  0  0  0  0
    1.7091   -7.5815    2.6662 C   0  0  2  0  0  0  0  0  0  0  0  0
    2.4107   -6.4232    1.7809 C   0  0  1  0  0  0  0  0  0  0  0  0
    1.5836   -5.4578    1.1907 O   0  0  0  0  0  0  0  0  0  0  0  0
    3.2855   -5.5419    2.6619 C   0  0  1  0  0  0  0  0  0  0  0  0
    4.1350   -6.4655    3.4542 C   0  0  1  0  0  0  0  0  0  0  0  0
    5.0397   -5.2723    3.7167 C   0  0  2  0  0  0  0  0  0  0  0  0
    6.4133   -5.5739    3.7143 O   0  0  0  0  0  0  0  0  0  0  0  0
    4.8027   -4.5495    5.0324 C   0  0  0  0  0  0  0  0  0  0  0  0
    5.0022   -3.0499    4.8857 C   0  0  0  0  0  0  0  0  0  0  0  0
    4.0951   -2.4473    3.7877 C   0  0  1  0  0  0  0  0  0  0  0  0
    2.7587   -2.6772    4.1876 O   0  0  0  0  0  0  0  0  0  0  0  0
    4.1590   -0.9018    3.8539 C   0  0  0  0  0  0  0  0  0  0  0  0
    5.4691   -0.3810    3.3103 C   0  0  0  0  0  0  0  0  0  0  0  0
    6.1741    0.3926    3.9541 O   0  0  0  0  0  0  0  0  0  0  0  0
    5.8425   -0.8923    1.9299 C   0  0  0  0  0  0  0  0  0  0  0  0
    5.7504   -2.4227    1.8625 C   0  0  0  0  0  0  0  0  0  0  0  0
    4.4019   -3.0596    2.3460 C   0  0  2  0  0  0  0  0  0  0  0  0
    3.3061   -2.6025    1.3492 C   0  0  0  0  0  0  0  0  0  0  0  0
    4.5267   -4.6587    2.3502 C   0  0  2  0  0  0  0  0  0  0  0  0
    5.2364   -5.1262    1.0508 C   0  0  0  0  0  0  0  0  0  0  0  0
    3.3224   -7.4002    4.4198 C   0  0  2  0  0  0  0  0  0  0  0  0
    4.2169   -7.7262    5.5192 O   0  0  0  0  0  0  0  0  0  0  0  0
    4.7971   -8.7676    4.6377 C   0  0  0  0  0  0  0  0  0  0  0  0
    3.4032   -8.8648    4.0678 C   0  0  2  0  0  0  0  0  0  0  0  0
    2.5662   -8.9735    2.7671 C   0  0  2  0  0  0  0  0  0  0  0  0
    3.3809   -9.3990    1.5329 C   0  0  0  0  0  0  0  0  0  0  0  0
    1.5648  -10.1181    3.1460 C   0  0  0  0  0  0  0  0  0  0  0  0
    0.3901   -9.5147    3.9699 C   0  0  1  0  0  0  0  0  0  0  0  0
    0.8045   -8.3767    4.9603 C   0  0  1  0  0  0  0  0  0  0  0  0
    1.2584   -8.8502    6.2155 O   0  0  0  0  0  0  0  0  0  0  0  0
    1.7547   -7.3092    4.2525 C   0  0  2  0  0  0  0  0  0  0  0  0
    1.2169   -6.0691    4.6608 O   0  0  0  0  0  0  0  0  0  0  0  0
   -2.3374   -9.7814    3.2872 H   0  0  0  0  0  0  0  0  0  0  0  0
   -2.3334   -8.5335    1.9430 H   0  0  0  0  0  0  0  0  0  0  0  0
    2.9722   -6.8688    0.9580 H   0  0  0  0  0  0  0  0  0  0  0  0
    2.1476   -4.8592    0.7004 H   0  0  0  0  0  0  0  0  0  0  0  0
    2.6744   -4.9185    3.2938 H   0  0  0  0  0  0  0  0  0  0  0  0
    4.6494   -7.1008    2.7446 H   0  0  0  0  0  0  0  0  0  0  0  0
    6.5646   -6.1015    2.9522 H   0  0  0  0  0  0  0  0  0  0  0  0
    3.7883   -4.7274    5.3825 H   0  0  0  0  0  0  0  0  0  0  0  0
    5.4512   -4.9473    5.8154 H   0  0  0  0  0  0  0  0  0  0  0  0
    4.8114   -2.5773    5.8487 H   0  0  0  0  0  0  0  0  0  0  0  0
    6.0520   -2.8691    4.6646 H   0  0  0  0  0  0  0  0  0  0  0  0
    2.1919   -2.2648    3.5537 H   0  0  0  0  0  0  0  0  0  0  0  0
    3.3611   -0.4355    3.2789 H   0  0  0  0  0  0  0  0  0  0  0  0
    4.0443   -0.5509    4.8801 H   0  0  0  0  0  0  0  0  0  0  0  0
    5.1826   -0.4316    1.1946 H   0  0  0  0  0  0  0  0  0  0  0  0
    6.8580   -0.6094    1.6703 H   0  0  0  0  0  0  0  0  0  0  0  0
    5.9685   -2.6840    0.8273 H   0  0  0  0  0  0  0  0  0  0  0  0
    6.5668   -2.8356    2.4472 H   0  0  0  0  0  0  0  0  0  0  0  0
    3.5323   -2.8985    0.3258 H   0  0  0  0  0  0  0  0  0  0  0  0
    3.2063   -1.5189    1.3284 H   0  0  0  0  0  0  0  0  0  0  0  0
    2.3250   -2.9971    1.6063 H   0  0  0  0  0  0  0  0  0  0  0  0
    6.2920   -4.8590    1.0290 H   0  0  0  0  0  0  0  0  0  0  0  0
    4.7644   -4.7200    0.1575 H   0  0  0  0  0  0  0  0  0  0  0  0
    5.2097   -6.2054    0.9163 H   0  0  0  0  0  0  0  0  0  0  0  0
    5.6076   -8.4313    3.9960 H   0  0  0  0  0  0  0  0  0  0  0  0
    5.0972   -9.6516    5.1951 H   0  0  0  0  0  0  0  0  0  0  0  0
    3.0256   -9.5310    4.8394 H   0  0  0  0  0  0  0  0  0  0  0  0
    3.8435  -10.3719    1.7078 H   0  0  0  0  0  0  0  0  0  0  0  0
    4.1931   -8.7122    1.2947 H   0  0  0  0  0  0  0  0  0  0  0  0
    2.7417   -9.4951    0.6513 H   0  0  0  0  0  0  0  0  0  0  0  0
    1.1694  -10.6122    2.2544 H   0  0  0  0  0  0  0  0  0  0  0  0
    2.0449  -10.9248    3.7036 H   0  0  0  0  0  0  0  0  0  0  0  0
   -0.1676  -10.3052    4.4689 H   0  0  0  0  0  0  0  0  0  0  0  0
   -0.1400   -7.8916    5.2126 H   0  0  0  0  0  0  0  0  0  0  0  0
    0.8419   -9.6795    6.4131 H   0  0  0  0  0  0  0  0  0  0  0  0
    1.3347   -6.0198    5.5995 H   0  0  0  0  0  0  0  0  0  0  0  0
  1  2  2  0
  1 37  1  0
  1 38  1  0
  2 32  1  0
  2  3  1  0
  3  4  2  0
  5  3  1  6
  5 29  1  0
  5 35  1  0
  5  6  1  0
  6  7  1  0
  6  8  1  0
  6 39  1  6
  7 40  1  0
  8 23  1  0
  8  9  1  0
  8 41  1  1
  9 10  1  0
  9 25  1  0
  9 42  1  6
 10 23  1  0
 10 11  1  6
 10 12  1  0
 11 43  1  0
 12 13  1  0
 12 44  1  0
 12 45  1  0
 13 14  1  0
 13 46  1  0
 13 47  1  0
 14 21  1  0
 14 15  1  1
 14 16  1  0
 15 48  1  0
 16 17  1  0
 16 49  1  0
 16 50  1  0
 17 18  2  0
 17 19  1  0
 19 20  1  0
 19 51  1  0
 19 52  1  0
 20 21  1  0
 20 53  1  0
 20 54  1  0
 21 22  1  6
 21 23  1  0
 22 55  1  0
 22 56  1  0
 22 57  1  0
 23 24  1  6
 24 58  1  0
 24 59  1  0
 24 60  1  0
 25 28  1  0
 25 35  1  0
 25 26  1  1
 26 27  1  0
 27 28  1  0
 27 61  1  0
 27 62  1  0
 28 29  1  0
 28 63  1  1
 29 30  1  6
 29 31  1  0
 30 64  1  0
 30 65  1  0
 30 66  1  0
 31 32  1  0
 31 67  1  0
 31 68  1  0
 32 33  1  0
 32 69  1  1
 33 34  1  0
 33 35  1  0
 33 70  1  1
 34 71  1  0
 35 36  1  6
 36 72  1  0
M  END
>  <i_m_ct_stereo_status>  (7) 
1

>  <s_m_source_file>  (7) 
/var/tmp/pbs.5076255.sched01/tmppz0entnt/04_lepiep.sdf

>  <i_m_source_file_index>  (7) 
3

>  <i_lp_mmshare_version>  (7) 
48012

>  <i_f3d_flags>  (7) 
0

>  <s_epik_input>  (7) 
Tz1DMUMoPVtDSDJdKVtDQEBIXShbQ0gyXTIpW0NAQEhdKFtPSF0pW0NAQF0zKFtPSF0pW0NAQF0oT1tDSDJdNCkoW0NASF00W0NAQF0yKFtDQEBdMTM1KVtDSDNdKVtDQEhdNltDQEhdKFtDQEBIXTVbT0hdKVtDQF03KFtDSDNdKVtDQEBdNihbT0hdKVtDSDJdW0NIMl1bQ0BdOChbT0hdKVtDQEBdNyhbQ0gzXSlbQ0gyXVtDSDJdQyg9TylbQ0gyXTg=

>  <s_epik_cmdline>  (7) 
J2VwaWtfcHl0aG9uJywgJy1waHQnLCAnMi4wJywgJy1waCcsICc3LjAnLCAnLXRuJywgJzgnLCAnLW1hJywgJzIwMCcsICctaW1hZScsICc8aW5maWxlLm1hZT4nLCAnLW9tYWUnLCAnPG91dGZpbGUubWFlPic=

>  <r_lp_tautomer_probability>  (7) 
1

>  <r_epik_Ionization_Penalty>  (7) 
9.18803e-07

>  <r_epik_Ionization_Penalty_Charging>  (7) 
0

>  <r_epik_Ionization_Penalty_Neutral>  (7) 
9.18803e-07

>  <r_epik_State_Penalty>  (7) 
-0

>  <r_epik_Charging_Adjusted_Penalty>  (7) 
0

>  <i_epik_Tot_Q>  (7) 
0

>  <i_epik_Tot_abs_Q>  (7) 
0

>  <s_lp_Force_Field>  (7) 
OPLS3e

>  <r_lp_Energy>  (7) 
164.643

>  <b_lp_Chiralities_Consistent>  (7) 
1

>  <s_lp_Variant>  (7) 
2:0-1

>  <s_i_glide_gridfile>  (7) 
pfpi4k_grid

>  <i_i_glide_lignum>  (7) 
3

>  <i_i_glide_rotatable_bonds>  (7) 
5

>  <r_i_docking_score>  (7) 
-2.80667

>  <r_i_glide_ligand_efficiency>  (7) 
-0.0779631

>  <r_i_glide_ligand_efficiency_sa>  (7) 
-0.257428

>  <r_i_glide_ligand_efficiency_ln>  (7) 
-0.61234

>  <r_i_glide_gscore>  (7) 
-2.80667

>  <r_i_glide_lipo>  (7) 
-0.432974

>  <r_i_glide_hbond>  (7) 
0

>  <r_i_glide_metal>  (7) 
-0

>  <r_i_glide_rewards>  (7) 
-0.205993

>  <r_i_glide_evdw>  (7) 
-21.9908

>  <r_i_glide_ecoul>  (7) 
-6.73935

>  <r_i_glide_erotb>  (7) 
0

>  <r_i_glide_esite>  (7) 
-0.0572588

>  <r_i_glide_emodel>  (7) 
-33.2612

>  <r_i_glide_energy>  (7) 
-28.7302

>  <r_i_glide_einternal>  (7) 
1.22192

>  <r_i_glide_intrahb_reward>  (7) 
-0

>  <i_i_glide_confnum>  (7) 
2

>  <i_i_glide_posenum>  (7) 
20

>  <r_i_glide_eff_state_penalty>  (7) 
0

>  <ligand_id>  (7) 
2

>  <original_smiles>  (7) 
C=C1C(=O)C23C(O)C4C(C5(O)CCC6(O)CC(=O)CCC6(C)C45C)C45OCC4C2(C)CC1C(O)C53O

>  <smiles>  (7) 
[H]OC1([H])C2([H])C(=C([H])[H])C(=O)C34C([H])(O[H])C5([H])C([H])(C6(OC([H])([H])C6([H])C3(C([H])([H])[H])C2([H])[H])C14O[H])C1(O[H])C([H])([H])C([H])([H])C2(O[H])C([H])([H])C(=O)C([H])([H])C([H])([H])C2(C([H])([H])[H])C51C([H])([H])[H]

$$$$
2:0:1
     RDKit          3D

 72 79  0  0  1  0  0  0  0  0999 V2000
   -1.9355   -9.0021    2.6958 C   0  0  0  0  0  0  0  0  0  0  0  0
   -0.6325   -8.7933    2.9250 C   0  0  0  0  0  0  0  0  0  0  0  0
    0.1475   -7.8566    2.1129 C   0  0  0  0  0  0  0  0  0  0  0  0
   -0.2909   -7.3919    1.0650 O   0  0  0  0  0  0  0  0  0  0  0  0
    1.5953   -7.5858    2.6523 C   0  0  2  0  0  0  0  0  0  0  0  0
    2.3237   -6.4363    1.7748 C   0  0  1  0  0  0  0  0  0  0  0  0
    1.5095   -5.4562    1.1626 O   0  0  0  0  0  0  0  0  0  0  0  0
    3.1996   -5.5585    2.6510 C   0  0  1  0  0  0  0  0  0  0  0  0
    4.0302   -6.4992    3.4540 C   0  0  1  0  0  0  0  0  0  0  0  0
    4.9590   -5.3237    3.7197 C   0  0  2  0  0  0  0  0  0  0  0  0
    6.3318   -5.6516    3.7306 O   0  0  0  0  0  0  0  0  0  0  0  0
    4.7184   -4.5896    5.0304 C   0  0  0  0  0  0  0  0  0  0  0  0
    4.9475   -3.0938    4.8764 C   0  0  0  0  0  0  0  0  0  0  0  0
    4.0555   -2.4817    3.7699 C   0  0  1  0  0  0  0  0  0  0  0  0
    2.7101   -2.6852    4.1608 O   0  0  0  0  0  0  0  0  0  0  0  0
    4.1484   -0.9355    3.8248 C   0  0  0  0  0  0  0  0  0  0  0  0
    5.4710   -0.4368    3.2867 C   0  0  0  0  0  0  0  0  0  0  0  0
    6.1856    0.3296    3.9309 O   0  0  0  0  0  0  0  0  0  0  0  0
    5.8540   -0.9633    1.9140 C   0  0  0  0  0  0  0  0  0  0  0  0
    5.7319   -2.4972    1.8592 C   0  0  0  0  0  0  0  0  0  0  0  0
    4.3657   -3.1064    2.3339 C   0  0  2  0  0  0  0  0  0  0  0  0
    3.2854   -2.6327    1.3245 C   0  0  0  0  0  0  0  0  0  0  0  0
    4.4643   -4.7055    2.3473 C   0  0  2  0  0  0  0  0  0  0  0  0
    5.1727   -5.1970    1.0548 C   0  0  0  0  0  0  0  0  0  0  0  0
    3.1947   -7.4137    4.4274 C   0  0  2  0  0  0  0  0  0  0  0  0
    4.0792   -7.7579    5.5346 O   0  0  0  0  0  0  0  0  0  0  0  0
    4.6449   -8.8084    4.6647 C   0  0  0  0  0  0  0  0  0  0  0  0
    3.2457   -8.8792    4.0817 C   0  0  2  0  0  0  0  0  0  0  0  0
    2.4268   -8.9913    2.7715 C   0  0  2  0  0  0  0  0  0  0  0  0
    3.2382   -9.4360    1.5410 C   0  0  0  0  0  0  0  0  0  0  0  0
    1.3983  -10.1132    3.1514 C   0  0  0  0  0  0  0  0  0  0  0  0
    0.2286   -9.4779    3.9592 C   0  0  1  0  0  0  0  0  0  0  0  0
    0.6514   -8.3431    4.9499 C   0  0  1  0  0  0  0  0  0  0  0  0
    1.0509   -8.8147    6.2271 O   0  0  0  0  0  0  0  0  0  0  0  0
    1.6293   -7.2982    4.2407 C   0  0  2  0  0  0  0  0  0  0  0  0
    1.1133   -6.0432    4.6436 O   0  0  0  0  0  0  0  0  0  0  0  0
   -2.5020   -9.7054    3.2823 H   0  0  0  0  0  0  0  0  0  0  0  0
   -2.4665   -8.4784    1.9158 H   0  0  0  0  0  0  0  0  0  0  0  0
    2.8759   -6.8924    0.9584 H   0  0  0  0  0  0  0  0  0  0  0  0
    2.0757   -4.8835    0.6774 H   0  0  0  0  0  0  0  0  0  0  0  0
    2.5873   -4.9251    3.2801 H   0  0  0  0  0  0  0  0  0  0  0  0
    4.5374   -7.1573    2.7498 H   0  0  0  0  0  0  0  0  0  0  0  0
    6.4731   -6.1921    2.9738 H   0  0  0  0  0  0  0  0  0  0  0  0
    3.6937   -4.7471    5.3707 H   0  0  0  0  0  0  0  0  0  0  0  0
    5.3472   -4.9931    5.8252 H   0  0  0  0  0  0  0  0  0  0  0  0
    4.7643   -2.6082    5.8341 H   0  0  0  0  0  0  0  0  0  0  0  0
    6.0009   -2.9329    4.6548 H   0  0  0  0  0  0  0  0  0  0  0  0
    2.1567   -2.2708    3.5188 H   0  0  0  0  0  0  0  0  0  0  0  0
    3.3596   -0.4598    3.2422 H   0  0  0  0  0  0  0  0  0  0  0  0
    4.0323   -0.5755    4.8484 H   0  0  0  0  0  0  0  0  0  0  0  0
    5.2030   -0.4964    1.1749 H   0  0  0  0  0  0  0  0  0  0  0  0
    6.8737   -0.6665    1.6709 H   0  0  0  0  0  0  0  0  0  0  0  0
    5.9492   -2.7676    0.8250 H   0  0  0  0  0  0  0  0  0  0  0  0
    6.5376   -2.9197    2.4565 H   0  0  0  0  0  0  0  0  0  0  0  0
    3.5152   -2.9388    0.3040 H   0  0  0  0  0  0  0  0  0  0  0  0
    3.2028   -1.5458    1.2984 H   0  0  0  0  0  0  0  0  0  0  0  0
    2.2950   -3.0096    1.5747 H   0  0  0  0  0  0  0  0  0  0  0  0
    6.2332   -4.9481    1.0403 H   0  0  0  0  0  0  0  0  0  0  0  0
    4.7132   -4.7876    0.1549 H   0  0  0  0  0  0  0  0  0  0  0  0
    5.1299   -6.2779    0.9266 H   0  0  0  0  0  0  0  0  0  0  0  0
    5.4710   -8.4858    4.0257 H   0  0  0  0  0  0  0  0  0  0  0  0
    4.9274   -9.7001    5.2287 H   0  0  0  0  0  0  0  0  0  0  0  0
    2.8459   -9.5367    4.8536 H   0  0  0  0  0  0  0  0  0  0  0  0
    3.6725  -10.4201    1.7174 H   0  0  0  0  0  0  0  0  0  0  0  0
    4.0662   -8.7652    1.3118 H   0  0  0  0  0  0  0  0  0  0  0  0
    2.6018   -9.5110    0.6557 H   0  0  0  0  0  0  0  0  0  0  0  0
    1.0017  -10.6050    2.2594 H   0  0  0  0  0  0  0  0  0  0  0  0
    1.8549  -10.9282    3.7182 H   0  0  0  0  0  0  0  0  0  0  0  0
   -0.3359  -10.2554    4.4612 H   0  0  0  0  0  0  0  0  0  0  0  0
   -0.2814   -7.8255    5.1863 H   0  0  0  0  0  0  0  0  0  0  0  0
    1.5912   -9.5857    6.1257 H   0  0  0  0  0  0  0  0  0  0  0  0
    1.2282   -5.9860    5.5812 H   0  0  0  0  0  0  0  0  0  0  0  0
  1  2  2  0
  1 37  1  0
  1 38  1  0
  2 32  1  0
  2  3  1  0
  3  4  2  0
  5  3  1  6
  5 29  1  0
  5 35  1  0
  5  6  1  0
  6  7  1  0
  6  8  1  0
  6 39  1  6
  7 40  1  0
  8 23  1  0
  8  9  1  0
  8 41  1  1
  9 10  1  0
  9 25  1  0
  9 42  1  6
 10 23  1  0
 10 11  1  6
 10 12  1  0
 11 43  1  0
 12 13  1  0
 12 44  1  0
 12 45  1  0
 13 14  1  0
 13 46  1  0
 13 47  1  0
 14 21  1  0
 14 15  1  1
 14 16  1  0
 15 48  1  0
 16 17  1  0
 16 49  1  0
 16 50  1  0
 17 18  2  0
 17 19  1  0
 19 20  1  0
 19 51  1  0
 19 52  1  0
 20 21  1  0
 20 53  1  0
 20 54  1  0
 21 22  1  6
 21 23  1  0
 22 55  1  0
 22 56  1  0
 22 57  1  0
 23 24  1  6
 24 58  1  0
 24 59  1  0
 24 60  1  0
 25 28  1  0
 25 35  1  0
 25 26  1  1
 26 27  1  0
 27 28  1  0
 27 61  1  0
 27 62  1  0
 28 29  1  0
 28 63  1  1
 29 30  1  6
 29 31  1  0
 30 64  1  0
 30 65  1  0
 30 66  1  0
 31 32  1  0
 31 67  1  0
 31 68  1  0
 32 33  1  0
 32 69  1  1
 33 34  1  0
 33 35  1  0
 33 70  1  1
 34 71  1  0
 35 36  1  6
 36 72  1  0
M  END
>  <i_m_ct_stereo_status>  (8) 
1

>  <s_m_source_file>  (8) 
/var/tmp/pbs.5076255.sched01/tmppz0entnt/04_lepiep.sdf

>  <i_m_source_file_index>  (8) 
3

>  <i_lp_mmshare_version>  (8) 
48012

>  <i_f3d_flags>  (8) 
0

>  <s_epik_input>  (8) 
Tz1DMUMoPVtDSDJdKVtDQEBIXShbQ0gyXTIpW0NAQEhdKFtPSF0pW0NAQF0zKFtPSF0pW0NAQF0oT1tDSDJdNCkoW0NASF00W0NAQF0yKFtDQEBdMTM1KVtDSDNdKVtDQEhdNltDQEhdKFtDQEBIXTVbT0hdKVtDQF03KFtDSDNdKVtDQEBdNihbT0hdKVtDSDJdW0NIMl1bQ0BdOChbT0hdKVtDQEBdNyhbQ0gzXSlbQ0gyXVtDSDJdQyg9TylbQ0gyXTg=

>  <s_epik_cmdline>  (8) 
J2VwaWtfcHl0aG9uJywgJy1waHQnLCAnMi4wJywgJy1waCcsICc3LjAnLCAnLXRuJywgJzgnLCAnLW1hJywgJzIwMCcsICctaW1hZScsICc8aW5maWxlLm1hZT4nLCAnLW9tYWUnLCAnPG91dGZpbGUubWFlPic=

>  <r_lp_tautomer_probability>  (8) 
1

>  <r_epik_Ionization_Penalty>  (8) 
9.18803e-07

>  <r_epik_Ionization_Penalty_Charging>  (8) 
0

>  <r_epik_Ionization_Penalty_Neutral>  (8) 
9.18803e-07

>  <r_epik_State_Penalty>  (8) 
-0

>  <r_epik_Charging_Adjusted_Penalty>  (8) 
0

>  <i_epik_Tot_Q>  (8) 
0

>  <i_epik_Tot_abs_Q>  (8) 
0

>  <s_lp_Force_Field>  (8) 
OPLS3e

>  <r_lp_Energy>  (8) 
164.643

>  <b_lp_Chiralities_Consistent>  (8) 
1

>  <s_lp_Variant>  (8) 
2:0-1

>  <s_i_glide_gridfile>  (8) 
pfpi4k_grid

>  <i_i_glide_lignum>  (8) 
3

>  <i_i_glide_rotatable_bonds>  (8) 
5

>  <r_i_docking_score>  (8) 
-2.74048

>  <r_i_glide_ligand_efficiency>  (8) 
-0.0761244

>  <r_i_glide_ligand_efficiency_sa>  (8) 
-0.251357

>  <r_i_glide_ligand_efficiency_ln>  (8) 
-0.597898

>  <r_i_glide_gscore>  (8) 
-2.74048

>  <r_i_glide_lipo>  (8) 
-0.459538

>  <r_i_glide_hbond>  (8) 
0

>  <r_i_glide_metal>  (8) 
-0

>  <r_i_glide_rewards>  (8) 
-0.196991

>  <r_i_glide_evdw>  (8) 
-20.6437

>  <r_i_glide_ecoul>  (8) 
-6.60115

>  <r_i_glide_erotb>  (8) 
0

>  <r_i_glide_esite>  (8) 
-0.0615932

>  <r_i_glide_emodel>  (8) 
-31.9144

>  <r_i_glide_energy>  (8) 
-27.2448

>  <r_i_glide_einternal>  (8) 
0.924309

>  <r_i_glide_intrahb_reward>  (8) 
-0

>  <i_i_glide_confnum>  (8) 
1

>  <i_i_glide_posenum>  (8) 
8

>  <r_i_glide_eff_state_penalty>  (8) 
0

>  <ligand_id>  (8) 
2

>  <original_smiles>  (8) 
C=C1C(=O)C23C(O)C4C(C5(O)CCC6(O)CC(=O)CCC6(C)C45C)C45OCC4C2(C)CC1C(O)C53O

>  <smiles>  (8) 
[H]OC1([H])C2([H])C(=C([H])[H])C(=O)C34C([H])(O[H])C5([H])C([H])(C6(OC([H])([H])C6([H])C3(C([H])([H])[H])C2([H])[H])C14O[H])C1(O[H])C([H])([H])C([H])([H])C2(O[H])C([H])([H])C(=O)C([H])([H])C([H])([H])C2(C([H])([H])[H])C51C([H])([H])[H]

$$$$
2:0:2
     RDKit          3D

 72 79  0  0  1  0  0  0  0  0999 V2000
    6.0846   -3.0564   -1.3935 C   0  0  0  0  0  0  0  0  0  0  0  0
    5.4071   -3.4705   -0.3136 C   0  0  0  0  0  0  0  0  0  0  0  0
    5.4863   -2.7759    0.9769 C   0  0  0  0  0  0  0  0  0  0  0  0
    6.3739   -1.9534    1.2182 O   0  0  0  0  0  0  0  0  0  0  0  0
    4.4384   -3.2545    2.0455 C   0  0  2  0  0  0  0  0  0  0  0  0
    4.4708   -2.2812    3.3506 C   0  0  1  0  0  0  0  0  0  0  0  0
    4.8270   -0.9203    3.1577 O   0  0  0  0  0  0  0  0  0  0  0  0
    3.0741   -2.1512    3.9582 C   0  0  1  0  0  0  0  0  0  0  0  0
    2.5221   -3.5319    4.0602 C   0  0  1  0  0  0  0  0  0  0  0  0
    1.5076   -2.9651    5.0470 C   0  0  2  0  0  0  0  0  0  0  0  0
    1.1995   -3.8133    6.1269 O   0  0  0  0  0  0  0  0  0  0  0  0
    0.1585   -2.5902    4.4527 C   0  0  0  0  0  0  0  0  0  0  0  0
   -0.4122   -1.3437    5.1132 C   0  0  0  0  0  0  0  0  0  0  0  0
    0.5504   -0.1365    5.0057 C   0  0  1  0  0  0  0  0  0  0  0  0
    0.7295    0.1426    3.6301 O   0  0  0  0  0  0  0  0  0  0  0  0
   -0.1804    1.1494    5.4681 C   0  0  0  0  0  0  0  0  0  0  0  0
   -0.3498    1.1905    6.9732 C   0  0  0  0  0  0  0  0  0  0  0  0
   -1.4449    1.3702    7.5098 O   0  0  0  0  0  0  0  0  0  0  0  0
    0.9204    0.9631    7.7683 C   0  0  0  0  0  0  0  0  0  0  0  0
    1.6418   -0.3120    7.2883 C   0  0  0  0  0  0  0  0  0  0  0  0
    1.9345   -0.4105    5.7476 C   0  0  2  0  0  0  0  0  0  0  0  0
    2.9355    0.7225    5.3948 C   0  0  0  0  0  0  0  0  0  0  0  0
    2.5705   -1.8432    5.3991 C   0  0  2  0  0  0  0  0  0  0  0  0
    3.6519   -2.2020    6.4519 C   0  0  0  0  0  0  0  0  0  0  0  0
    2.3473   -4.2492    2.6732 C   0  0  2  0  0  0  0  0  0  0  0  0
    1.2619   -5.2112    2.8465 O   0  0  0  0  0  0  0  0  0  0  0  0
    2.2659   -6.1223    3.4414 C   0  0  0  0  0  0  0  0  0  0  0  0
    3.2305   -5.4520    2.4870 C   0  0  2  0  0  0  0  0  0  0  0  0
    4.6517   -4.8530    2.3376 C   0  0  2  0  0  0  0  0  0  0  0  0
    5.6264   -5.2378    3.4659 C   0  0  0  0  0  0  0  0  0  0  0  0
    5.1192   -5.5126    0.9891 C   0  0  0  0  0  0  0  0  0  0  0  0
    4.5343   -4.7026   -0.2140 C   0  0  1  0  0  0  0  0  0  0  0  0
    3.0808   -4.1525    0.0136 C   0  0  1  0  0  0  0  0  0  0  0  0
    2.0610   -5.0776   -0.3193 O   0  0  0  0  0  0  0  0  0  0  0  0
    2.9526   -3.4529    1.4464 C   0  0  2  0  0  0  0  0  0  0  0  0
    2.2907   -2.2277    1.2019 O   0  0  0  0  0  0  0  0  0  0  0  0
    6.0428   -3.5854   -2.3340 H   0  0  0  0  0  0  0  0  0  0  0  0
    6.7051   -2.1739   -1.3507 H   0  0  0  0  0  0  0  0  0  0  0  0
    5.1791   -2.6758    4.0774 H   0  0  0  0  0  0  0  0  0  0  0  0
    4.2785   -0.5441    2.4822 H   0  0  0  0  0  0  0  0  0  0  0  0
    2.4611   -1.5152    3.3452 H   0  0  0  0  0  0  0  0  0  0  0  0
    3.2360   -4.1108    4.6338 H   0  0  0  0  0  0  0  0  0  0  0  0
    2.0112   -4.2267    6.3766 H   0  0  0  0  0  0  0  0  0  0  0  0
    0.2526   -2.4091    3.3827 H   0  0  0  0  0  0  0  0  0  0  0  0
   -0.5448   -3.4200    4.5347 H   0  0  0  0  0  0  0  0  0  0  0  0
   -1.3728   -1.1127    4.6539 H   0  0  0  0  0  0  0  0  0  0  0  0
   -0.6230   -1.5738    6.1588 H   0  0  0  0  0  0  0  0  0  0  0  0
    1.2538   -0.5435    3.2413 H   0  0  0  0  0  0  0  0  0  0  0  0
    0.3711    2.0386    5.1647 H   0  0  0  0  0  0  0  0  0  0  0  0
   -1.1588    1.2290    4.9942 H   0  0  0  0  0  0  0  0  0  0  0  0
    1.5649    1.8330    7.6470 H   0  0  0  0  0  0  0  0  0  0  0  0
    0.6828    0.8966    8.8291 H   0  0  0  0  0  0  0  0  0  0  0  0
    2.5662   -0.3585    7.8615 H   0  0  0  0  0  0  0  0  0  0  0  0
    1.0572   -1.1763    7.6020 H   0  0  0  0  0  0  0  0  0  0  0  0
    3.8642    0.6456    5.9592 H   0  0  0  0  0  0  0  0  0  0  0  0
    2.5275    1.7082    5.6140 H   0  0  0  0  0  0  0  0  0  0  0  0
    3.1937    0.7329    4.3361 H   0  0  0  0  0  0  0  0  0  0  0  0
    3.2280   -2.4165    7.4318 H   0  0  0  0  0  0  0  0  0  0  0  0
    4.3892   -1.4073    6.5635 H   0  0  0  0  0  0  0  0  0  0  0  0
    4.2301   -3.0859    6.1887 H   0  0  0  0  0  0  0  0  0  0  0  0
    2.4126   -6.0078    4.5155 H   0  0  0  0  0  0  0  0  0  0  0  0
    2.0708   -7.1677    3.2015 H   0  0  0  0  0  0  0  0  0  0  0  0
    2.9717   -6.0658    1.6287 H   0  0  0  0  0  0  0  0  0  0  0  0
    5.7651   -6.3211    3.5123 H   0  0  0  0  0  0  0  0  0  0  0  0
    5.2823   -4.9212    4.4516 H   0  0  0  0  0  0  0  0  0  0  0  0
    6.6105   -4.7961    3.2930 H   0  0  0  0  0  0  0  0  0  0  0  0
    6.2124   -5.5317    0.9271 H   0  0  0  0  0  0  0  0  0  0  0  0
    4.8373   -6.5653    0.9193 H   0  0  0  0  0  0  0  0  0  0  0  0
    4.6206   -5.2664   -1.1429 H   0  0  0  0  0  0  0  0  0  0  0  0
    2.9472   -3.3937   -0.7590 H   0  0  0  0  0  0  0  0  0  0  0  0
    2.2474   -5.4163   -1.2006 H   0  0  0  0  0  0  0  0  0  0  0  0
    2.4332   -1.9306    0.3106 H   0  0  0  0  0  0  0  0  0  0  0  0
  1  2  2  0
  1 37  1  0
  1 38  1  0
  2 32  1  0
  2  3  1  0
  3  4  2  0
  5  3  1  6
  5 29  1  0
  5 35  1  0
  5  6  1  0
  6  7  1  0
  6  8  1  0
  6 39  1  1
  7 40  1  0
  8 23  1  0
  8  9  1  0
  8 41  1  6
  9 10  1  0
  9 25  1  0
  9 42  1  1
 10 23  1  0
 10 11  1  1
 10 12  1  0
 11 43  1  0
 12 13  1  0
 12 44  1  0
 12 45  1  0
 13 14  1  0
 13 46  1  0
 13 47  1  0
 14 21  1  0
 14 15  1  6
 14 16  1  0
 15 48  1  0
 16 17  1  0
 16 49  1  0
 16 50  1  0
 17 18  2  0
 17 19  1  0
 19 20  1  0
 19 51  1  0
 19 52  1  0
 20 21  1  0
 20 53  1  0
 20 54  1  0
 21 22  1  6
 21 23  1  0
 22 55  1  0
 22 56  1  0
 22 57  1  0
 23 24  1  1
 24 58  1  0
 24 59  1  0
 24 60  1  0
 25 28  1  0
 25 35  1  0
 25 26  1  6
 26 27  1  0
 27 28  1  0
 27 61  1  0
 27 62  1  0
 28 29  1  0
 28 63  1  6
 29 30  1  1
 29 31  1  0
 30 64  1  0
 30 65  1  0
 30 66  1  0
 31 32  1  0
 31 67  1  0
 31 68  1  0
 32 33  1  0
 32 69  1  6
 33 34  1  0
 33 35  1  0
 33 70  1  6
 34 71  1  0
 35 36  1  6
 36 72  1  0
M  END
>  <i_m_ct_stereo_status>  (9) 
1

>  <s_m_source_file>  (9) 
/var/tmp/pbs.5076255.sched01/tmppz0entnt/04_lepiep.sdf

>  <i_m_source_file_index>  (9) 
3

>  <i_lp_mmshare_version>  (9) 
48012

>  <i_f3d_flags>  (9) 
0

>  <s_epik_input>  (9) 
Tz1DMUMoPVtDSDJdKVtDQEBIXShbQ0gyXTIpW0NAQEhdKFtPSF0pW0NAQF0zKFtPSF0pW0NAQF0oT1tDSDJdNCkoW0NASF00W0NAQF0yKFtDQEBdMTM1KVtDSDNdKVtDQEhdNltDQEhdKFtDQEBIXTVbT0hdKVtDQF03KFtDSDNdKVtDQEBdNihbT0hdKVtDSDJdW0NIMl1bQ0BdOChbT0hdKVtDQEBdNyhbQ0gzXSlbQ0gyXVtDSDJdQyg9TylbQ0gyXTg=

>  <s_epik_cmdline>  (9) 
J2VwaWtfcHl0aG9uJywgJy1waHQnLCAnMi4wJywgJy1waCcsICc3LjAnLCAnLXRuJywgJzgnLCAnLW1hJywgJzIwMCcsICctaW1hZScsICc8aW5maWxlLm1hZT4nLCAnLW9tYWUnLCAnPG91dGZpbGUubWFlPic=

>  <r_lp_tautomer_probability>  (9) 
1

>  <r_epik_Ionization_Penalty>  (9) 
9.18803e-07

>  <r_epik_Ionization_Penalty_Charging>  (9) 
0

>  <r_epik_Ionization_Penalty_Neutral>  (9) 
9.18803e-07

>  <r_epik_State_Penalty>  (9) 
-0

>  <r_epik_Charging_Adjusted_Penalty>  (9) 
0

>  <i_epik_Tot_Q>  (9) 
0

>  <i_epik_Tot_abs_Q>  (9) 
0

>  <s_lp_Force_Field>  (9) 
OPLS3e

>  <r_lp_Energy>  (9) 
164.643

>  <b_lp_Chiralities_Consistent>  (9) 
1

>  <s_lp_Variant>  (9) 
2:0-1

>  <s_i_glide_gridfile>  (9) 
pfpi4k_grid

>  <i_i_glide_lignum>  (9) 
3

>  <i_i_glide_rotatable_bonds>  (9) 
5

>  <r_i_docking_score>  (9) 
-2.70473

>  <r_i_glide_ligand_efficiency>  (9) 
-0.0751313

>  <r_i_glide_ligand_efficiency_sa>  (9) 
-0.248078

>  <r_i_glide_ligand_efficiency_ln>  (9) 
-0.590098

>  <r_i_glide_gscore>  (9) 
-2.70473

>  <r_i_glide_lipo>  (9) 
-0.320515

>  <r_i_glide_hbond>  (9) 
-0.0461955

>  <r_i_glide_metal>  (9) 
-0

>  <r_i_glide_rewards>  (9) 
-0.0762706

>  <r_i_glide_evdw>  (9) 
-20.4937

>  <r_i_glide_ecoul>  (9) 
-8.10515

>  <r_i_glide_erotb>  (9) 
0

>  <r_i_glide_esite>  (9) 
-0.0212883

>  <r_i_glide_emodel>  (9) 
-33.0534

>  <r_i_glide_energy>  (9) 
-28.5988

>  <r_i_glide_einternal>  (9) 
0.813659

>  <r_i_glide_intrahb_reward>  (9) 
-0

>  <i_i_glide_confnum>  (9) 
1

>  <i_i_glide_posenum>  (9) 
25

>  <r_i_glide_eff_state_penalty>  (9) 
0

>  <ligand_id>  (9) 
2

>  <original_smiles>  (9) 
C=C1C(=O)C23C(O)C4C(C5(O)CCC6(O)CC(=O)CCC6(C)C45C)C45OCC4C2(C)CC1C(O)C53O

>  <smiles>  (9) 
[H]OC1([H])C2([H])C(=C([H])[H])C(=O)C34C([H])(O[H])C5([H])C([H])(C6(OC([H])([H])C6([H])C3(C([H])([H])[H])C2([H])[H])C14O[H])C1(O[H])C([H])([H])C([H])([H])C2(O[H])C([H])([H])C(=O)C([H])([H])C([H])([H])C2(C([H])([H])[H])C51C([H])([H])[H]

$$$$
4:0:0
     RDKit          3D

 60 64  0  0  1  0  0  0  0  0999 V2000
    3.0899   -3.4542    4.7318 C   0  0  0  0  0  0  0  0  0  0  0  0
    2.7197   -4.9096    5.0937 C   0  0  2  0  0  0  0  0  0  0  0  0
    2.7212   -4.9194    6.5011 O   0  0  0  0  0  0  0  0  0  0  0  0
    3.5796   -6.1221    4.5206 C   0  0  2  0  0  0  0  0  0  0  0  0
    3.1221   -7.4181    5.2860 C   0  0  0  0  0  0  0  0  0  0  0  0
    4.2080   -7.7355    6.3258 C   0  0  0  0  0  0  0  0  0  0  0  0
    5.4981   -7.2435    5.6859 C   0  0  0  0  0  0  0  0  0  0  0  0
    5.0837   -5.9961    4.8960 C   0  0  1  0  0  0  0  0  0  0  0  0
    5.8934   -5.7659    3.6028 C   0  0  0  0  0  0  0  0  0  0  0  0
    4.8417   -5.3296    2.5695 C   0  0  1  0  0  0  0  0  0  0  0  0
    5.2003   -5.3188    1.0585 C   0  0  2  0  0  0  0  0  0  0  0  0
    6.4780   -4.4969    0.7489 C   0  0  0  0  0  0  0  0  0  0  0  0
    6.2956   -3.2263   -0.0403 C   0  0  0  0  0  0  0  0  0  0  0  0
    5.1281   -2.6911   -0.4404 C   0  0  0  0  0  0  0  0  0  0  0  0
    5.0987   -1.3498   -1.1765 C   0  0  0  0  0  0  0  0  0  0  0  0
    4.1207   -1.3414   -2.3577 C   0  0  0  0  0  0  0  0  0  0  0  0
    4.2314   -0.4611   -3.2052 O   0  0  0  0  0  0  0  0  0  0  0  0
    3.0658   -2.3496   -2.4194 C   0  0  0  0  0  0  0  0  0  0  0  0
    2.9072   -3.2445   -1.4335 C   0  0  0  0  0  0  0  0  0  0  0  0
    3.7844   -3.3731   -0.1764 C   0  0  2  0  0  0  0  0  0  0  0  0
    3.1040   -2.5495    0.9248 C   0  0  0  0  0  0  0  0  0  0  0  0
    3.9652   -4.8900    0.1927 C   0  0  2  0  0  0  0  0  0  0  0  0
    2.6646   -5.6330    0.6264 C   0  0  0  0  0  0  0  0  0  0  0  0
    2.3804   -5.7092    2.1514 C   0  0  0  0  0  0  0  0  0  0  0  0
    3.6178   -6.2227    2.9345 C   0  0  2  0  0  0  0  0  0  0  0  0
    3.8609   -7.7087    2.4671 C   0  0  0  0  0  0  0  0  0  0  0  0
    2.9126   -3.2260    3.6903 H   0  0  0  0  0  0  0  0  0  0  0  0
    4.1374   -3.2286    4.9612 H   0  0  0  0  0  0  0  0  0  0  0  0
    2.4903   -2.7381    5.3035 H   0  0  0  0  0  0  0  0  0  0  0  0
    1.6863   -5.0833    4.8018 H   0  0  0  0  0  0  0  0  0  0  0  0
    2.2303   -4.1603    6.7975 H   0  0  0  0  0  0  0  0  0  0  0  0
    2.1513   -7.3019    5.7664 H   0  0  0  0  0  0  0  0  0  0  0  0
    3.0035   -8.3074    4.6705 H   0  0  0  0  0  0  0  0  0  0  0  0
    4.0177   -7.1830    7.2464 H   0  0  0  0  0  0  0  0  0  0  0  0
    4.2530   -8.7938    6.5825 H   0  0  0  0  0  0  0  0  0  0  0  0
    6.2765   -7.0318    6.4190 H   0  0  0  0  0  0  0  0  0  0  0  0
    5.8808   -8.0189    5.0205 H   0  0  0  0  0  0  0  0  0  0  0  0
    5.1921   -5.1509    5.5801 H   0  0  0  0  0  0  0  0  0  0  0  0
    6.6299   -4.9938    3.7660 H   0  0  0  0  0  0  0  0  0  0  0  0
    6.4289   -6.6688    3.2843 H   0  0  0  0  0  0  0  0  0  0  0  0
    4.6509   -4.2862    2.7874 H   0  0  0  0  0  0  0  0  0  0  0  0
    5.4735   -6.3319    0.7641 H   0  0  0  0  0  0  0  0  0  0  0  0
    6.9890   -4.2187    1.6684 H   0  0  0  0  0  0  0  0  0  0  0  0
    7.1672   -5.1257    0.1823 H   0  0  0  0  0  0  0  0  0  0  0  0
    7.2211   -2.6987   -0.2578 H   0  0  0  0  0  0  0  0  0  0  0  0
    4.8409   -0.5456   -0.4930 H   0  0  0  0  0  0  0  0  0  0  0  0
    6.0958   -1.1453   -1.5568 H   0  0  0  0  0  0  0  0  0  0  0  0
    2.3843   -2.2958   -3.2587 H   0  0  0  0  0  0  0  0  0  0  0  0
    2.0754   -3.9327   -1.5135 H   0  0  0  0  0  0  0  0  0  0  0  0
    2.9680   -1.5046    0.6201 H   0  0  0  0  0  0  0  0  0  0  0  0
    3.7349   -2.5505    1.8069 H   0  0  0  0  0  0  0  0  0  0  0  0
    2.1126   -2.9289    1.1594 H   0  0  0  0  0  0  0  0  0  0  0  0
    4.2136   -5.3165   -0.7825 H   0  0  0  0  0  0  0  0  0  0  0  0
    1.7920   -5.1987    0.1451 H   0  0  0  0  0  0  0  0  0  0  0  0
    2.7316   -6.6332    0.2321 H   0  0  0  0  0  0  0  0  0  0  0  0
    2.0587   -4.7268    2.4695 H   0  0  0  0  0  0  0  0  0  0  0  0
    1.5225   -6.3613    2.3349 H   0  0  0  0  0  0  0  0  0  0  0  0
    4.1366   -7.8102    1.4212 H   0  0  0  0  0  0  0  0  0  0  0  0
    2.9562   -8.3146    2.5650 H   0  0  0  0  0  0  0  0  0  0  0  0
    4.6535   -8.1979    3.0319 H   0  0  0  0  0  0  0  0  0  0  0  0
  1  2  1  0
  1 27  1  0
  1 28  1  0
  1 29  1  0
  2  3  1  0
  2  4  1  0
  2 30  1  6
  3 31  1  0
  4  8  1  0
  4 25  1  0
  4  5  1  1
  5  6  1  0
  5 32  1  0
  5 33  1  0
  6  7  1  0
  6 34  1  0
  6 35  1  0
  7  8  1  0
  7 36  1  0
  7 37  1  0
  8  9  1  0
  8 38  1  1
  9 10  1  0
  9 39  1  0
  9 40  1  0
 10 25  1  0
 10 11  1  0
 10 41  1  1
 11 22  1  0
 11 12  1  0
 11 42  1  6
 12 13  1  0
 12 43  1  0
 12 44  1  0
 13 14  2  0
 13 45  1  0
 14 20  1  0
 14 15  1  0
 15 16  1  0
 15 46  1  0
 15 47  1  0
 16 17  2  0
 16 18  1  0
 18 19  2  0
 18 48  1  0
 19 20  1  0
 19 49  1  0
 20 21  1  1
 20 22  1  0
 21 50  1  0
 21 51  1  0
 21 52  1  0
 22 23  1  0
 22 53  1  6
 23 24  1  0
 23 54  1  0
 23 55  1  0
 24 25  1  0
 24 56  1  0
 24 57  1  0
 25 26  1  1
 26 58  1  0
 26 59  1  0
 26 60  1  0
M  END
>  <i_m_ct_stereo_status>  (10) 
1

>  <s_m_source_file>  (10) 
/var/tmp/pbs.5076255.sched01/tmppz0entnt/04_lepiep.sdf

>  <i_m_source_file_index>  (10) 
5

>  <i_lp_mmshare_version>  (10) 
48012

>  <i_f3d_flags>  (10) 
0

>  <s_epik_input>  (10) 
W0NIM11bQ0BIXShbT0hdKVtDQEBdMTJbQ0BASF0oW0NIMl1bQ0gyXVtDSDJdMSlbQ0gyXVtDQEhdM1tDQEhdNFtDQEBIXShbQ0gyXVtDSDJdW0NAXTIzW0NIM10pW0NAQF01KFtDSDNdKUMoPVtDSF1bQ0gyXTQpW0NIMl1DKD1PKVtDSF09W0NIXTU=

>  <s_epik_cmdline>  (10) 
J2VwaWtfcHl0aG9uJywgJy1waHQnLCAnMi4wJywgJy1waCcsICc3LjAnLCAnLXRuJywgJzgnLCAnLW1hJywgJzIwMCcsICctaW1hZScsICc8aW5maWxlLm1hZT4nLCAnLW9tYWUnLCAnPG91dGZpbGUubWFlPic=

>  <r_lp_tautomer_probability>  (10) 
1

>  <r_epik_Ionization_Penalty>  (10) 
1.38267e-06

>  <r_epik_Ionization_Penalty_Charging>  (10) 
0

>  <r_epik_Ionization_Penalty_Neutral>  (10) 
1.38267e-06

>  <r_epik_State_Penalty>  (10) 
-0

>  <r_epik_Charging_Adjusted_Penalty>  (10) 
0

>  <i_epik_Tot_Q>  (10) 
0

>  <i_epik_Tot_abs_Q>  (10) 
0

>  <s_lp_Force_Field>  (10) 
OPLS3e

>  <r_lp_Energy>  (10) 
60.3315

>  <b_lp_Chiralities_Consistent>  (10) 
1

>  <s_lp_Variant>  (10) 
4:0-1

>  <s_i_glide_gridfile>  (10) 
pfpi4k_grid

>  <i_i_glide_lignum>  (10) 
5

>  <i_i_glide_rotatable_bonds>  (10) 
2

>  <r_i_docking_score>  (10) 
-2.60022

>  <r_i_glide_ligand_efficiency>  (10) 
-0.100009

>  <r_i_glide_ligand_efficiency_sa>  (10) 
-0.296275

>  <r_i_glide_ligand_efficiency_ln>  (10) 
-0.610654

>  <r_i_glide_gscore>  (10) 
-2.60022

>  <r_i_glide_lipo>  (10) 
-0.367052

>  <r_i_glide_hbond>  (10) 
0

>  <r_i_glide_metal>  (10) 
-0

>  <r_i_glide_rewards>  (10) 
-0.991871

>  <r_i_glide_evdw>  (10) 
-24.8416

>  <r_i_glide_ecoul>  (10) 
-0.724895

>  <r_i_glide_erotb>  (10) 
0.152041

>  <r_i_glide_esite>  (10) 
-0.0425256

>  <r_i_glide_emodel>  (10) 
-28.4407

>  <r_i_glide_energy>  (10) 
-25.5665

>  <r_i_glide_einternal>  (10) 
1.66314

>  <r_i_glide_intrahb_reward>  (10) 
-0

>  <i_i_glide_confnum>  (10) 
2

>  <i_i_glide_posenum>  (10) 
1

>  <r_i_glide_eff_state_penalty>  (10) 
0

>  <ligand_id>  (10) 
4

>  <original_smiles>  (10) 
CC(O)C12CCCC1CC1C3CC=C4CC(=O)C=CC4(C)C3CCC12C

>  <smiles>  (10) 
[H]OC([H])(C([H])([H])[H])C12C([H])([H])C([H])([H])C([H])([H])C1([H])C([H])([H])C1([H])C3([H])C([H])([H])C([H])=C4C([H])([H])C(=O)C([H])=C([H])C4(C([H])([H])[H])C3([H])C([H])([H])C([H])([H])C12C([H])([H])[H]

$$$$
4:0:1
     RDKit          3D

 60 64  0  0  1  0  0  0  0  0999 V2000
    2.5110   -3.3665    4.8482 C   0  0  0  0  0  0  0  0  0  0  0  0
    2.0171   -4.7761    5.2308 C   0  0  2  0  0  0  0  0  0  0  0  0
    1.8924   -4.7208    6.6358 O   0  0  0  0  0  0  0  0  0  0  0  0
    2.8497   -6.0541    4.7966 C   0  0  2  0  0  0  0  0  0  0  0  0
    2.2590   -7.2897    5.5799 C   0  0  0  0  0  0  0  0  0  0  0  0
    3.2361   -7.6068    6.7232 C   0  0  0  0  0  0  0  0  0  0  0  0
    4.6004   -7.2179    6.1700 C   0  0  0  0  0  0  0  0  0  0  0  0
    4.3282   -5.9893    5.2900 C   0  0  1  0  0  0  0  0  0  0  0  0
    5.2529   -5.8588    4.0574 C   0  0  0  0  0  0  0  0  0  0  0  0
    4.3076   -5.4404    2.9212 C   0  0  1  0  0  0  0  0  0  0  0  0
    4.7879   -5.5240    1.4475 C   0  0  2  0  0  0  0  0  0  0  0  0
    6.1327   -4.7976    1.2055 C   0  0  0  0  0  0  0  0  0  0  0  0
    6.0921   -3.5597    0.3342 C   0  0  0  0  0  0  0  0  0  0  0  0
    4.9866   -2.9842   -0.1781 C   0  0  0  0  0  0  0  0  0  0  0  0
    5.1018   -1.6843   -0.9794 C   0  0  0  0  0  0  0  0  0  0  0  0
    4.2291   -1.6829   -2.2355 C   0  0  0  0  0  0  0  0  0  0  0  0
    4.4887   -0.8591   -3.1130 O   0  0  0  0  0  0  0  0  0  0  0  0
    3.1156   -2.6251   -2.3312 C   0  0  0  0  0  0  0  0  0  0  0  0
    2.8195   -3.4488   -1.3206 C   0  0  0  0  0  0  0  0  0  0  0  0
    3.5933   -3.5800    0.0044 C   0  0  2  0  0  0  0  0  0  0  0  0
    2.8838   -2.6666    1.0061 C   0  0  0  0  0  0  0  0  0  0  0  0
    3.6553   -5.0934    0.4529 C   0  0  2  0  0  0  0  0  0  0  0  0
    2.2828   -5.7432    0.8147 C   0  0  0  0  0  0  0  0  0  0  0  0
    1.8822   -5.7119    2.3128 C   0  0  0  0  0  0  0  0  0  0  0  0
    3.0143   -6.2442    3.2242 C   0  0  2  0  0  0  0  0  0  0  0  0
    3.2064   -7.7630    2.8513 C   0  0  0  0  0  0  0  0  0  0  0  0
    2.4444   -3.1766    3.7861 H   0  0  0  0  0  0  0  0  0  0  0  0
    3.5394   -3.1847    5.1596 H   0  0  0  0  0  0  0  0  0  0  0  0
    1.9058   -2.5976    5.3305 H   0  0  0  0  0  0  0  0  0  0  0  0
    1.0010   -4.8989    4.8538 H   0  0  0  0  0  0  0  0  0  0  0  0
    2.7567   -4.6094    7.0057 H   0  0  0  0  0  0  0  0  0  0  0  0
    1.2570   -7.1014    5.9697 H   0  0  0  0  0  0  0  0  0  0  0  0
    2.1428   -8.2047    5.0018 H   0  0  0  0  0  0  0  0  0  0  0  0
    3.0012   -7.0019    7.5998 H   0  0  0  0  0  0  0  0  0  0  0  0
    3.2004   -8.6528    7.0311 H   0  0  0  0  0  0  0  0  0  0  0  0
    5.3260   -7.0093    6.9562 H   0  0  0  0  0  0  0  0  0  0  0  0
    4.9913   -8.0452    5.5780 H   0  0  0  0  0  0  0  0  0  0  0  0
    4.4354   -5.1197    5.9365 H   0  0  0  0  0  0  0  0  0  0  0  0
    6.0202   -5.1098    4.2404 H   0  0  0  0  0  0  0  0  0  0  0  0
    5.7625   -6.8010    3.8329 H   0  0  0  0  0  0  0  0  0  0  0  0
    4.1540   -4.3794    3.0724 H   0  0  0  0  0  0  0  0  0  0  0  0
    5.0272   -6.5654    1.2283 H   0  0  0  0  0  0  0  0  0  0  0  0
    6.5863   -4.4937    2.1508 H   0  0  0  0  0  0  0  0  0  0  0  0
    6.8321   -5.4869    0.7284 H   0  0  0  0  0  0  0  0  0  0  0  0
    7.0553   -3.0871    0.1808 H   0  0  0  0  0  0  0  0  0  0  0  0
    4.8333   -0.8357   -0.3542 H   0  0  0  0  0  0  0  0  0  0  0  0
    6.1387   -1.5446   -1.2793 H   0  0  0  0  0  0  0  0  0  0  0  0
    2.5102   -2.5893   -3.2282 H   0  0  0  0  0  0  0  0  0  0  0  0
    1.9731   -4.1101   -1.4493 H   0  0  0  0  0  0  0  0  0  0  0  0
    2.8329   -1.6314    0.6469 H   0  0  0  0  0  0  0  0  0  0  0  0
    3.4382   -2.6476    1.9400 H   0  0  0  0  0  0  0  0  0  0  0  0
    1.8561   -2.9716    1.1818 H   0  0  0  0  0  0  0  0  0  0  0  0
    3.9558   -5.5759   -0.4779 H   0  0  0  0  0  0  0  0  0  0  0  0
    1.4789   -5.2958    0.2382 H   0  0  0  0  0  0  0  0  0  0  0  0
    2.3063   -6.7745    0.4823 H   0  0  0  0  0  0  0  0  0  0  0  0
    1.6107   -4.6953    2.5582 H   0  0  0  0  0  0  0  0  0  0  0  0
    0.9677   -6.2873    2.4665 H   0  0  0  0  0  0  0  0  0  0  0  0
    3.5608   -7.9390    1.8359 H   0  0  0  0  0  0  0  0  0  0  0  0
    2.2627   -8.3184    2.9004 H   0  0  0  0  0  0  0  0  0  0  0  0
    3.9223   -8.2688    3.5033 H   0  0  0  0  0  0  0  0  0  0  0  0
  1  2  1  0
  1 27  1  0
  1 28  1  0
  1 29  1  0
  2  3  1  0
  2  4  1  0
  2 30  1  6
  3 31  1  0
  4  8  1  0
  4 25  1  0
  4  5  1  1
  5  6  1  0
  5 32  1  0
  5 33  1  0
  6  7  1  0
  6 34  1  0
  6 35  1  0
  7  8  1  0
  7 36  1  0
  7 37  1  0
  8  9  1  0
  8 38  1  1
  9 10  1  0
  9 39  1  0
  9 40  1  0
 10 25  1  0
 10 11  1  0
 10 41  1  1
 11 22  1  0
 11 12  1  0
 11 42  1  6
 12 13  1  0
 12 43  1  0
 12 44  1  0
 13 14  2  0
 13 45  1  0
 14 20  1  0
 14 15  1  0
 15 16  1  0
 15 46  1  0
 15 47  1  0
 16 17  2  0
 16 18  1  0
 18 19  2  0
 18 48  1  0
 19 20  1  0
 19 49  1  0
 20 21  1  1
 20 22  1  0
 21 50  1  0
 21 51  1  0
 21 52  1  0
 22 23  1  0
 22 53  1  6
 23 24  1  0
 23 54  1  0
 23 55  1  0
 24 25  1  0
 24 56  1  0
 24 57  1  0
 25 26  1  1
 26 58  1  0
 26 59  1  0
 26 60  1  0
M  END
>  <i_m_ct_stereo_status>  (11) 
1

>  <s_m_source_file>  (11) 
/var/tmp/pbs.5076255.sched01/tmppz0entnt/04_lepiep.sdf

>  <i_m_source_file_index>  (11) 
5

>  <i_lp_mmshare_version>  (11) 
48012

>  <i_f3d_flags>  (11) 
0

>  <s_epik_input>  (11) 
W0NIM11bQ0BIXShbT0hdKVtDQEBdMTJbQ0BASF0oW0NIMl1bQ0gyXVtDSDJdMSlbQ0gyXVtDQEhdM1tDQEhdNFtDQEBIXShbQ0gyXVtDSDJdW0NAXTIzW0NIM10pW0NAQF01KFtDSDNdKUMoPVtDSF1bQ0gyXTQpW0NIMl1DKD1PKVtDSF09W0NIXTU=

>  <s_epik_cmdline>  (11) 
J2VwaWtfcHl0aG9uJywgJy1waHQnLCAnMi4wJywgJy1waCcsICc3LjAnLCAnLXRuJywgJzgnLCAnLW1hJywgJzIwMCcsICctaW1hZScsICc8aW5maWxlLm1hZT4nLCAnLW9tYWUnLCAnPG91dGZpbGUubWFlPic=

>  <r_lp_tautomer_probability>  (11) 
1

>  <r_epik_Ionization_Penalty>  (11) 
1.38267e-06

>  <r_epik_Ionization_Penalty_Charging>  (11) 
0

>  <r_epik_Ionization_Penalty_Neutral>  (11) 
1.38267e-06

>  <r_epik_State_Penalty>  (11) 
-0

>  <r_epik_Charging_Adjusted_Penalty>  (11) 
0

>  <i_epik_Tot_Q>  (11) 
0

>  <i_epik_Tot_abs_Q>  (11) 
0

>  <s_lp_Force_Field>  (11) 
OPLS3e

>  <r_lp_Energy>  (11) 
60.3315

>  <b_lp_Chiralities_Consistent>  (11) 
1

>  <s_lp_Variant>  (11) 
4:0-1

>  <s_i_glide_gridfile>  (11) 
pfpi4k_grid

>  <i_i_glide_lignum>  (11) 
5

>  <i_i_glide_rotatable_bonds>  (11) 
2

>  <r_i_docking_score>  (11) 
-2.56158

>  <r_i_glide_ligand_efficiency>  (11) 
-0.0985222

>  <r_i_glide_ligand_efficiency_sa>  (11) 
-0.291872

>  <r_i_glide_ligand_efficiency_ln>  (11) 
-0.601578

>  <r_i_glide_gscore>  (11) 
-2.56158

>  <r_i_glide_lipo>  (11) 
-0.305168

>  <r_i_glide_hbond>  (11) 
0

>  <r_i_glide_metal>  (11) 
-0

>  <r_i_glide_rewards>  (11) 
-0.991871

>  <r_i_glide_evdw>  (11) 
-23.971

>  <r_i_glide_ecoul>  (11) 
-1.28406

>  <r_i_glide_erotb>  (11) 
0.152041

>  <r_i_glide_esite>  (11) 
-0.0254219

>  <r_i_glide_emodel>  (11) 
-28.262

>  <r_i_glide_energy>  (11) 
-25.255

>  <r_i_glide_einternal>  (11) 
1.3293

>  <r_i_glide_intrahb_reward>  (11) 
-0

>  <i_i_glide_confnum>  (11) 
2

>  <i_i_glide_posenum>  (11) 
14

>  <r_i_glide_eff_state_penalty>  (11) 
0

>  <ligand_id>  (11) 
4

>  <original_smiles>  (11) 
CC(O)C12CCCC1CC1C3CC=C4CC(=O)C=CC4(C)C3CCC12C

>  <smiles>  (11) 
[H]OC([H])(C([H])([H])[H])C12C([H])([H])C([H])([H])C([H])([H])C1([H])C([H])([H])C1([H])C3([H])C([H])([H])C([H])=C4C([H])([H])C(=O)C([H])=C([H])C4(C([H])([H])[H])C3([H])C([H])([H])C([H])([H])C12C([H])([H])[H]

$$$$
4:0:2
     RDKit          3D

 60 64  0  0  1  0  0  0  0  0999 V2000
    2.5244   -3.9076    6.5409 C   0  0  0  0  0  0  0  0  0  0  0  0
    2.4337   -4.3712    5.0676 C   0  0  2  0  0  0  0  0  0  0  0  0
    1.0415   -4.4927    4.8270 O   0  0  0  0  0  0  0  0  0  0  0  0
    3.1952   -5.7011    4.6862 C   0  0  2  0  0  0  0  0  0  0  0  0
    2.6860   -6.8674    5.6018 C   0  0  0  0  0  0  0  0  0  0  0  0
    3.7609   -7.0995    6.6683 C   0  0  0  0  0  0  0  0  0  0  0  0
    5.0721   -6.7476    5.9786 C   0  0  0  0  0  0  0  0  0  0  0  0
    4.7117   -5.5834    5.0447 C   0  0  1  0  0  0  0  0  0  0  0  0
    5.5323   -5.5166    3.7450 C   0  0  0  0  0  0  0  0  0  0  0  0
    4.4990   -5.1597    2.6813 C   0  0  1  0  0  0  0  0  0  0  0  0
    4.8877   -5.3188    1.1819 C   0  0  2  0  0  0  0  0  0  0  0  0
    6.2254   -4.6524    0.7827 C   0  0  0  0  0  0  0  0  0  0  0  0
    6.1288   -3.4803   -0.1698 C   0  0  0  0  0  0  0  0  0  0  0  0
    4.9926   -2.9387   -0.6439 C   0  0  0  0  0  0  0  0  0  0  0  0
    5.0472   -1.7014   -1.5459 C   0  0  0  0  0  0  0  0  0  0  0  0
    4.0694   -1.7628   -2.7235 C   0  0  0  0  0  0  0  0  0  0  0  0
    4.2323   -1.0070   -3.6759 O   0  0  0  0  0  0  0  0  0  0  0  0
    2.9534   -2.6968   -2.6647 C   0  0  0  0  0  0  0  0  0  0  0  0
    2.7350   -3.4541   -1.5720 C   0  0  0  0  0  0  0  0  0  0  0  0
    3.6077   -3.5048   -0.3095 C   0  0  2  0  0  0  0  0  0  0  0  0
    2.9704   -2.5428    0.7055 C   0  0  0  0  0  0  0  0  0  0  0  0
    3.7042   -4.9842    0.2190 C   0  0  2  0  0  0  0  0  0  0  0  0
    2.3659   -5.6018    0.7266 C   0  0  0  0  0  0  0  0  0  0  0  0
    2.0888   -5.4598    2.2429 C   0  0  0  0  0  0  0  0  0  0  0  0
    3.2584   -5.9770    3.1137 C   0  0  2  0  0  0  0  0  0  0  0  0
    3.4354   -7.5036    2.8152 C   0  0  0  0  0  0  0  0  0  0  0  0
    3.5406   -3.6851    6.8627 H   0  0  0  0  0  0  0  0  0  0  0  0
    2.1110   -4.6386    7.2380 H   0  0  0  0  0  0  0  0  0  0  0  0
    1.9581   -2.9854    6.6811 H   0  0  0  0  0  0  0  0  0  0  0  0
    2.8024   -3.5521    4.4523 H   0  0  0  0  0  0  0  0  0  0  0  0
    0.7146   -5.2095    5.3485 H   0  0  0  0  0  0  0  0  0  0  0  0
    1.7246   -6.6630    6.0681 H   0  0  0  0  0  0  0  0  0  0  0  0
    2.5366   -7.8076    5.0828 H   0  0  0  0  0  0  0  0  0  0  0  0
    3.6035   -6.4356    7.5191 H   0  0  0  0  0  0  0  0  0  0  0  0
    3.7551   -8.1209    7.0479 H   0  0  0  0  0  0  0  0  0  0  0  0
    5.8583   -6.4848    6.6879 H   0  0  0  0  0  0  0  0  0  0  0  0
    5.4208   -7.6126    5.4135 H   0  0  0  0  0  0  0  0  0  0  0  0
    4.8999   -4.6573    5.5817 H   0  0  0  0  0  0  0  0  0  0  0  0
    6.3123   -4.7634    3.8251 H   0  0  0  0  0  0  0  0  0  0  0  0
    6.0117   -6.4685    3.5136 H   0  0  0  0  0  0  0  0  0  0  0  0
    4.2839   -4.1071    2.8288 H   0  0  0  0  0  0  0  0  0  0  0  0
    5.1068   -6.3763    1.0410 H   0  0  0  0  0  0  0  0  0  0  0  0
    6.7651   -4.3041    1.6609 H   0  0  0  0  0  0  0  0  0  0  0  0
    6.8663   -5.3920    0.3029 H   0  0  0  0  0  0  0  0  0  0  0  0
    7.0797   -3.0419   -0.4415 H   0  0  0  0  0  0  0  0  0  0  0  0
    4.8285   -0.8127   -0.9534 H   0  0  0  0  0  0  0  0  0  0  0  0
    6.0577   -1.5864   -1.9322 H   0  0  0  0  0  0  0  0  0  0  0  0
    2.2826   -2.7325   -3.5116 H   0  0  0  0  0  0  0  0  0  0  0  0
    1.8820   -4.1130   -1.6025 H   0  0  0  0  0  0  0  0  0  0  0  0
    2.9364   -1.5249    0.3049 H   0  0  0  0  0  0  0  0  0  0  0  0
    3.5312   -2.4989    1.6371 H   0  0  0  0  0  0  0  0  0  0  0  0
    1.9388   -2.8150    0.9197 H   0  0  0  0  0  0  0  0  0  0  0  0
    3.9512   -5.5370   -0.6849 H   0  0  0  0  0  0  0  0  0  0  0  0
    1.5216   -5.1951    0.1800 H   0  0  0  0  0  0  0  0  0  0  0  0
    2.3555   -6.6576    0.4767 H   0  0  0  0  0  0  0  0  0  0  0  0
    1.9015   -4.4097    2.4439 H   0  0  0  0  0  0  0  0  0  0  0  0
    1.1682   -5.9856    2.5014 H   0  0  0  0  0  0  0  0  0  0  0  0
    3.7146   -7.7346    1.7902 H   0  0  0  0  0  0  0  0  0  0  0  0
    2.5000   -8.0441    2.9704 H   0  0  0  0  0  0  0  0  0  0  0  0
    4.1975   -7.9653    3.4440 H   0  0  0  0  0  0  0  0  0  0  0  0
  1  2  1  0
  1 27  1  0
  1 28  1  0
  1 29  1  0
  2  3  1  0
  2  4  1  0
  2 30  1  6
  3 31  1  0
  4  8  1  0
  4 25  1  0
  4  5  1  1
  5  6  1  0
  5 32  1  0
  5 33  1  0
  6  7  1  0
  6 34  1  0
  6 35  1  0
  7  8  1  0
  7 36  1  0
  7 37  1  0
  8  9  1  0
  8 38  1  1
  9 10  1  0
  9 39  1  0
  9 40  1  0
 10 25  1  0
 10 11  1  0
 10 41  1  6
 11 22  1  0
 11 12  1  0
 11 42  1  1
 12 13  1  0
 12 43  1  0
 12 44  1  0
 13 14  2  0
 13 45  1  0
 14 20  1  0
 14 15  1  0
 15 16  1  0
 15 46  1  0
 15 47  1  0
 16 17  2  0
 16 18  1  0
 18 19  2  0
 18 48  1  0
 19 20  1  0
 19 49  1  0
 20 21  1  1
 20 22  1  0
 21 50  1  0
 21 51  1  0
 21 52  1  0
 22 23  1  0
 22 53  1  6
 23 24  1  0
 23 54  1  0
 23 55  1  0
 24 25  1  0
 24 56  1  0
 24 57  1  0
 25 26  1  1
 26 58  1  0
 26 59  1  0
 26 60  1  0
M  END
>  <i_m_ct_stereo_status>  (12) 
1

>  <s_m_source_file>  (12) 
/var/tmp/pbs.5076255.sched01/tmppz0entnt/04_lepiep.sdf

>  <i_m_source_file_index>  (12) 
5

>  <i_lp_mmshare_version>  (12) 
48012

>  <i_f3d_flags>  (12) 
0

>  <s_epik_input>  (12) 
W0NIM11bQ0BIXShbT0hdKVtDQEBdMTJbQ0BASF0oW0NIMl1bQ0gyXVtDSDJdMSlbQ0gyXVtDQEhdM1tDQEhdNFtDQEBIXShbQ0gyXVtDSDJdW0NAXTIzW0NIM10pW0NAQF01KFtDSDNdKUMoPVtDSF1bQ0gyXTQpW0NIMl1DKD1PKVtDSF09W0NIXTU=

>  <s_epik_cmdline>  (12) 
J2VwaWtfcHl0aG9uJywgJy1waHQnLCAnMi4wJywgJy1waCcsICc3LjAnLCAnLXRuJywgJzgnLCAnLW1hJywgJzIwMCcsICctaW1hZScsICc8aW5maWxlLm1hZT4nLCAnLW9tYWUnLCAnPG91dGZpbGUubWFlPic=

>  <r_lp_tautomer_probability>  (12) 
1

>  <r_epik_Ionization_Penalty>  (12) 
1.38267e-06

>  <r_epik_Ionization_Penalty_Charging>  (12) 
0

>  <r_epik_Ionization_Penalty_Neutral>  (12) 
1.38267e-06

>  <r_epik_State_Penalty>  (12) 
-0

>  <r_epik_Charging_Adjusted_Penalty>  (12) 
0

>  <i_epik_Tot_Q>  (12) 
0

>  <i_epik_Tot_abs_Q>  (12) 
0

>  <s_lp_Force_Field>  (12) 
OPLS3e

>  <r_lp_Energy>  (12) 
60.3315

>  <b_lp_Chiralities_Consistent>  (12) 
1

>  <s_lp_Variant>  (12) 
4:0-1

>  <s_i_glide_gridfile>  (12) 
pfpi4k_grid

>  <i_i_glide_lignum>  (12) 
5

>  <i_i_glide_rotatable_bonds>  (12) 
2

>  <r_i_docking_score>  (12) 
-2.54111

>  <r_i_glide_ligand_efficiency>  (12) 
-0.0977349

>  <r_i_glide_ligand_efficiency_sa>  (12) 
-0.289539

>  <r_i_glide_ligand_efficiency_ln>  (12) 
-0.596771

>  <r_i_glide_gscore>  (12) 
-2.54111

>  <r_i_glide_lipo>  (12) 
-0.382738

>  <r_i_glide_hbond>  (12) 
0

>  <r_i_glide_metal>  (12) 
-0

>  <r_i_glide_rewards>  (12) 
-0.991871

>  <r_i_glide_evdw>  (12) 
-25.284

>  <r_i_glide_ecoul>  (12) 
-0.332729

>  <r_i_glide_erotb>  (12) 
0.152041

>  <r_i_glide_esite>  (12) 
-0.00443327

>  <r_i_glide_emodel>  (12) 
-29.2768

>  <r_i_glide_energy>  (12) 
-25.6167

>  <r_i_glide_einternal>  (12) 
0.0105481

>  <r_i_glide_intrahb_reward>  (12) 
-0

>  <i_i_glide_confnum>  (12) 
2

>  <i_i_glide_posenum>  (12) 
21

>  <r_i_glide_eff_state_penalty>  (12) 
0

>  <ligand_id>  (12) 
4

>  <original_smiles>  (12) 
CC(O)C12CCCC1CC1C3CC=C4CC(=O)C=CC4(C)C3CCC12C

>  <smiles>  (12) 
[H]OC([H])(C([H])([H])[H])C12C([H])([H])C([H])([H])C([H])([H])C1([H])C([H])([H])C1([H])C3([H])C([H])([H])C([H])=C4C([H])([H])C(=O)C([H])=C([H])C4(C([H])([H])[H])C3([H])C([H])([H])C([H])([H])C12C([H])([H])[H]

$$$$
5:0:0
     RDKit          3D

 46 51  0  0  1  0  0  0  0  0999 V2000
    4.8295   -2.2109    3.8170 C   0  0  0  0  0  0  0  0  0  0  0  0
    4.6987   -2.5385    2.5253 C   0  0  0  0  0  0  0  0  0  0  0  0
    3.4978   -3.4530    2.0053 C   0  0  1  0  0  0  0  0  0  0  0  0
    3.1446   -2.5895    0.7828 C   0  0  2  0  0  0  0  0  0  0  0  0
    4.2881   -3.3610    0.1699 C   0  0  2  0  0  0  0  0  0  0  0  0
    5.5065   -4.4076    0.7620 C   0  0  0  0  0  0  0  0  0  0  0  0
    4.7384   -5.1695    0.0356 C   0  0  2  0  0  0  0  0  0  0  0  0
    5.2659   -3.7592   -1.0182 C   0  0  1  0  0  0  0  0  0  0  0  0
    4.5959   -3.4189   -2.4502 C   0  0  2  0  0  0  0  0  0  0  0  0
    4.7646   -1.9322   -2.8492 C   0  0  0  0  0  0  0  0  0  0  0  0
    3.5166   -1.7021   -1.9523 C   0  0  2  0  0  0  0  0  0  0  0  0
    3.7932   -1.6411   -0.3833 C   0  0  2  0  0  0  0  0  0  0  0  0
    5.0816   -2.3578   -0.1339 C   0  0  1  0  0  0  0  0  0  0  0  0
    5.6548   -1.9752    1.3519 C   0  0  1  0  0  0  0  0  0  0  0  0
    5.8114   -0.5769    1.4707 O   0  0  0  0  0  0  0  0  0  0  0  0
    3.1548   -3.0451   -2.4358 N   0  0  1  0  0  0  0  0  0  0  0  0
    2.3709   -3.1440   -3.6945 C   0  0  0  0  0  0  0  0  0  0  0  0
    3.6765   -5.1349    1.4882 C   0  0  0  0  0  0  0  0  0  0  0  0
    4.1054   -6.0269    2.6963 C   0  0  0  0  0  0  0  0  0  0  0  0
    2.2945   -5.6979    1.0888 C   0  0  0  0  0  0  0  0  0  0  0  0
    5.6150   -1.5521    4.1539 H   0  0  0  0  0  0  0  0  0  0  0  0
    4.1460   -2.6048    4.5565 H   0  0  0  0  0  0  0  0  0  0  0  0
    2.6984   -3.4116    2.7498 H   0  0  0  0  0  0  0  0  0  0  0  0
    2.0974   -2.7532    0.4922 H   0  0  0  0  0  0  0  0  0  0  0  0
    3.3448   -3.7654   -0.3595 H   0  0  0  0  0  0  0  0  0  0  0  0
    6.5771   -4.3976    0.4877 H   0  0  0  0  0  0  0  0  0  0  0  0
    5.7302   -4.5782    1.8089 H   0  0  0  0  0  0  0  0  0  0  0  0
    5.1940   -6.1340   -0.1812 H   0  0  0  0  0  0  0  0  0  0  0  0
    6.3093   -3.8558   -1.3528 H   0  0  0  0  0  0  0  0  0  0  0  0
    4.8416   -4.1134   -3.2486 H   0  0  0  0  0  0  0  0  0  0  0  0
    5.6750   -1.4791   -2.4558 H   0  0  0  0  0  0  0  0  0  0  0  0
    4.6409   -1.7011   -3.9150 H   0  0  0  0  0  0  0  0  0  0  0  0
    2.8614   -0.9118   -2.3172 H   0  0  0  0  0  0  0  0  0  0  0  0
    3.8289   -0.6057   -0.0623 H   0  0  0  0  0  0  0  0  0  0  0  0
    6.6662   -2.3521    1.5064 H   0  0  0  0  0  0  0  0  0  0  0  0
    6.7119   -0.3724    1.6825 H   0  0  0  0  0  0  0  0  0  0  0  0
    2.8000   -2.6224   -4.5467 H   0  0  0  0  0  0  0  0  0  0  0  0
    1.3787   -2.7342   -3.5321 H   0  0  0  0  0  0  0  0  0  0  0  0
    2.2380   -4.1885   -3.9650 H   0  0  0  0  0  0  0  0  0  0  0  0
    4.4629   -7.0087    2.3793 H   0  0  0  0  0  0  0  0  0  0  0  0
    3.2736   -6.1904    3.3833 H   0  0  0  0  0  0  0  0  0  0  0  0
    4.8793   -5.5908    3.3326 H   0  0  0  0  0  0  0  0  0  0  0  0
    2.3577   -6.7635    0.8584 H   0  0  0  0  0  0  0  0  0  0  0  0
    1.8569   -5.2037    0.2243 H   0  0  0  0  0  0  0  0  0  0  0  0
    1.5858   -5.5937    1.9128 H   0  0  0  0  0  0  0  0  0  0  0  0
    2.6709   -3.5468   -1.7129 H   0  0  0  0  0  0  0  0  0  0  0  0
  1  2  2  0
  1 21  1  0
  1 22  1  0
  2 14  1  0
  2  3  1  0
  3 18  1  0
  3  4  1  0
  3 23  1  1
  4 12  1  0
  4  5  1  0
  4 24  1  6
  5 13  1  0
  5  6  1  0
  5 25  1  6
  6  7  1  0
  6 26  1  0
  6 27  1  0
  7  8  1  0
  7 18  1  0
  7 28  1  6
  8 13  1  0
  8  9  1  0
  8 29  1  6
  9 16  1  0
  9 10  1  0
  9 30  1  6
 10 11  1  0
 10 31  1  0
 10 32  1  0
 11 12  1  0
 11 16  1  0
 11 33  1  6
 12 13  1  0
 12 34  1  1
 13 14  1  1
 14 15  1  0
 14 35  1  1
 15 36  1  0
 16 17  1  0
 16 46  1  1
 17 37  1  0
 17 38  1  0
 17 39  1  0
 18 19  1  0
 18 20  1  0
 19 40  1  0
 19 41  1  0
 19 42  1  0
 20 43  1  0
 20 44  1  0
 20 45  1  0
M  CHG  1  16   1
M  END
>  <i_m_ct_stereo_status>  (13) 
1

>  <s_m_source_file>  (13) 
/var/tmp/pbs.5076255.sched01/tmppz0entnt/04_lepiep.sdf

>  <i_m_source_file_index>  (13) 
6

>  <i_lp_mmshare_version>  (13) 
48012

>  <i_f3d_flags>  (13) 
0

>  <s_epik_input>  (13) 
QzEyM1tDSF00W0NASF01W0NASF0oQyg9W0NIMl0pW0NAQEhdM1tPSF0pQyhbQ0gzXSkoW0NIM10pW0NASF0oW0NIMl00KVtDSF0xW0NAQEhdNltDSDJdW0NASF0oW0NASF0yNSlONltDSDNd

>  <s_epik_cmdline>  (13) 
J2VwaWtfcHl0aG9uJywgJy1waHQnLCAnMi4wJywgJy1waCcsICc3LjAnLCAnLXRuJywgJzgnLCAnLW1hJywgJzIwMCcsICctaW1hZScsICc8aW5maWxlLm1hZT4nLCAnLW9tYWUnLCAnPG91dGZpbGUubWFlPic=

>  <r_lp_tautomer_probability>  (13) 
1

>  <r_epik_Ionization_Penalty>  (13) 
0.00022514

>  <r_epik_Ionization_Penalty_Charging>  (13) 
0.000225088

>  <r_epik_Ionization_Penalty_Neutral>  (13) 
5.20156e-08

>  <r_epik_State_Penalty>  (13) 
-0

>  <r_epik_Charging_Adjusted_Penalty>  (13) 
0.000225088

>  <i_epik_Tot_Q>  (13) 
1

>  <i_epik_Tot_abs_Q>  (13) 
1

>  <s_lp_Force_Field>  (13) 
OPLS3e

>  <r_lp_Energy>  (13) 
571.696

>  <b_lp_Chiralities_Consistent>  (13) 
1

>  <s_lp_Variant>  (13) 
5:0-1

>  <s_i_glide_gridfile>  (13) 
pfpi4k_grid

>  <i_i_glide_lignum>  (13) 
6

>  <i_i_glide_rotatable_bonds>  (13) 
1

>  <r_i_docking_score>  (13) 
-4.14381

>  <r_i_glide_ligand_efficiency>  (13) 
-0.207191

>  <r_i_glide_ligand_efficiency_sa>  (13) 
-0.562402

>  <r_i_glide_ligand_efficiency_ln>  (13) 
-1.03706

>  <r_i_glide_gscore>  (13) 
-4.14381

>  <r_i_glide_lipo>  (13) 
-0.615806

>  <r_i_glide_hbond>  (13) 
-0.259316

>  <r_i_glide_metal>  (13) 
-0

>  <r_i_glide_rewards>  (13) 
-1.55178

>  <r_i_glide_evdw>  (13) 
-18.8996

>  <r_i_glide_ecoul>  (13) 
-4.92835

>  <r_i_glide_erotb>  (13) 
0

>  <r_i_glide_esite>  (13) 
-0.0326745

>  <r_i_glide_emodel>  (13) 
-30.0353

>  <r_i_glide_energy>  (13) 
-23.8279

>  <r_i_glide_einternal>  (13) 
0.942704

>  <r_i_glide_intrahb_reward>  (13) 
-0

>  <i_i_glide_confnum>  (13) 
1

>  <i_i_glide_posenum>  (13) 
20

>  <r_i_glide_eff_state_penalty>  (13) 
0

>  <ligand_id>  (13) 
5

>  <original_smiles>  (13) 
C=C1C2C3C4CC(C5C6CC(C3C45C1O)N6C)C2(C)C

>  <smiles>  (13) 
[H]OC1([H])C(=C([H])[H])C2([H])C3([H])C4([H])C([H])([H])C([H])(C5([H])C14C3([H])C1([H])C([H])([H])C5([H])[N+]1([H])C([H])([H])[H])C2(C([H])([H])[H])C([H])([H])[H]

$$$$
5:0:1
     RDKit          3D

 46 51  0  0  1  0  0  0  0  0999 V2000
    4.4775   -0.9526   -2.1204 C   0  0  0  0  0  0  0  0  0  0  0  0
    4.5166   -1.9965   -1.2825 C   0  0  0  0  0  0  0  0  0  0  0  0
    4.1741   -1.8551    0.2729 C   0  0  1  0  0  0  0  0  0  0  0  0
    3.2774   -3.1010    0.3715 C   0  0  2  0  0  0  0  0  0  0  0  0
    4.6143   -3.7955    0.4930 C   0  0  2  0  0  0  0  0  0  0  0  0
    6.2514   -3.3376    0.2777 C   0  0  0  0  0  0  0  0  0  0  0  0
    6.1269   -3.5601    1.5546 C   0  0  2  0  0  0  0  0  0  0  0  0
    5.5484   -5.0669    0.6808 C   0  0  1  0  0  0  0  0  0  0  0  0
    4.7505   -6.2610    1.4211 C   0  0  2  0  0  0  0  0  0  0  0  0
    3.8892   -7.0862    0.4431 C   0  0  0  0  0  0  0  0  0  0  0  0
    2.8406   -5.9526    0.6305 C   0  0  2  0  0  0  0  0  0  0  0  0
    3.0778   -4.6160   -0.2095 C   0  0  2  0  0  0  0  0  0  0  0  0
    4.5345   -4.5872   -0.5600 C   0  0  1  0  0  0  0  0  0  0  0  0
    4.8076   -3.5067   -1.7618 C   0  0  1  0  0  0  0  0  0  0  0  0
    4.0647   -3.8055   -2.9215 O   0  0  0  0  0  0  0  0  0  0  0  0
    3.4147   -5.9177    1.9920 N   0  0  1  0  0  0  0  0  0  0  0  0
    2.8149   -6.8036    3.0239 C   0  0  0  0  0  0  0  0  0  0  0  0
    5.3756   -1.9311    1.5647 C   0  0  0  0  0  0  0  0  0  0  0  0
    6.3301   -0.7127    1.4521 C   0  0  0  0  0  0  0  0  0  0  0  0
    4.6877   -1.7160    2.9328 C   0  0  0  0  0  0  0  0  0  0  0  0
    4.6567   -1.0682   -3.1789 H   0  0  0  0  0  0  0  0  0  0  0  0
    4.2572    0.0350   -1.7471 H   0  0  0  0  0  0  0  0  0  0  0  0
    3.5866   -0.9410    0.4042 H   0  0  0  0  0  0  0  0  0  0  0  0
    2.5824   -2.9882    1.2199 H   0  0  0  0  0  0  0  0  0  0  0  0
    4.1342   -3.8826    1.5423 H   0  0  0  0  0  0  0  0  0  0  0  0
    7.0388   -3.9098   -0.2461 H   0  0  0  0  0  0  0  0  0  0  0  0
    6.5890   -2.4027   -0.1535 H   0  0  0  0  0  0  0  0  0  0  0  0
    7.0838   -3.6431    2.0559 H   0  0  0  0  0  0  0  0  0  0  0  0
    6.3840   -5.6612    0.2816 H   0  0  0  0  0  0  0  0  0  0  0  0
    5.3510   -6.8797    2.0866 H   0  0  0  0  0  0  0  0  0  0  0  0
    4.2994   -7.1451   -0.5677 H   0  0  0  0  0  0  0  0  0  0  0  0
    3.5934   -8.0813    0.7966 H   0  0  0  0  0  0  0  0  0  0  0  0
    1.8114   -6.3122    0.6001 H   0  0  0  0  0  0  0  0  0  0  0  0
    2.4249   -4.6031   -1.0753 H   0  0  0  0  0  0  0  0  0  0  0  0
    5.8293   -3.5751   -2.1393 H   0  0  0  0  0  0  0  0  0  0  0  0
    3.5330   -4.5768   -2.7395 H   0  0  0  0  0  0  0  0  0  0  0  0
    2.7478   -7.8570    2.7462 H   0  0  0  0  0  0  0  0  0  0  0  0
    1.8056   -6.4585    3.2459 H   0  0  0  0  0  0  0  0  0  0  0  0
    3.3937   -6.7300    3.9425 H   0  0  0  0  0  0  0  0  0  0  0  0
    7.2157   -0.8344    2.0748 H   0  0  0  0  0  0  0  0  0  0  0  0
    5.8110    0.1848    1.7790 H   0  0  0  0  0  0  0  0  0  0  0  0
    6.6714   -0.4773    0.4411 H   0  0  0  0  0  0  0  0  0  0  0  0
    5.4237   -1.6608    3.7377 H   0  0  0  0  0  0  0  0  0  0  0  0
    3.9807   -2.5024    3.1866 H   0  0  0  0  0  0  0  0  0  0  0  0
    4.1304   -0.7759    2.9385 H   0  0  0  0  0  0  0  0  0  0  0  0
    3.4203   -4.9610    2.3206 H   0  0  0  0  0  0  0  0  0  0  0  0
  1  2  2  0
  1 21  1  0
  1 22  1  0
  2 14  1  0
  2  3  1  0
  3 18  1  0
  3  4  1  0
  3 23  1  6
  4 12  1  0
  4  5  1  0
  4 24  1  1
  5 13  1  0
  5  6  1  0
  5 25  1  1
  6  7  1  0
  6 26  1  0
  6 27  1  0
  7  8  1  0
  7 18  1  0
  7 28  1  1
  8 13  1  0
  8  9  1  0
  8 29  1  6
  9 16  1  0
  9 10  1  0
  9 30  1  1
 10 11  1  0
 10 31  1  0
 10 32  1  0
 11 12  1  0
 11 16  1  0
 11 33  1  1
 12 13  1  0
 12 34  1  6
 13 14  1  6
 14 15  1  0
 14 35  1  6
 15 36  1  0
 16 17  1  0
 16 46  1  1
 17 37  1  0
 17 38  1  0
 17 39  1  0
 18 19  1  0
 18 20  1  0
 19 40  1  0
 19 41  1  0
 19 42  1  0
 20 43  1  0
 20 44  1  0
 20 45  1  0
M  CHG  1  16   1
M  END
>  <i_m_ct_stereo_status>  (14) 
1

>  <s_m_source_file>  (14) 
/var/tmp/pbs.5076255.sched01/tmppz0entnt/04_lepiep.sdf

>  <i_m_source_file_index>  (14) 
6

>  <i_lp_mmshare_version>  (14) 
48012

>  <i_f3d_flags>  (14) 
0

>  <s_epik_input>  (14) 
QzEyM1tDSF00W0NASF01W0NASF0oQyg9W0NIMl0pW0NAQEhdM1tPSF0pQyhbQ0gzXSkoW0NIM10pW0NASF0oW0NIMl00KVtDSF0xW0NAQEhdNltDSDJdW0NASF0oW0NASF0yNSlONltDSDNd

>  <s_epik_cmdline>  (14) 
J2VwaWtfcHl0aG9uJywgJy1waHQnLCAnMi4wJywgJy1waCcsICc3LjAnLCAnLXRuJywgJzgnLCAnLW1hJywgJzIwMCcsICctaW1hZScsICc8aW5maWxlLm1hZT4nLCAnLW9tYWUnLCAnPG91dGZpbGUubWFlPic=

>  <r_lp_tautomer_probability>  (14) 
1

>  <r_epik_Ionization_Penalty>  (14) 
0.00022514

>  <r_epik_Ionization_Penalty_Charging>  (14) 
0.000225088

>  <r_epik_Ionization_Penalty_Neutral>  (14) 
5.20156e-08

>  <r_epik_State_Penalty>  (14) 
-0

>  <r_epik_Charging_Adjusted_Penalty>  (14) 
0.000225088

>  <i_epik_Tot_Q>  (14) 
1

>  <i_epik_Tot_abs_Q>  (14) 
1

>  <s_lp_Force_Field>  (14) 
OPLS3e

>  <r_lp_Energy>  (14) 
571.696

>  <b_lp_Chiralities_Consistent>  (14) 
1

>  <s_lp_Variant>  (14) 
5:0-1

>  <s_i_glide_gridfile>  (14) 
pfpi4k_grid

>  <i_i_glide_lignum>  (14) 
6

>  <i_i_glide_rotatable_bonds>  (14) 
1

>  <r_i_docking_score>  (14) 
-4.11474

>  <r_i_glide_ligand_efficiency>  (14) 
-0.205737

>  <r_i_glide_ligand_efficiency_sa>  (14) 
-0.558456

>  <r_i_glide_ligand_efficiency_ln>  (14) 
-1.02978

>  <r_i_glide_gscore>  (14) 
-4.11474

>  <r_i_glide_lipo>  (14) 
-0.682984

>  <r_i_glide_hbond>  (14) 
-0.32

>  <r_i_glide_metal>  (14) 
-0

>  <r_i_glide_rewards>  (14) 
-1.55178

>  <r_i_glide_evdw>  (14) 
-13.0083

>  <r_i_glide_ecoul>  (14) 
-6.06375

>  <r_i_glide_erotb>  (14) 
0

>  <r_i_glide_esite>  (14) 
0

>  <r_i_glide_emodel>  (14) 
-25.151

>  <r_i_glide_energy>  (14) 
-19.072

>  <r_i_glide_einternal>  (14) 
1.00023

>  <r_i_glide_intrahb_reward>  (14) 
-0

>  <i_i_glide_confnum>  (14) 
1

>  <i_i_glide_posenum>  (14) 
13

>  <r_i_glide_eff_state_penalty>  (14) 
0

>  <ligand_id>  (14) 
5

>  <original_smiles>  (14) 
C=C1C2C3C4CC(C5C6CC(C3C45C1O)N6C)C2(C)C

>  <smiles>  (14) 
[H]OC1([H])C(=C([H])[H])C2([H])C3([H])C4([H])C([H])([H])C([H])(C5([H])C14C3([H])C1([H])C([H])([H])C5([H])[N+]1([H])C([H])([H])[H])C2(C([H])([H])[H])C([H])([H])[H]

$$$$
5:0:2
     RDKit          3D

 46 51  0  0  1  0  0  0  0  0999 V2000
    3.7112   -3.7594    4.2138 C   0  0  0  0  0  0  0  0  0  0  0  0
    4.0525   -3.7024    2.9235 C   0  0  0  0  0  0  0  0  0  0  0  0
    3.7556   -4.9077    1.9217 C   0  0  1  0  0  0  0  0  0  0  0  0
    3.2140   -4.0453    0.7700 C   0  0  2  0  0  0  0  0  0  0  0  0
    4.6863   -3.8696    0.4871 C   0  0  2  0  0  0  0  0  0  0  0  0
    6.1363   -4.2485    1.3085 C   0  0  0  0  0  0  0  0  0  0  0  0
    6.1334   -5.0403    0.2755 C   0  0  2  0  0  0  0  0  0  0  0  0
    5.9281   -3.3250   -0.3484 C   0  0  1  0  0  0  0  0  0  0  0  0
    5.4914   -2.9791   -1.8642 C   0  0  2  0  0  0  0  0  0  0  0  0
    4.8292   -1.5852   -1.9961 C   0  0  0  0  0  0  0  0  0  0  0  0
    3.5389   -2.3238   -1.5458 C   0  0  2  0  0  0  0  0  0  0  0  0
    3.4011   -2.6038    0.0166 C   0  0  2  0  0  0  0  0  0  0  0  0
    4.7791   -2.5672    0.5918 C   0  0  1  0  0  0  0  0  0  0  0  0
    4.7011   -2.4022    2.2178 C   0  0  1  0  0  0  0  0  0  0  0  0
    3.9873   -1.2385    2.5734 O   0  0  0  0  0  0  0  0  0  0  0  0
    4.1397   -3.4423   -2.2859 N   0  0  1  0  0  0  0  0  0  0  0  0
    3.8323   -3.5470   -3.7330 C   0  0  0  0  0  0  0  0  0  0  0  0
    4.9927   -6.0013    1.2847 C   0  0  0  0  0  0  0  0  0  0  0  0
    5.6152   -6.8486    2.4339 C   0  0  0  0  0  0  0  0  0  0  0  0
    4.3217   -7.0551    0.3850 C   0  0  0  0  0  0  0  0  0  0  0  0
    3.8784   -2.9238    4.8771 H   0  0  0  0  0  0  0  0  0  0  0  0
    3.2635   -4.6542    4.6265 H   0  0  0  0  0  0  0  0  0  0  0  0
    2.9608   -5.5201    2.3541 H   0  0  0  0  0  0  0  0  0  0  0  0
    2.5614   -4.6412    0.1202 H   0  0  0  0  0  0  0  0  0  0  0  0
    4.2972   -4.5311   -0.3746 H   0  0  0  0  0  0  0  0  0  0  0  0
    7.0182   -3.5948    1.4138 H   0  0  0  0  0  0  0  0  0  0  0  0
    6.2055   -4.5817    2.3379 H   0  0  0  0  0  0  0  0  0  0  0  0
    7.1046   -5.5055    0.1089 H   0  0  0  0  0  0  0  0  0  0  0  0
    6.8725   -2.7629   -0.3220 H   0  0  0  0  0  0  0  0  0  0  0  0
    6.2502   -3.1586   -2.6172 H   0  0  0  0  0  0  0  0  0  0  0  0
    5.1950   -0.8500   -1.2790 H   0  0  0  0  0  0  0  0  0  0  0  0
    4.8040   -1.1508   -3.0047 H   0  0  0  0  0  0  0  0  0  0  0  0
    2.6415   -1.9145   -2.0022 H   0  0  0  0  0  0  0  0  0  0  0  0
    2.7541   -1.8582    0.4526 H   0  0  0  0  0  0  0  0  0  0  0  0
    5.6835   -2.2199    2.6556 H   0  0  0  0  0  0  0  0  0  0  0  0
    3.1469   -1.2455    2.1368 H   0  0  0  0  0  0  0  0  0  0  0  0
    4.0229   -2.6537   -4.3192 H   0  0  0  0  0  0  0  0  0  0  0  0
    2.7837   -3.8009   -3.8650 H   0  0  0  0  0  0  0  0  0  0  0  0
    4.3998   -4.3629   -4.1685 H   0  0  0  0  0  0  0  0  0  0  0  0
    6.5356   -7.3519    2.1284 H   0  0  0  0  0  0  0  0  0  0  0  0
    4.9227   -7.6204    2.7725 H   0  0  0  0  0  0  0  0  0  0  0  0
    5.8382   -6.2899    3.3445 H   0  0  0  0  0  0  0  0  0  0  0  0
    5.0273   -7.8123    0.0598 H   0  0  0  0  0  0  0  0  0  0  0  0
    3.8633   -6.6276   -0.5027 H   0  0  0  0  0  0  0  0  0  0  0  0
    3.5325   -7.5859    0.9238 H   0  0  0  0  0  0  0  0  0  0  0  0
    3.8941   -4.3129   -1.8550 H   0  0  0  0  0  0  0  0  0  0  0  0
  1  2  2  0
  1 21  1  0
  1 22  1  0
  2 14  1  0
  2  3  1  0
  3 18  1  0
  3  4  1  0
  3 23  1  1
  4 12  1  0
  4  5  1  0
  4 24  1  6
  5 13  1  0
  5  6  1  0
  5 25  1  6
  6  7  1  0
  6 26  1  0
  6 27  1  0
  7  8  1  0
  7 18  1  0
  7 28  1  6
  8 13  1  0
  8  9  1  0
  8 29  1  1
  9 16  1  0
  9 10  1  0
  9 30  1  6
 10 11  1  0
 10 31  1  0
 10 32  1  0
 11 12  1  0
 11 16  1  0
 11 33  1  6
 12 13  1  0
 12 34  1  1
 13 14  1  1
 14 15  1  0
 14 35  1  1
 15 36  1  0
 16 17  1  0
 16 46  1  1
 17 37  1  0
 17 38  1  0
 17 39  1  0
 18 19  1  0
 18 20  1  0
 19 40  1  0
 19 41  1  0
 19 42  1  0
 20 43  1  0
 20 44  1  0
 20 45  1  0
M  CHG  1  16   1
M  END
>  <i_m_ct_stereo_status>  (15) 
1

>  <s_m_source_file>  (15) 
/var/tmp/pbs.5076255.sched01/tmppz0entnt/04_lepiep.sdf

>  <i_m_source_file_index>  (15) 
6

>  <i_lp_mmshare_version>  (15) 
48012

>  <i_f3d_flags>  (15) 
0

>  <s_epik_input>  (15) 
QzEyM1tDSF00W0NASF01W0NASF0oQyg9W0NIMl0pW0NAQEhdM1tPSF0pQyhbQ0gzXSkoW0NIM10pW0NASF0oW0NIMl00KVtDSF0xW0NAQEhdNltDSDJdW0NASF0oW0NASF0yNSlONltDSDNd

>  <s_epik_cmdline>  (15) 
J2VwaWtfcHl0aG9uJywgJy1waHQnLCAnMi4wJywgJy1waCcsICc3LjAnLCAnLXRuJywgJzgnLCAnLW1hJywgJzIwMCcsICctaW1hZScsICc8aW5maWxlLm1hZT4nLCAnLW9tYWUnLCAnPG91dGZpbGUubWFlPic=

>  <r_lp_tautomer_probability>  (15) 
1

>  <r_epik_Ionization_Penalty>  (15) 
0.00022514

>  <r_epik_Ionization_Penalty_Charging>  (15) 
0.000225088

>  <r_epik_Ionization_Penalty_Neutral>  (15) 
5.20156e-08

>  <r_epik_State_Penalty>  (15) 
-0

>  <r_epik_Charging_Adjusted_Penalty>  (15) 
0.000225088

>  <i_epik_Tot_Q>  (15) 
1

>  <i_epik_Tot_abs_Q>  (15) 
1

>  <s_lp_Force_Field>  (15) 
OPLS3e

>  <r_lp_Energy>  (15) 
571.696

>  <b_lp_Chiralities_Consistent>  (15) 
1

>  <s_lp_Variant>  (15) 
5:0-1

>  <s_i_glide_gridfile>  (15) 
pfpi4k_grid

>  <i_i_glide_lignum>  (15) 
6

>  <i_i_glide_rotatable_bonds>  (15) 
1

>  <r_i_docking_score>  (15) 
-3.76548

>  <r_i_glide_ligand_efficiency>  (15) 
-0.188274

>  <r_i_glide_ligand_efficiency_sa>  (15) 
-0.511054

>  <r_i_glide_ligand_efficiency_ln>  (15) 
-0.942375

>  <r_i_glide_gscore>  (15) 
-3.76548

>  <r_i_glide_lipo>  (15) 
-0.778938

>  <r_i_glide_hbond>  (15) 
0

>  <r_i_glide_metal>  (15) 
-0

>  <r_i_glide_rewards>  (15) 
-1.55178

>  <r_i_glide_evdw>  (15) 
-16.8618

>  <r_i_glide_ecoul>  (15) 
-3.7124

>  <r_i_glide_erotb>  (15) 
0

>  <r_i_glide_esite>  (15) 
-0.0348071

>  <r_i_glide_emodel>  (15) 
-26.5196

>  <r_i_glide_energy>  (15) 
-20.5742

>  <r_i_glide_einternal>  (15) 
0.0326393

>  <r_i_glide_intrahb_reward>  (15) 
-0

>  <i_i_glide_confnum>  (15) 
1

>  <i_i_glide_posenum>  (15) 
17

>  <r_i_glide_eff_state_penalty>  (15) 
0

>  <ligand_id>  (15) 
5

>  <original_smiles>  (15) 
C=C1C2C3C4CC(C5C6CC(C3C45C1O)N6C)C2(C)C

>  <smiles>  (15) 
[H]OC1([H])C(=C([H])[H])C2([H])C3([H])C4([H])C([H])([H])C([H])(C5([H])C14C3([H])C1([H])C([H])([H])C5([H])[N+]1([H])C([H])([H])[H])C2(C([H])([H])[H])C([H])([H])[H]

$$$$
7:0:0
     RDKit          3D

 49 55  0  0  1  0  0  0  0  0999 V2000
    2.7813   -0.1089    1.7276 C   0  0  0  0  0  0  0  0  0  0  0  0
    2.1405   -1.5001    1.7453 C   0  0  0  0  0  0  0  0  0  0  0  0
    1.1715   -1.7549    2.4737 O   0  0  0  0  0  0  0  0  0  0  0  0
    2.6623   -2.4518    0.9300 O   0  0  0  0  0  0  0  0  0  0  0  0
    3.8809   -2.3292    0.1689 C   0  0  2  0  0  0  0  0  0  0  0  0
    3.6731   -1.5254   -1.1329 C   0  0  1  0  0  0  0  0  0  0  0  0
    4.9828   -1.1724   -1.8556 C   0  0  1  0  0  0  0  0  0  0  0  0
    6.0547   -2.2460   -1.4984 C   0  0  2  0  0  0  0  0  0  0  0  0
    6.1503   -3.3381   -2.5400 C   0  0  0  0  0  0  0  0  0  0  0  0
    4.8799   -3.6577   -3.2758 C   0  0  2  0  0  0  0  0  0  0  0  0
    4.3858   -2.4728   -3.9267 C   0  0  2  0  0  0  0  0  0  0  0  0
    4.5006   -1.0936   -3.3464 C   0  0  1  0  0  0  0  0  0  0  0  0
    3.0345   -0.7837   -3.2305 C   0  0  1  0  0  0  0  0  0  0  0  0
    2.5325   -0.6903   -4.5544 O   0  0  0  0  0  0  0  0  0  0  0  0
    2.7983   -2.0270   -2.3176 C   0  0  1  0  0  0  0  0  0  0  0  0
    3.4322   -3.1790   -3.0517 C   0  0  2  0  0  0  0  0  0  0  0  0
    2.5238   -3.8458   -3.8440 O   0  0  0  0  0  0  0  0  0  0  0  0
    5.8102   -2.8906   -0.1222 C   0  0  2  0  0  0  0  0  0  0  0  0
    4.5189   -3.7341    0.0340 C   0  0  1  0  0  0  0  0  0  0  0  0
    4.4587   -4.7039    1.2074 C   0  0  1  0  0  0  0  0  0  0  0  0
    5.0558   -5.9198    0.8111 O   0  0  0  0  0  0  0  0  0  0  0  0
    5.1729   -4.1447    2.4562 C   0  0  0  0  0  0  0  0  0  0  0  0
    5.2407   -2.6053    2.4358 C   0  0  0  0  0  0  0  0  0  0  0  0
    5.1861   -2.0486    1.0065 C   0  0  2  0  0  0  0  0  0  0  0  0
    5.6942   -0.7217    1.0628 O   0  0  0  0  0  0  0  0  0  0  0  0
    3.6012   -0.0403    1.0143 H   0  0  0  0  0  0  0  0  0  0  0  0
    3.1944    0.1164    2.7096 H   0  0  0  0  0  0  0  0  0  0  0  0
    2.0492    0.6520    1.4539 H   0  0  0  0  0  0  0  0  0  0  0  0
    3.2220   -0.6082   -0.8018 H   0  0  0  0  0  0  0  0  0  0  0  0
    5.3408   -0.1870   -1.5473 H   0  0  0  0  0  0  0  0  0  0  0  0
    7.0233   -1.7613   -1.4660 H   0  0  0  0  0  0  0  0  0  0  0  0
    6.8658   -3.0092   -3.2789 H   0  0  0  0  0  0  0  0  0  0  0  0
    6.5103   -4.2471   -2.0834 H   0  0  0  0  0  0  0  0  0  0  0  0
    4.9301   -4.5648   -3.8666 H   0  0  0  0  0  0  0  0  0  0  0  0
    4.1439   -2.5044   -4.9740 H   0  0  0  0  0  0  0  0  0  0  0  0
    4.9974   -0.4246   -4.0374 H   0  0  0  0  0  0  0  0  0  0  0  0
    2.8483    0.1571   -2.7386 H   0  0  0  0  0  0  0  0  0  0  0  0
    2.2298   -1.5620   -4.7918 H   0  0  0  0  0  0  0  0  0  0  0  0
    1.7675   -2.2789   -2.0217 H   0  0  0  0  0  0  0  0  0  0  0  0
    2.2345   -4.6201   -3.3100 H   0  0  0  0  0  0  0  0  0  0  0  0
    6.7051   -3.4108    0.2387 H   0  0  0  0  0  0  0  0  0  0  0  0
    4.2162   -4.2375   -0.8850 H   0  0  0  0  0  0  0  0  0  0  0  0
    3.4186   -4.9091    1.4433 H   0  0  0  0  0  0  0  0  0  0  0  0
    4.6372   -6.2118    0.0154 H   0  0  0  0  0  0  0  0  0  0  0  0
    4.6989   -4.5037    3.3706 H   0  0  0  0  0  0  0  0  0  0  0  0
    6.2036   -4.5002    2.4713 H   0  0  0  0  0  0  0  0  0  0  0  0
    4.4219   -2.2027    3.0271 H   0  0  0  0  0  0  0  0  0  0  0  0
    6.1366   -2.2630    2.9424 H   0  0  0  0  0  0  0  0  0  0  0  0
    5.1621   -0.2002    0.4856 H   0  0  0  0  0  0  0  0  0  0  0  0
  1  2  1  0
  1 26  1  0
  1 27  1  0
  1 28  1  0
  2  3  2  0
  2  4  1  0
  5  4  1  1
  5 19  1  0
  5 24  1  0
  5  6  1  0
  6 15  1  0
  6  7  1  0
  6 29  1  1
  7 12  1  0
  7  8  1  0
  7 30  1  1
  8  9  1  0
  8 18  1  0
  8 31  1  1
  9 10  1  0
  9 32  1  0
  9 33  1  0
 10 16  1  0
 10 11  1  0
 10 34  1  6
 11 16  1  0
 11 12  1  0
 11 35  1  6
 12 13  1  0
 12 36  1  6
 13 14  1  0
 13 15  1  0
 13 37  1  1
 14 38  1  0
 15 16  1  0
 15 39  1  1
 16 17  1  6
 17 40  1  0
 18 24  1  0
 18 19  1  0
 18 41  1  1
 19 20  1  0
 19 42  1  6
 20 21  1  0
 20 22  1  0
 20 43  1  1
 21 44  1  0
 22 23  1  0
 22 45  1  0
 22 46  1  0
 23 24  1  0
 23 47  1  0
 23 48  1  0
 24 25  1  1
 25 49  1  0
M  END
>  <i_m_ct_stereo_status>  (16) 
1

>  <s_m_source_file>  (16) 
/var/tmp/pbs.5076255.sched01/tmppz0entnt/04_lepiep.sdf

>  <i_m_source_file_index>  (16) 
8

>  <i_lp_mmshare_version>  (16) 
48012

>  <i_f3d_flags>  (16) 
0

>  <s_epik_input>  (16) 
W09IXVtDQEBdMTJbQ0gyXVtDSDJdW0NASF0oW09IXSlbQ0BASF0zW0NASF0yW0NIXShbQ0BASF00W0NAQEhdNVtDQF0xM09DKD1PKVtDSDNdKVtDSDJdW0NAQEhdNltDQEBIXTdbQ0BIXTRbQ0BASF0oW09IXSlbQ0BIXTVbQ0BdNjdbT0hd

>  <s_epik_cmdline>  (16) 
J2VwaWtfcHl0aG9uJywgJy1waHQnLCAnMi4wJywgJy1waCcsICc3LjAnLCAnLXRuJywgJzgnLCAnLW1hJywgJzIwMCcsICctaW1hZScsICc8aW5maWxlLm1hZT4nLCAnLW9tYWUnLCAnPG91dGZpbGUubWFlPic=

>  <r_lp_tautomer_probability>  (16) 
1

>  <r_epik_Ionization_Penalty>  (16) 
2.77974e-06

>  <r_epik_Ionization_Penalty_Charging>  (16) 
0

>  <r_epik_Ionization_Penalty_Neutral>  (16) 
2.77974e-06

>  <r_epik_State_Penalty>  (16) 
-0

>  <r_epik_Charging_Adjusted_Penalty>  (16) 
0

>  <i_epik_Tot_Q>  (16) 
0

>  <i_epik_Tot_abs_Q>  (16) 
0

>  <s_epik_Chemistry_Notes>  (16) 
This compound has an ester and may undergo hydrolysis at high or low pH.

>  <s_lp_Force_Field>  (16) 
OPLS3e

>  <r_lp_Energy>  (16) 
85.8616

>  <b_lp_Chiralities_Consistent>  (16) 
1

>  <s_lp_Variant>  (16) 
7:0-1

>  <s_i_glide_gridfile>  (16) 
pfpi4k_grid

>  <i_i_glide_lignum>  (16) 
8

>  <i_i_glide_rotatable_bonds>  (16) 
6

>  <r_i_docking_score>  (16) 
-2.90766

>  <r_i_glide_ligand_efficiency>  (16) 
-0.116306

>  <r_i_glide_ligand_efficiency_sa>  (16) 
-0.340082

>  <r_i_glide_ligand_efficiency_ln>  (16) 
-0.689202

>  <r_i_glide_gscore>  (16) 
-2.90766

>  <r_i_glide_lipo>  (16) 
-0.833424

>  <r_i_glide_hbond>  (16) 
0

>  <r_i_glide_metal>  (16) 
-0

>  <r_i_glide_rewards>  (16) 
-1.0337

>  <r_i_glide_evdw>  (16) 
-8.45044

>  <r_i_glide_ecoul>  (16) 
-4.88215

>  <r_i_glide_erotb>  (16) 
0.156835

>  <r_i_glide_esite>  (16) 
-0.0658871

>  <r_i_glide_emodel>  (16) 
-7.05533

>  <r_i_glide_energy>  (16) 
-13.3326

>  <r_i_glide_einternal>  (16) 
6.65443

>  <r_i_glide_intrahb_reward>  (16) 
-0

>  <i_i_glide_confnum>  (16) 
1

>  <i_i_glide_posenum>  (16) 
7

>  <r_i_glide_eff_state_penalty>  (16) 
0

>  <ligand_id>  (16) 
7

>  <original_smiles>  (16) 
CC(=O)OC12C3C4C(CC5C6C4C(O)C3C56O)C3C1C(O)CCC32O

>  <smiles>  (16) 
[H]OC1([H])C2([H])C3([H])C4([H])C([H])([H])C5([H])C2([H])C5(O[H])C1([H])C3([H])C1(OC(=O)C([H])([H])[H])C2([H])C([H])(O[H])C([H])([H])C([H])([H])C1(O[H])C42[H]

$$$$
7:0:1
     RDKit          3D

 49 55  0  0  1  0  0  0  0  0999 V2000
    2.2443   -0.6087    1.9027 C   0  0  0  0  0  0  0  0  0  0  0  0
    1.9454   -2.0979    1.8906 C   0  0  0  0  0  0  0  0  0  0  0  0
    1.2593   -2.6006    2.7787 O   0  0  0  0  0  0  0  0  0  0  0  0
    2.4858   -2.8257    0.8765 O   0  0  0  0  0  0  0  0  0  0  0  0
    3.7158   -2.5177    0.2106 C   0  0  2  0  0  0  0  0  0  0  0  0
    3.5303   -1.5889   -1.0394 C   0  0  1  0  0  0  0  0  0  0  0  0
    4.8540   -1.1070   -1.6469 C   0  0  1  0  0  0  0  0  0  0  0  0
    5.9931   -2.0727   -1.2723 C   0  0  2  0  0  0  0  0  0  0  0  0
    6.2801   -3.0640   -2.3935 C   0  0  0  0  0  0  0  0  0  0  0  0
    5.0917   -3.4764   -3.2455 C   0  0  2  0  0  0  0  0  0  0  0  0
    4.5546   -2.2949   -3.8967 C   0  0  2  0  0  0  0  0  0  0  0  0
    4.4955   -0.9731   -3.1703 C   0  0  1  0  0  0  0  0  0  0  0  0
    3.0143   -0.7793   -3.1914 C   0  0  1  0  0  0  0  0  0  0  0  0
    2.6021   -0.6829   -4.5330 O   0  0  0  0  0  0  0  0  0  0  0  0
    2.8090   -2.0666   -2.3343 C   0  0  1  0  0  0  0  0  0  0  0  0
    3.5945   -3.1238   -3.0972 C   0  0  2  0  0  0  0  0  0  0  0  0
    2.7465   -3.8574   -3.9518 O   0  0  0  0  0  0  0  0  0  0  0  0
    5.7173   -2.8522    0.0279 C   0  0  2  0  0  0  0  0  0  0  0  0
    4.5167   -3.8264    0.0033 C   0  0  1  0  0  0  0  0  0  0  0  0
    4.4688   -4.8986    1.0991 C   0  0  1  0  0  0  0  0  0  0  0  0
    5.2122   -6.0220    0.6792 O   0  0  0  0  0  0  0  0  0  0  0  0
    5.0337   -4.3764    2.4336 C   0  0  0  0  0  0  0  0  0  0  0  0
    4.9641   -2.8471    2.5448 C   0  0  0  0  0  0  0  0  0  0  0  0
    4.9178   -2.1610    1.1535 C   0  0  2  0  0  0  0  0  0  0  0  0
    5.2293   -0.8048    1.3703 O   0  0  0  0  0  0  0  0  0  0  0  0
    2.8972   -0.2916    1.1055 H   0  0  0  0  0  0  0  0  0  0  0  0
    2.7241   -0.3707    2.8506 H   0  0  0  0  0  0  0  0  0  0  0  0
    1.3210   -0.0349    1.8185 H   0  0  0  0  0  0  0  0  0  0  0  0
    3.0216   -0.6979   -0.7169 H   0  0  0  0  0  0  0  0  0  0  0  0
    5.0736   -0.1212   -1.2478 H   0  0  0  0  0  0  0  0  0  0  0  0
    6.9037   -1.4948   -1.1289 H   0  0  0  0  0  0  0  0  0  0  0  0
    6.9497   -2.5970   -3.1001 H   0  0  0  0  0  0  0  0  0  0  0  0
    6.7704   -3.9158   -1.9701 H   0  0  0  0  0  0  0  0  0  0  0  0
    5.2943   -4.3239   -3.8877 H   0  0  0  0  0  0  0  0  0  0  0  0
    4.4283   -2.2562   -4.9731 H   0  0  0  0  0  0  0  0  0  0  0  0
    5.0219   -0.2263   -3.7201 H   0  0  0  0  0  0  0  0  0  0  0  0
    2.6908    0.1162   -2.7318 H   0  0  0  0  0  0  0  0  0  0  0  0
    2.3923   -1.5668   -4.8156 H   0  0  0  0  0  0  0  0  0  0  0  0
    1.7875   -2.3693   -2.1645 H   0  0  0  0  0  0  0  0  0  0  0  0
    2.6285   -4.7161   -3.5561 H   0  0  0  0  0  0  0  0  0  0  0  0
    6.6309   -3.3195    0.4112 H   0  0  0  0  0  0  0  0  0  0  0  0
    4.3346   -4.2940   -0.9686 H   0  0  0  0  0  0  0  0  0  0  0  0
    3.4367   -5.2223    1.2323 H   0  0  0  0  0  0  0  0  0  0  0  0
    5.1166   -6.7147    1.3240 H   0  0  0  0  0  0  0  0  0  0  0  0
    4.5247   -4.8507    3.2806 H   0  0  0  0  0  0  0  0  0  0  0  0
    6.0889   -4.6466    2.5104 H   0  0  0  0  0  0  0  0  0  0  0  0
    4.0977   -2.5760    3.1383 H   0  0  0  0  0  0  0  0  0  0  0  0
    5.8007   -2.4699    3.1225 H   0  0  0  0  0  0  0  0  0  0  0  0
    5.1644   -0.3731    0.5122 H   0  0  0  0  0  0  0  0  0  0  0  0
  1  2  1  0
  1 26  1  0
  1 27  1  0
  1 28  1  0
  2  3  2  0
  2  4  1  0
  5  4  1  1
  5 19  1  0
  5 24  1  0
  5  6  1  0
  6 15  1  0
  6  7  1  0
  6 29  1  1
  7 12  1  0
  7  8  1  0
  7 30  1  1
  8  9  1  0
  8 18  1  0
  8 31  1  1
  9 10  1  0
  9 32  1  0
  9 33  1  0
 10 16  1  0
 10 11  1  0
 10 34  1  6
 11 16  1  0
 11 12  1  0
 11 35  1  6
 12 13  1  0
 12 36  1  6
 13 14  1  0
 13 15  1  0
 13 37  1  1
 14 38  1  0
 15 16  1  0
 15 39  1  1
 16 17  1  6
 17 40  1  0
 18 24  1  0
 18 19  1  0
 18 41  1  1
 19 20  1  0
 19 42  1  6
 20 21  1  0
 20 22  1  0
 20 43  1  1
 21 44  1  0
 22 23  1  0
 22 45  1  0
 22 46  1  0
 23 24  1  0
 23 47  1  0
 23 48  1  0
 24 25  1  1
 25 49  1  0
M  END
>  <i_m_ct_stereo_status>  (17) 
1

>  <s_m_source_file>  (17) 
/var/tmp/pbs.5076255.sched01/tmppz0entnt/04_lepiep.sdf

>  <i_m_source_file_index>  (17) 
8

>  <i_lp_mmshare_version>  (17) 
48012

>  <i_f3d_flags>  (17) 
0

>  <s_epik_input>  (17) 
W09IXVtDQEBdMTJbQ0gyXVtDSDJdW0NASF0oW09IXSlbQ0BASF0zW0NASF0yW0NIXShbQ0BASF00W0NAQEhdNVtDQF0xM09DKD1PKVtDSDNdKVtDSDJdW0NAQEhdNltDQEBIXTdbQ0BIXTRbQ0BASF0oW09IXSlbQ0BIXTVbQ0BdNjdbT0hd

>  <s_epik_cmdline>  (17) 
J2VwaWtfcHl0aG9uJywgJy1waHQnLCAnMi4wJywgJy1waCcsICc3LjAnLCAnLXRuJywgJzgnLCAnLW1hJywgJzIwMCcsICctaW1hZScsICc8aW5maWxlLm1hZT4nLCAnLW9tYWUnLCAnPG91dGZpbGUubWFlPic=

>  <r_lp_tautomer_probability>  (17) 
1

>  <r_epik_Ionization_Penalty>  (17) 
2.77974e-06

>  <r_epik_Ionization_Penalty_Charging>  (17) 
0

>  <r_epik_Ionization_Penalty_Neutral>  (17) 
2.77974e-06

>  <r_epik_State_Penalty>  (17) 
-0

>  <r_epik_Charging_Adjusted_Penalty>  (17) 
0

>  <i_epik_Tot_Q>  (17) 
0

>  <i_epik_Tot_abs_Q>  (17) 
0

>  <s_epik_Chemistry_Notes>  (17) 
This compound has an ester and may undergo hydrolysis at high or low pH.

>  <s_lp_Force_Field>  (17) 
OPLS3e

>  <r_lp_Energy>  (17) 
85.8616

>  <b_lp_Chiralities_Consistent>  (17) 
1

>  <s_lp_Variant>  (17) 
7:0-1

>  <s_i_glide_gridfile>  (17) 
pfpi4k_grid

>  <i_i_glide_lignum>  (17) 
8

>  <i_i_glide_rotatable_bonds>  (17) 
6

>  <r_i_docking_score>  (17) 
-2.63633

>  <r_i_glide_ligand_efficiency>  (17) 
-0.105453

>  <r_i_glide_ligand_efficiency_sa>  (17) 
-0.308347

>  <r_i_glide_ligand_efficiency_ln>  (17) 
-0.62489

>  <r_i_glide_gscore>  (17) 
-2.63633

>  <r_i_glide_lipo>  (17) 
-0.698777

>  <r_i_glide_hbond>  (17) 
0

>  <r_i_glide_metal>  (17) 
-0

>  <r_i_glide_rewards>  (17) 
-1.0337

>  <r_i_glide_evdw>  (17) 
-9.42299

>  <r_i_glide_ecoul>  (17) 
-4.63466

>  <r_i_glide_erotb>  (17) 
0.156835

>  <r_i_glide_esite>  (17) 
-0.0370974

>  <r_i_glide_emodel>  (17) 
-5.36571

>  <r_i_glide_energy>  (17) 
-14.0576

>  <r_i_glide_einternal>  (17) 
10.4101

>  <r_i_glide_intrahb_reward>  (17) 
-0

>  <i_i_glide_confnum>  (17) 
1

>  <i_i_glide_posenum>  (17) 
1

>  <r_i_glide_eff_state_penalty>  (17) 
0

>  <ligand_id>  (17) 
7

>  <original_smiles>  (17) 
CC(=O)OC12C3C4C(CC5C6C4C(O)C3C56O)C3C1C(O)CCC32O

>  <smiles>  (17) 
[H]OC1([H])C2([H])C3([H])C4([H])C([H])([H])C5([H])C2([H])C5(O[H])C1([H])C3([H])C1(OC(=O)C([H])([H])[H])C2([H])C([H])(O[H])C([H])([H])C([H])([H])C1(O[H])C42[H]

$$$$
7:0:2
     RDKit          3D

 49 55  0  0  1  0  0  0  0  0999 V2000
    2.9107   -0.1712    1.7399 C   0  0  0  0  0  0  0  0  0  0  0  0
    2.2867   -1.5787    1.7215 C   0  0  0  0  0  0  0  0  0  0  0  0
    1.3368   -1.8539    2.4476 O   0  0  0  0  0  0  0  0  0  0  0  0
    2.8284   -2.5198    0.8955 O   0  0  0  0  0  0  0  0  0  0  0  0
    4.0229   -2.3771    0.1222 C   0  0  2  0  0  0  0  0  0  0  0  0
    3.7988   -1.5032   -1.1480 C   0  0  1  0  0  0  0  0  0  0  0  0
    5.0840   -1.1409   -1.9145 C   0  0  1  0  0  0  0  0  0  0  0  0
    6.1422   -2.2407   -1.5717 C   0  0  2  0  0  0  0  0  0  0  0  0
    6.2064   -3.2883   -2.6448 C   0  0  0  0  0  0  0  0  0  0  0  0
    4.9551   -3.5651   -3.3794 C   0  0  2  0  0  0  0  0  0  0  0  0
    4.4310   -2.3515   -3.9746 C   0  0  2  0  0  0  0  0  0  0  0  0
    4.5927   -1.0077   -3.3791 C   0  0  1  0  0  0  0  0  0  0  0  0
    3.1591   -0.6810   -3.2092 C   0  0  1  0  0  0  0  0  0  0  0  0
    2.5528   -0.5809   -4.4668 O   0  0  0  0  0  0  0  0  0  0  0  0
    2.9076   -1.9572   -2.3184 C   0  0  1  0  0  0  0  0  0  0  0  0
    3.5113   -3.1109   -3.0733 C   0  0  2  0  0  0  0  0  0  0  0  0
    2.6249   -3.8044   -3.8894 O   0  0  0  0  0  0  0  0  0  0  0  0
    5.9342   -2.9442   -0.2149 C   0  0  2  0  0  0  0  0  0  0  0  0
    4.6548   -3.7784   -0.0667 C   0  0  1  0  0  0  0  0  0  0  0  0
    4.6090   -4.8003    1.0666 C   0  0  1  0  0  0  0  0  0  0  0  0
    5.2028   -6.0036    0.6232 O   0  0  0  0  0  0  0  0  0  0  0  0
    5.3411   -4.2957    2.3209 C   0  0  0  0  0  0  0  0  0  0  0  0
    5.3936   -2.7611    2.3530 C   0  0  0  0  0  0  0  0  0  0  0  0
    5.3376   -2.1483    0.9485 C   0  0  2  0  0  0  0  0  0  0  0  0
    5.9023   -0.8592    1.0481 O   0  0  0  0  0  0  0  0  0  0  0  0
    3.7404   -0.0708    1.0623 H   0  0  0  0  0  0  0  0  0  0  0  0
    3.3112    0.0508    2.7296 H   0  0  0  0  0  0  0  0  0  0  0  0
    2.1944    0.5872    1.4163 H   0  0  0  0  0  0  0  0  0  0  0  0
    3.3644   -0.5769   -0.8262 H   0  0  0  0  0  0  0  0  0  0  0  0
    5.4579   -0.2052   -1.5320 H   0  0  0  0  0  0  0  0  0  0  0  0
    7.1355   -1.8157   -1.5213 H   0  0  0  0  0  0  0  0  0  0  0  0
    6.9149   -2.9189   -3.3640 H   0  0  0  0  0  0  0  0  0  0  0  0
    6.5440   -4.2188   -2.2248 H   0  0  0  0  0  0  0  0  0  0  0  0
    5.0099   -4.4451   -4.0085 H   0  0  0  0  0  0  0  0  0  0  0  0
    4.1892   -2.3705   -5.0032 H   0  0  0  0  0  0  0  0  0  0  0  0
    5.0176   -0.2795   -4.0534 H   0  0  0  0  0  0  0  0  0  0  0  0
    3.0245    0.2877   -2.7215 H   0  0  0  0  0  0  0  0  0  0  0  0
    1.6431   -0.4360   -4.2595 H   0  0  0  0  0  0  0  0  0  0  0  0
    1.8703   -2.2373   -2.0473 H   0  0  0  0  0  0  0  0  0  0  0  0
    2.3309   -4.5558   -3.3827 H   0  0  0  0  0  0  0  0  0  0  0  0
    6.8329   -3.4740    0.1145 H   0  0  0  0  0  0  0  0  0  0  0  0
    4.3521   -4.2447   -0.9910 H   0  0  0  0  0  0  0  0  0  0  0  0
    3.5675   -5.0021    1.2994 H   0  0  0  0  0  0  0  0  0  0  0  0
    5.0701   -6.6728    1.2784 H   0  0  0  0  0  0  0  0  0  0  0  0
    4.8818   -4.6938    3.2258 H   0  0  0  0  0  0  0  0  0  0  0  0
    6.3716   -4.6510    2.3007 H   0  0  0  0  0  0  0  0  0  0  0  0
    4.5879   -2.3764    2.9719 H   0  0  0  0  0  0  0  0  0  0  0  0
    6.2824   -2.4217    2.8613 H   0  0  0  0  0  0  0  0  0  0  0  0
    5.4035   -0.3076    0.4690 H   0  0  0  0  0  0  0  0  0  0  0  0
  1  2  1  0
  1 26  1  0
  1 27  1  0
  1 28  1  0
  2  3  2  0
  2  4  1  0
  5  4  1  1
  5 19  1  0
  5 24  1  0
  5  6  1  0
  6 15  1  0
  6  7  1  0
  6 29  1  1
  7 12  1  0
  7  8  1  0
  7 30  1  1
  8  9  1  0
  8 18  1  0
  8 31  1  1
  9 10  1  0
  9 32  1  0
  9 33  1  0
 10 16  1  0
 10 11  1  0
 10 34  1  6
 11 16  1  0
 11 12  1  0
 11 35  1  6
 12 13  1  0
 12 36  1  6
 13 14  1  0
 13 15  1  0
 13 37  1  1
 14 38  1  0
 15 16  1  0
 15 39  1  1
 16 17  1  6
 17 40  1  0
 18 24  1  0
 18 19  1  0
 18 41  1  1
 19 20  1  0
 19 42  1  6
 20 21  1  0
 20 22  1  0
 20 43  1  1
 21 44  1  0
 22 23  1  0
 22 45  1  0
 22 46  1  0
 23 24  1  0
 23 47  1  0
 23 48  1  0
 24 25  1  1
 25 49  1  0
M  END
>  <i_m_ct_stereo_status>  (18) 
1

>  <s_m_source_file>  (18) 
/var/tmp/pbs.5076255.sched01/tmppz0entnt/04_lepiep.sdf

>  <i_m_source_file_index>  (18) 
8

>  <i_lp_mmshare_version>  (18) 
48012

>  <i_f3d_flags>  (18) 
0

>  <s_epik_input>  (18) 
W09IXVtDQEBdMTJbQ0gyXVtDSDJdW0NASF0oW09IXSlbQ0BASF0zW0NASF0yW0NIXShbQ0BASF00W0NAQEhdNVtDQF0xM09DKD1PKVtDSDNdKVtDSDJdW0NAQEhdNltDQEBIXTdbQ0BIXTRbQ0BASF0oW09IXSlbQ0BIXTVbQ0BdNjdbT0hd

>  <s_epik_cmdline>  (18) 
J2VwaWtfcHl0aG9uJywgJy1waHQnLCAnMi4wJywgJy1waCcsICc3LjAnLCAnLXRuJywgJzgnLCAnLW1hJywgJzIwMCcsICctaW1hZScsICc8aW5maWxlLm1hZT4nLCAnLW9tYWUnLCAnPG91dGZpbGUubWFlPic=

>  <r_lp_tautomer_probability>  (18) 
1

>  <r_epik_Ionization_Penalty>  (18) 
2.77974e-06

>  <r_epik_Ionization_Penalty_Charging>  (18) 
0

>  <r_epik_Ionization_Penalty_Neutral>  (18) 
2.77974e-06

>  <r_epik_State_Penalty>  (18) 
-0

>  <r_epik_Charging_Adjusted_Penalty>  (18) 
0

>  <i_epik_Tot_Q>  (18) 
0

>  <i_epik_Tot_abs_Q>  (18) 
0

>  <s_epik_Chemistry_Notes>  (18) 
This compound has an ester and may undergo hydrolysis at high or low pH.

>  <s_lp_Force_Field>  (18) 
OPLS3e

>  <r_lp_Energy>  (18) 
85.8616

>  <b_lp_Chiralities_Consistent>  (18) 
1

>  <s_lp_Variant>  (18) 
7:0-1

>  <s_i_glide_gridfile>  (18) 
pfpi4k_grid

>  <i_i_glide_lignum>  (18) 
8

>  <i_i_glide_rotatable_bonds>  (18) 
6

>  <r_i_docking_score>  (18) 
-2.36302

>  <r_i_glide_ligand_efficiency>  (18) 
-0.0945207

>  <r_i_glide_ligand_efficiency_sa>  (18) 
-0.27638

>  <r_i_glide_ligand_efficiency_ln>  (18) 
-0.560106

>  <r_i_glide_gscore>  (18) 
-2.36302

>  <r_i_glide_lipo>  (18) 
-0.857111

>  <r_i_glide_hbond>  (18) 
0

>  <r_i_glide_metal>  (18) 
-0

>  <r_i_glide_rewards>  (18) 
-1.0337

>  <r_i_glide_evdw>  (18) 
-6.66247

>  <r_i_glide_ecoul>  (18) 
-1.58435

>  <r_i_glide_erotb>  (18) 
0.156835

>  <r_i_glide_esite>  (18) 
-0.0582626

>  <r_i_glide_emodel>  (18) 
-3.99247

>  <r_i_glide_energy>  (18) 
-8.24682

>  <r_i_glide_einternal>  (18) 
6.46769

>  <r_i_glide_intrahb_reward>  (18) 
-0

>  <i_i_glide_confnum>  (18) 
3

>  <i_i_glide_posenum>  (18) 
10

>  <r_i_glide_eff_state_penalty>  (18) 
0

>  <ligand_id>  (18) 
7

>  <original_smiles>  (18) 
CC(=O)OC12C3C4C(CC5C6C4C(O)C3C56O)C3C1C(O)CCC32O

>  <smiles>  (18) 
[H]OC1([H])C2([H])C3([H])C4([H])C([H])([H])C5([H])C2([H])C5(O[H])C1([H])C3([H])C1(OC(=O)C([H])([H])[H])C2([H])C([H])(O[H])C([H])([H])C([H])([H])C1(O[H])C42[H]

$$$$
9:0:0
     RDKit          3D

 91 97  0  0  1  0  0  0  0  0999 V2000
   -1.1367   -9.4840    2.7457 C   0  0  0  0  0  0  0  0  0  0  0  0
   -0.2550   -8.3622    3.2798 C   0  0  2  0  0  0  0  0  0  0  0  0
   -0.5417   -7.0631    2.5491 C   0  0  0  0  0  0  0  0  0  0  0  0
    0.4036   -5.9846    3.0718 C   0  0  0  0  0  0  0  0  0  0  0  0
    1.8820   -6.4189    2.9092 C   0  0  1  0  0  0  0  0  0  0  0  0
    2.0669   -7.6300    3.5673 O   0  0  0  0  0  0  0  0  0  0  0  0
    1.2427   -8.7092    3.1435 C   0  0  0  0  0  0  0  0  0  0  0  0
    2.0972   -6.5863    1.5182 O   0  0  0  0  0  0  0  0  0  0  0  0
    3.1445   -5.8570    0.8865 C   0  0  0  0  0  0  0  0  0  0  0  0
    2.9151   -4.3711    1.1730 C   0  0  2  0  0  0  0  0  0  0  0  0
    3.9650   -3.4276    0.5588 C   0  0  1  0  0  0  0  0  0  0  0  0
    3.6860   -3.0131   -0.8960 C   0  0  0  0  0  0  0  0  0  0  0  0
    4.0528   -2.2697    1.5770 C   0  0  1  0  0  0  0  0  0  0  0  0
    2.9132   -1.2456    1.3851 C   0  0  0  0  0  0  0  0  0  0  0  0
    2.7286   -0.2733    2.5519 C   0  0  0  0  0  0  0  0  0  0  0  0
    2.5173   -1.0479    3.8656 C   0  0  2  0  0  0  0  0  0  0  0  0
    2.1730   -0.2044    5.1228 C   0  0  2  0  0  0  0  0  0  0  0  0
    0.9504    0.7349    4.9547 C   0  0  0  0  0  0  0  0  0  0  0  0
    1.2146    2.2874    4.8940 C   0  0  1  0  0  0  0  0  0  0  0  0
    1.2688    2.8786    3.4699 C   0  0  0  0  0  0  0  0  0  0  0  0
    1.4277    4.4195    3.4852 C   0  0  0  0  0  0  0  0  0  0  0  0
    0.3092    5.1055    4.2814 C   0  0  1  0  0  0  0  0  0  0  0  0
   -0.9306    4.9570    3.5914 O   0  0  0  0  0  0  0  0  0  0  0  0
    0.2200    4.5343    5.6947 C   0  0  0  0  0  0  0  0  0  0  0  0
    0.0699    2.9779    5.6749 C   0  0  0  0  0  0  0  0  0  0  0  0
    2.4066    2.6585    5.5964 O   0  0  0  0  0  0  0  0  0  0  0  0
    3.5628    1.8808    5.3152 C   0  0  0  0  0  0  0  0  0  0  0  0
    3.3390    0.4739    5.8881 C   0  0  1  0  0  0  0  0  0  0  0  0
    2.9794    0.6246    7.3853 C   0  0  0  0  0  0  0  0  0  0  0  0
    4.6309   -0.3824    5.8575 C   0  0  0  0  0  0  0  0  0  0  0  0
    4.9216   -1.1375    4.5567 C   0  0  0  0  0  0  0  0  0  0  0  0
    3.7040   -1.9979    4.1254 C   0  0  2  0  0  0  0  0  0  0  0  0
    3.9767   -3.0033    2.9443 C   0  0  2  0  0  0  0  0  0  0  0  0
    5.3040   -3.7371    3.1955 C   0  0  0  0  0  0  0  0  0  0  0  0
    2.8640   -4.0703    2.6918 C   0  0  2  0  0  0  0  0  0  0  0  0
    2.8886   -5.3882    3.5279 C   0  0  1  0  0  0  0  0  0  0  0  0
    2.5905   -5.1795    5.0259 C   0  0  0  0  0  0  0  0  0  0  0  0
   -0.9900   -9.6605    1.6829 H   0  0  0  0  0  0  0  0  0  0  0  0
   -2.1969   -9.2939    2.8997 H   0  0  0  0  0  0  0  0  0  0  0  0
   -0.8963  -10.4054    3.2657 H   0  0  0  0  0  0  0  0  0  0  0  0
   -0.4802   -8.2253    4.3400 H   0  0  0  0  0  0  0  0  0  0  0  0
   -0.4272   -7.2093    1.4718 H   0  0  0  0  0  0  0  0  0  0  0  0
   -1.5788   -6.7801    2.7198 H   0  0  0  0  0  0  0  0  0  0  0  0
    0.2683   -5.0611    2.5239 H   0  0  0  0  0  0  0  0  0  0  0  0
    0.1756   -5.7662    4.1106 H   0  0  0  0  0  0  0  0  0  0  0  0
    1.4762   -9.5789    3.7623 H   0  0  0  0  0  0  0  0  0  0  0  0
    1.4836   -8.9728    2.1133 H   0  0  0  0  0  0  0  0  0  0  0  0
    4.1206   -6.1979    1.2322 H   0  0  0  0  0  0  0  0  0  0  0  0
    3.1034   -6.0375   -0.1866 H   0  0  0  0  0  0  0  0  0  0  0  0
    1.9502   -4.1056    0.7513 H   0  0  0  0  0  0  0  0  0  0  0  0
    4.9323   -3.9338    0.5433 H   0  0  0  0  0  0  0  0  0  0  0  0
    2.7046   -2.5559   -1.0171 H   0  0  0  0  0  0  0  0  0  0  0  0
    3.7195   -3.8840   -1.5514 H   0  0  0  0  0  0  0  0  0  0  0  0
    4.4331   -2.3030   -1.2539 H   0  0  0  0  0  0  0  0  0  0  0  0
    5.0011   -1.7434    1.4718 H   0  0  0  0  0  0  0  0  0  0  0  0
    3.0916   -0.6583    0.4793 H   0  0  0  0  0  0  0  0  0  0  0  0
    1.9713   -1.7661    1.2314 H   0  0  0  0  0  0  0  0  0  0  0  0
    3.5857    0.3950    2.5944 H   0  0  0  0  0  0  0  0  0  0  0  0
    1.8607    0.3385    2.3287 H   0  0  0  0  0  0  0  0  0  0  0  0
    1.6246   -1.6534    3.7064 H   0  0  0  0  0  0  0  0  0  0  0  0
    1.8171   -0.9866    5.8118 H   0  0  0  0  0  0  0  0  0  0  0  0
    0.3435    0.4467    4.0938 H   0  0  0  0  0  0  0  0  0  0  0  0
    0.2993    0.5271    5.7972 H   0  0  0  0  0  0  0  0  0  0  0  0
    2.0881    2.4764    2.8860 H   0  0  0  0  0  0  0  0  0  0  0  0
    0.3687    2.6137    2.9114 H   0  0  0  0  0  0  0  0  0  0  0  0
    2.3912    4.6618    3.9328 H   0  0  0  0  0  0  0  0  0  0  0  0
    1.4599    4.8166    2.4695 H   0  0  0  0  0  0  0  0  0  0  0  0
    0.5247    6.1740    4.3293 H   0  0  0  0  0  0  0  0  0  0  0  0
   -0.7156    4.8480    2.6766 H   0  0  0  0  0  0  0  0  0  0  0  0
    1.1369    4.7890    6.2363 H   0  0  0  0  0  0  0  0  0  0  0  0
   -0.5986    4.9950    6.2549 H   0  0  0  0  0  0  0  0  0  0  0  0
   -0.8849    2.7115    5.2154 H   0  0  0  0  0  0  0  0  0  0  0  0
    0.0175    2.6410    6.7030 H   0  0  0  0  0  0  0  0  0  0  0  0
    3.7984    1.8723    4.2542 H   0  0  0  0  0  0  0  0  0  0  0  0
    4.3974    2.3649    5.8175 H   0  0  0  0  0  0  0  0  0  0  0  0
    3.7679    1.1544    7.9247 H   0  0  0  0  0  0  0  0  0  0  0  0
    2.8442   -0.3442    7.8727 H   0  0  0  0  0  0  0  0  0  0  0  0
    2.0554    1.1826    7.5406 H   0  0  0  0  0  0  0  0  0  0  0  0
    5.4980    0.2453    6.0866 H   0  0  0  0  0  0  0  0  0  0  0  0
    4.6003   -1.1298    6.6517 H   0  0  0  0  0  0  0  0  0  0  0  0
    5.2223   -0.4401    3.7795 H   0  0  0  0  0  0  0  0  0  0  0  0
    5.7970   -1.7547    4.7491 H   0  0  0  0  0  0  0  0  0  0  0  0
    3.4538   -2.6005    4.9991 H   0  0  0  0  0  0  0  0  0  0  0  0
    5.3895   -4.0897    4.2237 H   0  0  0  0  0  0  0  0  0  0  0  0
    6.1054   -3.0509    2.9835 H   0  0  0  0  0  0  0  0  0  0  0  0
    5.4573   -4.6038    2.5546 H   0  0  0  0  0  0  0  0  0  0  0  0
    1.9023   -3.6040    2.8797 H   0  0  0  0  0  0  0  0  0  0  0  0
    3.8480   -5.8760    3.4688 H   0  0  0  0  0  0  0  0  0  0  0  0
    1.7155   -4.5502    5.1708 H   0  0  0  0  0  0  0  0  0  0  0  0
    3.4234   -4.7080    5.5370 H   0  0  0  0  0  0  0  0  0  0  0  0
    2.4106   -6.1264    5.5361 H   0  0  0  0  0  0  0  0  0  0  0  0
  1  2  1  0
  1 38  1  0
  1 39  1  0
  1 40  1  0
  2  7  1  0
  2  3  1  0
  2 41  1  1
  3  4  1  0
  3 42  1  0
  3 43  1  0
  4  5  1  0
  4 44  1  0
  4 45  1  0
  5 36  1  0
  5  6  1  1
  5  8  1  0
  6  7  1  0
  7 46  1  0
  7 47  1  0
  8  9  1  0
  9 10  1  0
  9 48  1  0
  9 49  1  0
 10 35  1  0
 10 11  1  0
 10 50  1  6
 11 12  1  0
 11 13  1  0
 11 51  1  6
 12 52  1  0
 12 53  1  0
 12 54  1  0
 13 33  1  0
 13 14  1  0
 13 55  1  1
 14 15  1  0
 14 56  1  0
 14 57  1  0
 15 16  1  0
 15 58  1  0
 15 59  1  0
 16 32  1  0
 16 17  1  0
 16 60  1  6
 17 28  1  0
 17 18  1  0
 17 61  1  1
 18 19  1  0
 18 62  1  0
 18 63  1  0
 19 25  1  0
 19 20  1  0
 19 26  1  1
 20 21  1  0
 20 64  1  0
 20 65  1  0
 21 22  1  0
 21 66  1  0
 21 67  1  0
 22 23  1  0
 22 24  1  0
 22 68  1  1
 23 69  1  0
 24 25  1  0
 24 70  1  0
 24 71  1  0
 25 72  1  0
 25 73  1  0
 26 27  1  0
 27 28  1  0
 27 74  1  0
 27 75  1  0
 28 29  1  1
 28 30  1  0
 29 76  1  0
 29 77  1  0
 29 78  1  0
 30 31  1  0
 30 79  1  0
 30 80  1  0
 31 32  1  0
 31 81  1  0
 31 82  1  0
 32 33  1  0
 32 83  1  1
 33 34  1  1
 33 35  1  0
 34 84  1  0
 34 85  1  0
 34 86  1  0
 35 36  1  0
 35 87  1  6
 36 37  1  0
 36 88  1  1
 37 89  1  0
 37 90  1  0
 37 91  1  0
M  END
>  <i_m_ct_stereo_status>  (19) 
1

>  <s_m_source_file>  (19) 
/var/tmp/pbs.5076255.sched01/tmppz0entnt/04_lepiep.sdf

>  <i_m_source_file_index>  (19) 
10

>  <i_lp_mmshare_version>  (19) 
48012

>  <i_f3d_flags>  (19) 
0

>  <s_epik_input>  (19) 
TzFbQ0gyXVtDQEhdKFtDSDNdKVtDSDJdW0NIMl1bQ0BdMTJPW0NIMl1bQ0BIXTNbQ0BASF0oW0NASF0yW0NIM10pW0NAQF00KFtDSDNdKVtDQEBIXShbQ0BASF0zW0NIM10pW0NIMl1bQ0gyXVtDQEBIXTVbQ0BIXTZbQ0BAXShbQ0gzXSkoW0NIMl1bQ0gyXVtDQEhdNDUpW0NIMl1PW0NAXTcoW0NIMl02KVtDSDJdW0NIMl1bQ0BASF0oW09IXSlbQ0gyXVtDSDJdNw==

>  <s_epik_cmdline>  (19) 
J2VwaWtfcHl0aG9uJywgJy1waHQnLCAnMi4wJywgJy1waCcsICc3LjAnLCAnLXRuJywgJzgnLCAnLW1hJywgJzIwMCcsICctaW1hZScsICc8aW5maWxlLm1hZT4nLCAnLW9tYWUnLCAnPG91dGZpbGUubWFlPic=

>  <r_lp_tautomer_probability>  (19) 
1

>  <r_epik_Ionization_Penalty>  (19) 
1.66701e-06

>  <r_epik_Ionization_Penalty_Charging>  (19) 
0

>  <r_epik_Ionization_Penalty_Neutral>  (19) 
1.66701e-06

>  <r_epik_State_Penalty>  (19) 
-0

>  <r_epik_Charging_Adjusted_Penalty>  (19) 
0

>  <i_epik_Tot_Q>  (19) 
0

>  <i_epik_Tot_abs_Q>  (19) 
0

>  <s_lp_Force_Field>  (19) 
OPLS3e

>  <r_lp_Energy>  (19) 
82.5985

>  <b_lp_Chiralities_Consistent>  (19) 
1

>  <s_lp_Variant>  (19) 
9:0-1

>  <s_i_glide_gridfile>  (19) 
pfpi4k_grid

>  <i_i_glide_lignum>  (19) 
10

>  <i_i_glide_rotatable_bonds>  (19) 
1

>  <r_i_docking_score>  (19) 
-2.73316

>  <r_i_glide_ligand_efficiency>  (19) 
-0.0738691

>  <r_i_glide_ligand_efficiency_sa>  (19) 
-0.246148

>  <r_i_glide_ligand_efficiency_ln>  (19) 
-0.592758

>  <r_i_glide_gscore>  (19) 
-2.73316

>  <r_i_glide_lipo>  (19) 
-0.143808

>  <r_i_glide_hbond>  (19) 
-0.258581

>  <r_i_glide_metal>  (19) 
-0

>  <r_i_glide_rewards>  (19) 
0

>  <r_i_glide_evdw>  (19) 
-28.5025

>  <r_i_glide_ecoul>  (19) 
-5.95346

>  <r_i_glide_erotb>  (19) 
0

>  <r_i_glide_esite>  (19) 
-0.0126256

>  <r_i_glide_emodel>  (19) 
-39.3048

>  <r_i_glide_energy>  (19) 
-34.4559

>  <r_i_glide_einternal>  (19) 
0.997117

>  <r_i_glide_intrahb_reward>  (19) 
-0

>  <i_i_glide_confnum>  (19) 
2

>  <i_i_glide_posenum>  (19) 
22

>  <r_i_glide_eff_state_penalty>  (19) 
0

>  <ligand_id>  (19) 
9

>  <original_smiles>  (19) 
CC1CCC2(OC1)OCC1C(C)C3CCC4C5CC6(CCC(O)CC6)OCC5(C)CCC4C3(C)C1C2C

>  <smiles>  (19) 
[H]OC1([H])C([H])([H])C([H])([H])C2(OC([H])([H])C3(C([H])([H])[H])C([H])([H])C([H])([H])C4([H])C([H])(C([H])([H])C([H])([H])C5([H])C([H])(C([H])([H])[H])C6([H])C([H])([H])OC7(OC([H])([H])C([H])(C([H])([H])[H])C([H])([H])C7([H])[H])C([H])(C([H])([H])[H])C6([H])C54C([H])([H])[H])C3([H])C2([H])[H])C([H])([H])C1([H])[H]

$$$$
9:0:1
     RDKit          3D

 91 97  0  0  1  0  0  0  0  0999 V2000
   -2.5240    3.5547    4.2656 C   0  0  0  0  0  0  0  0  0  0  0  0
   -1.4440    2.5993    3.7590 C   0  0  2  0  0  0  0  0  0  0  0  0
   -1.3406    1.3713    4.6668 C   0  0  0  0  0  0  0  0  0  0  0  0
   -0.1982    0.4654    4.1994 C   0  0  0  0  0  0  0  0  0  0  0  0
    1.1249    1.2773    4.1017 C   0  0  1  0  0  0  0  0  0  0  0  0
    0.9314    2.3835    3.2717 O   0  0  0  0  0  0  0  0  0  0  0  0
   -0.0780    3.2971    3.6881 C   0  0  0  0  0  0  0  0  0  0  0  0
    1.4477    1.7034    5.4082 O   0  0  0  0  0  0  0  0  0  0  0  0
    2.6881    1.3151    5.9808 C   0  0  0  0  0  0  0  0  0  0  0  0
    2.8212   -0.2084    5.8729 C   0  0  2  0  0  0  0  0  0  0  0  0
    4.1269   -0.7827    6.4467 C   0  0  1  0  0  0  0  0  0  0  0  0
    4.0955   -1.0564    7.9630 C   0  0  0  0  0  0  0  0  0  0  0  0
    4.4205   -1.9938    5.5404 C   0  0  1  0  0  0  0  0  0  0  0  0
    3.5881   -3.2317    5.9722 C   0  0  0  0  0  0  0  0  0  0  0  0
    3.5477   -4.3545    4.9370 C   0  0  0  0  0  0  0  0  0  0  0  0
    3.0341   -3.8346    3.5865 C   0  0  2  0  0  0  0  0  0  0  0  0
    2.7957   -4.8922    2.4675 C   0  0  2  0  0  0  0  0  0  0  0  0
    1.8677   -6.0669    2.8767 C   0  0  0  0  0  0  0  0  0  0  0  0
    2.5063   -7.4838    3.0776 C   0  0  1  0  0  0  0  0  0  0  0  0
    2.8311   -7.8588    4.5523 C   0  0  0  0  0  0  0  0  0  0  0  0
    1.5686   -8.0251    5.4212 C   0  0  0  0  0  0  0  0  0  0  0  0
    0.5975   -9.0519    4.8152 C   0  0  1  0  0  0  0  0  0  0  0  0
   -0.5823   -9.0543    5.5831 O   0  0  0  0  0  0  0  0  0  0  0  0
    0.2513   -8.6940    3.3554 C   0  0  0  0  0  0  0  0  0  0  0  0
    1.5447   -8.5616    2.5131 C   0  0  0  0  0  0  0  0  0  0  0  0
    3.6927   -7.6579    2.3056 O   0  0  0  0  0  0  0  0  0  0  0  0
    4.6440   -6.5986    2.3391 C   0  0  0  0  0  0  0  0  0  0  0  0
    4.0312   -5.3614    1.6569 C   0  0  1  0  0  0  0  0  0  0  0  0
    3.5842   -5.7827    0.2422 C   0  0  0  0  0  0  0  0  0  0  0  0
    5.0632   -4.2234    1.4416 C   0  0  0  0  0  0  0  0  0  0  0  0
    5.2639   -3.2591    2.6152 C   0  0  0  0  0  0  0  0  0  0  0  0
    3.9187   -2.6616    3.0933 C   0  0  2  0  0  0  0  0  0  0  0  0
    4.0498   -1.4754    4.1221 C   0  0  2  0  0  0  0  0  0  0  0  0
    5.1279   -0.4677    3.6250 C   0  0  0  0  0  0  0  0  0  0  0  0
    2.7210   -0.6925    4.4066 C   0  0  2  0  0  0  0  0  0  0  0  0
    2.3022    0.4655    3.4542 C   0  0  1  0  0  0  0  0  0  0  0  0
    1.9342    0.0060    2.0254 C   0  0  0  0  0  0  0  0  0  0  0  0
   -2.3066    3.9010    5.2751 H   0  0  0  0  0  0  0  0  0  0  0  0
   -3.5044    3.0800    4.2872 H   0  0  0  0  0  0  0  0  0  0  0  0
   -2.5892    4.4353    3.6291 H   0  0  0  0  0  0  0  0  0  0  0  0
   -1.7189    2.2768    2.7543 H   0  0  0  0  0  0  0  0  0  0  0  0
   -1.1881    1.6791    5.7030 H   0  0  0  0  0  0  0  0  0  0  0  0
   -2.2743    0.8107    4.6348 H   0  0  0  0  0  0  0  0  0  0  0  0
   -0.0700   -0.3478    4.9154 H   0  0  0  0  0  0  0  0  0  0  0  0
   -0.4565    0.0317    3.2337 H   0  0  0  0  0  0  0  0  0  0  0  0
   -0.1199    4.1177    2.9719 H   0  0  0  0  0  0  0  0  0  0  0  0
    0.1881    3.7361    4.6498 H   0  0  0  0  0  0  0  0  0  0  0  0
    3.5182    1.8352    5.5035 H   0  0  0  0  0  0  0  0  0  0  0  0
    2.6841    1.6239    7.0241 H   0  0  0  0  0  0  0  0  0  0  0  0
    1.9828   -0.6358    6.4233 H   0  0  0  0  0  0  0  0  0  0  0  0
    4.9224   -0.0538    6.2915 H   0  0  0  0  0  0  0  0  0  0  0  0
    3.2768   -1.7194    8.2493 H   0  0  0  0  0  0  0  0  0  0  0  0
    3.9677   -0.1249    8.5165 H   0  0  0  0  0  0  0  0  0  0  0  0
    5.0309   -1.5112    8.2947 H   0  0  0  0  0  0  0  0  0  0  0  0
    5.4762   -2.2609    5.5894 H   0  0  0  0  0  0  0  0  0  0  0  0
    3.9873   -3.6402    6.8999 H   0  0  0  0  0  0  0  0  0  0  0  0
    2.5595   -2.9400    6.1834 H   0  0  0  0  0  0  0  0  0  0  0  0
    4.5324   -4.8097    4.8580 H   0  0  0  0  0  0  0  0  0  0  0  0
    2.8780   -5.1208    5.3189 H   0  0  0  0  0  0  0  0  0  0  0  0
    2.0401   -3.4414    3.7865 H   0  0  0  0  0  0  0  0  0  0  0  0
    2.2053   -4.3153    1.7560 H   0  0  0  0  0  0  0  0  0  0  0  0
    1.2907   -5.7814    3.7535 H   0  0  0  0  0  0  0  0  0  0  0  0
    1.1206   -6.1389    2.0857 H   0  0  0  0  0  0  0  0  0  0  0  0
    3.3635   -8.8076    4.5624 H   0  0  0  0  0  0  0  0  0  0  0  0
    3.5189   -7.1602    5.0158 H   0  0  0  0  0  0  0  0  0  0  0  0
    1.8449   -8.3433    6.4279 H   0  0  0  0  0  0  0  0  0  0  0  0
    1.0642   -7.0687    5.5443 H   0  0  0  0  0  0  0  0  0  0  0  0
    1.0435  -10.0483    4.8458 H   0  0  0  0  0  0  0  0  0  0  0  0
   -1.1497   -9.7806    5.2914 H   0  0  0  0  0  0  0  0  0  0  0  0
   -0.3975   -9.4572    2.9183 H   0  0  0  0  0  0  0  0  0  0  0  0
   -0.3130   -7.7580    3.3173 H   0  0  0  0  0  0  0  0  0  0  0  0
    1.2925   -8.3599    1.4643 H   0  0  0  0  0  0  0  0  0  0  0  0
    2.0607   -9.5235    2.5035 H   0  0  0  0  0  0  0  0  0  0  0  0
    4.9741   -6.3931    3.3569 H   0  0  0  0  0  0  0  0  0  0  0  0
    5.5221   -6.9343    1.7848 H   0  0  0  0  0  0  0  0  0  0  0  0
    4.4206   -6.1741   -0.3380 H   0  0  0  0  0  0  0  0  0  0  0  0
    3.1645   -4.9444   -0.3151 H   0  0  0  0  0  0  0  0  0  0  0  0
    2.8186   -6.5537    0.2712 H   0  0  0  0  0  0  0  0  0  0  0  0
    6.0274   -4.6529    1.1683 H   0  0  0  0  0  0  0  0  0  0  0  0
    4.7588   -3.6151    0.5872 H   0  0  0  0  0  0  0  0  0  0  0  0
    5.7997   -3.7551    3.4218 H   0  0  0  0  0  0  0  0  0  0  0  0
    5.9412   -2.4860    2.2595 H   0  0  0  0  0  0  0  0  0  0  0  0
    3.4466   -2.2568    2.2032 H   0  0  0  0  0  0  0  0  0  0  0  0
    4.9871   -0.2322    2.5694 H   0  0  0  0  0  0  0  0  0  0  0  0
    6.1383   -0.8549    3.7438 H   0  0  0  0  0  0  0  0  0  0  0  0
    5.1018    0.4775    4.1665 H   0  0  0  0  0  0  0  0  0  0  0  0
    1.9010   -1.4017    4.3878 H   0  0  0  0  0  0  0  0  0  0  0  0
    3.1156    1.1773    3.3411 H   0  0  0  0  0  0  0  0  0  0  0  0
    1.2303   -0.8260    2.0333 H   0  0  0  0  0  0  0  0  0  0  0  0
    2.8143   -0.3109    1.4625 H   0  0  0  0  0  0  0  0  0  0  0  0
    1.4801    0.8115    1.4451 H   0  0  0  0  0  0  0  0  0  0  0  0
  1  2  1  0
  1 38  1  0
  1 39  1  0
  1 40  1  0
  2  7  1  0
  2  3  1  0
  2 41  1  6
  3  4  1  0
  3 42  1  0
  3 43  1  0
  4  5  1  0
  4 44  1  0
  4 45  1  0
  5 36  1  0
  5  6  1  6
  5  8  1  0
  6  7  1  0
  7 46  1  0
  7 47  1  0
  8  9  1  0
  9 10  1  0
  9 48  1  0
  9 49  1  0
 10 35  1  0
 10 11  1  0
 10 50  1  1
 11 12  1  0
 11 13  1  0
 11 51  1  1
 12 52  1  0
 12 53  1  0
 12 54  1  0
 13 33  1  0
 13 14  1  0
 13 55  1  6
 14 15  1  0
 14 56  1  0
 14 57  1  0
 15 16  1  0
 15 58  1  0
 15 59  1  0
 16 32  1  0
 16 17  1  0
 16 60  1  1
 17 28  1  0
 17 18  1  0
 17 61  1  6
 18 19  1  0
 18 62  1  0
 18 63  1  0
 19 25  1  0
 19 20  1  0
 19 26  1  6
 20 21  1  0
 20 64  1  0
 20 65  1  0
 21 22  1  0
 21 66  1  0
 21 67  1  0
 22 23  1  0
 22 24  1  0
 22 68  1  6
 23 69  1  0
 24 25  1  0
 24 70  1  0
 24 71  1  0
 25 72  1  0
 25 73  1  0
 26 27  1  0
 27 28  1  0
 27 74  1  0
 27 75  1  0
 28 29  1  6
 28 30  1  0
 29 76  1  0
 29 77  1  0
 29 78  1  0
 30 31  1  0
 30 79  1  0
 30 80  1  0
 31 32  1  0
 31 81  1  0
 31 82  1  0
 32 33  1  0
 32 83  1  6
 33 34  1  6
 33 35  1  0
 34 84  1  0
 34 85  1  0
 34 86  1  0
 35 36  1  0
 35 87  1  1
 36 37  1  0
 36 88  1  6
 37 89  1  0
 37 90  1  0
 37 91  1  0
M  END
>  <i_m_ct_stereo_status>  (20) 
1

>  <s_m_source_file>  (20) 
/var/tmp/pbs.5076255.sched01/tmppz0entnt/04_lepiep.sdf

>  <i_m_source_file_index>  (20) 
10

>  <i_lp_mmshare_version>  (20) 
48012

>  <i_f3d_flags>  (20) 
0

>  <s_epik_input>  (20) 
TzFbQ0gyXVtDQEhdKFtDSDNdKVtDSDJdW0NIMl1bQ0BdMTJPW0NIMl1bQ0BIXTNbQ0BASF0oW0NASF0yW0NIM10pW0NAQF00KFtDSDNdKVtDQEBIXShbQ0BASF0zW0NIM10pW0NIMl1bQ0gyXVtDQEBIXTVbQ0BIXTZbQ0BAXShbQ0gzXSkoW0NIMl1bQ0gyXVtDQEhdNDUpW0NIMl1PW0NAXTcoW0NIMl02KVtDSDJdW0NIMl1bQ0BASF0oW09IXSlbQ0gyXVtDSDJdNw==

>  <s_epik_cmdline>  (20) 
J2VwaWtfcHl0aG9uJywgJy1waHQnLCAnMi4wJywgJy1waCcsICc3LjAnLCAnLXRuJywgJzgnLCAnLW1hJywgJzIwMCcsICctaW1hZScsICc8aW5maWxlLm1hZT4nLCAnLW9tYWUnLCAnPG91dGZpbGUubWFlPic=

>  <r_lp_tautomer_probability>  (20) 
1

>  <r_epik_Ionization_Penalty>  (20) 
1.66701e-06

>  <r_epik_Ionization_Penalty_Charging>  (20) 
0

>  <r_epik_Ionization_Penalty_Neutral>  (20) 
1.66701e-06

>  <r_epik_State_Penalty>  (20) 
-0

>  <r_epik_Charging_Adjusted_Penalty>  (20) 
0

>  <i_epik_Tot_Q>  (20) 
0

>  <i_epik_Tot_abs_Q>  (20) 
0

>  <s_lp_Force_Field>  (20) 
OPLS3e

>  <r_lp_Energy>  (20) 
82.5985

>  <b_lp_Chiralities_Consistent>  (20) 
1

>  <s_lp_Variant>  (20) 
9:0-1

>  <s_i_glide_gridfile>  (20) 
pfpi4k_grid

>  <i_i_glide_lignum>  (20) 
10

>  <i_i_glide_rotatable_bonds>  (20) 
1

>  <r_i_docking_score>  (20) 
-2.47925

>  <r_i_glide_ligand_efficiency>  (20) 
-0.0670066

>  <r_i_glide_ligand_efficiency_sa>  (20) 
-0.223281

>  <r_i_glide_ligand_efficiency_ln>  (20) 
-0.53769

>  <r_i_glide_gscore>  (20) 
-2.47925

>  <r_i_glide_lipo>  (20) 
-0.233759

>  <r_i_glide_hbond>  (20) 
-0.16

>  <r_i_glide_metal>  (20) 
-0

>  <r_i_glide_rewards>  (20) 
0

>  <r_i_glide_evdw>  (20) 
-27.6962

>  <r_i_glide_ecoul>  (20) 
-4.60825

>  <r_i_glide_erotb>  (20) 
0

>  <r_i_glide_esite>  (20) 
-0.00943973

>  <r_i_glide_emodel>  (20) 
-37.2546

>  <r_i_glide_energy>  (20) 
-32.3044

>  <r_i_glide_einternal>  (20) 
0.378977

>  <r_i_glide_intrahb_reward>  (20) 
-0

>  <i_i_glide_confnum>  (20) 
1

>  <i_i_glide_posenum>  (20) 
2

>  <r_i_glide_eff_state_penalty>  (20) 
0

>  <ligand_id>  (20) 
9

>  <original_smiles>  (20) 
CC1CCC2(OC1)OCC1C(C)C3CCC4C5CC6(CCC(O)CC6)OCC5(C)CCC4C3(C)C1C2C

>  <smiles>  (20) 
[H]OC1([H])C([H])([H])C([H])([H])C2(OC([H])([H])C3(C([H])([H])[H])C([H])([H])C([H])([H])C4([H])C([H])(C([H])([H])C([H])([H])C5([H])C([H])(C([H])([H])[H])C6([H])C([H])([H])OC7(OC([H])([H])C([H])(C([H])([H])[H])C([H])([H])C7([H])[H])C([H])(C([H])([H])[H])C6([H])C54C([H])([H])[H])C3([H])C2([H])[H])C([H])([H])C1([H])[H]

$$$$
9:0:2
     RDKit          3D

 91 97  0  0  1  0  0  0  0  0999 V2000
   -2.5023    3.3859    4.4348 C   0  0  0  0  0  0  0  0  0  0  0  0
   -1.4723    2.3784    3.9158 C   0  0  2  0  0  0  0  0  0  0  0  0
   -1.2953    1.2164    4.8951 C   0  0  0  0  0  0  0  0  0  0  0  0
   -0.1938    0.2718    4.4067 C   0  0  0  0  0  0  0  0  0  0  0  0
    1.1204    1.0620    4.1409 C   0  0  1  0  0  0  0  0  0  0  0  0
    0.8554    2.1062    3.2532 O   0  0  0  0  0  0  0  0  0  0  0  0
   -0.1121    3.0554    3.6828 C   0  0  0  0  0  0  0  0  0  0  0  0
    1.5459    1.5812    5.3850 O   0  0  0  0  0  0  0  0  0  0  0  0
    2.8269    1.2263    5.8882 C   0  0  0  0  0  0  0  0  0  0  0  0
    2.9473   -0.3020    5.8817 C   0  0  2  0  0  0  0  0  0  0  0  0
    4.2932   -0.8443    6.3912 C   0  0  1  0  0  0  0  0  0  0  0  0
    4.3818   -1.0076    7.9215 C   0  0  0  0  0  0  0  0  0  0  0  0
    4.5127   -2.1209    5.5566 C   0  0  1  0  0  0  0  0  0  0  0  0
    3.7149   -3.3191    6.1390 C   0  0  0  0  0  0  0  0  0  0  0  0
    3.5946   -4.5153    5.1947 C   0  0  0  0  0  0  0  0  0  0  0  0
    2.9741   -4.0846    3.8597 C   0  0  2  0  0  0  0  0  0  0  0  0
    2.6397   -5.2207    2.8480 C   0  0  2  0  0  0  0  0  0  0  0  0
    1.7528   -6.3650    3.4236 C   0  0  0  0  0  0  0  0  0  0  0  0
    2.4121   -7.7689    3.6484 C   0  0  1  0  0  0  0  0  0  0  0  0
    2.8539   -8.0444    5.1171 C   0  0  0  0  0  0  0  0  0  0  0  0
    3.3932   -9.4753    5.3127 C   0  0  0  0  0  0  0  0  0  0  0  0
    2.4015  -10.5590    4.8439 C   0  0  1  0  0  0  0  0  0  0  0  0
    1.2714  -10.6005    5.6822 O   0  0  0  0  0  0  0  0  0  0  0  0
    1.9371  -10.2891    3.4037 C   0  0  0  0  0  0  0  0  0  0  0  0
    1.3856   -8.8574    3.2442 C   0  0  0  0  0  0  0  0  0  0  0  0
    3.5249   -7.9841    2.7797 O   0  0  0  0  0  0  0  0  0  0  0  0
    4.4735   -6.9312    2.6806 C   0  0  0  0  0  0  0  0  0  0  0  0
    3.8064   -5.7435    1.9674 C   0  0  1  0  0  0  0  0  0  0  0  0
    3.2474   -6.2483    0.6221 C   0  0  0  0  0  0  0  0  0  0  0  0
    4.8264   -4.6377    1.5927 C   0  0  0  0  0  0  0  0  0  0  0  0
    5.1258   -3.5944    2.6734 C   0  0  0  0  0  0  0  0  0  0  0  0
    3.8229   -2.9601    3.2134 C   0  0  2  0  0  0  0  0  0  0  0  0
    4.0328   -1.7023    4.1378 C   0  0  2  0  0  0  0  0  0  0  0  0
    5.0674   -0.7391    3.4854 C   0  0  0  0  0  0  0  0  0  0  0  0
    2.7307   -0.8919    4.4663 C   0  0  2  0  0  0  0  0  0  0  0  0
    2.2434    0.1984    3.4653 C   0  0  1  0  0  0  0  0  0  0  0  0
    1.7612   -0.3600    2.1066 C   0  0  0  0  0  0  0  0  0  0  0  0
   -2.2003    3.7949    5.3980 H   0  0  0  0  0  0  0  0  0  0  0  0
   -3.4918    2.9472    4.5617 H   0  0  0  0  0  0  0  0  0  0  0  0
   -2.6009    4.2177    3.7419 H   0  0  0  0  0  0  0  0  0  0  0  0
   -1.8247    1.9850    2.9607 H   0  0  0  0  0  0  0  0  0  0  0  0
   -1.0577    1.5965    5.8917 H   0  0  0  0  0  0  0  0  0  0  0  0
   -2.2256    0.6600    4.9806 H   0  0  0  0  0  0  0  0  0  0  0  0
   -0.0067   -0.4883    5.1668 H   0  0  0  0  0  0  0  0  0  0  0  0
   -0.5252   -0.2296    3.4993 H   0  0  0  0  0  0  0  0  0  0  0  0
   -0.2107    3.8204    2.9113 H   0  0  0  0  0  0  0  0  0  0  0  0
    0.2341    3.5641    4.5828 H   0  0  0  0  0  0  0  0  0  0  0  0
    3.6197    1.7048    5.3127 H   0  0  0  0  0  0  0  0  0  0  0  0
    2.9037    1.6093    6.9056 H   0  0  0  0  0  0  0  0  0  0  0  0
    2.1551   -0.6829    6.5264 H   0  0  0  0  0  0  0  0  0  0  0  0
    5.0763   -0.1348    6.1227 H   0  0  0  0  0  0  0  0  0  0  0  0
    3.5882   -1.6416    8.3189 H   0  0  0  0  0  0  0  0  0  0  0  0
    4.3001   -0.0384    8.4151 H   0  0  0  0  0  0  0  0  0  0  0  0
    5.3390   -1.4434    8.2114 H   0  0  0  0  0  0  0  0  0  0  0  0
    5.5700   -2.3903    5.5398 H   0  0  0  0  0  0  0  0  0  0  0  0
    4.1847   -3.6609    7.0613 H   0  0  0  0  0  0  0  0  0  0  0  0
    2.7059   -3.0065    6.4084 H   0  0  0  0  0  0  0  0  0  0  0  0
    4.5725   -4.9763    5.0658 H   0  0  0  0  0  0  0  0  0  0  0  0
    2.9642   -5.2563    5.6796 H   0  0  0  0  0  0  0  0  0  0  0  0
    1.9994   -3.6689    4.1078 H   0  0  0  0  0  0  0  0  0  0  0  0
    1.9893   -4.6957    2.1473 H   0  0  0  0  0  0  0  0  0  0  0  0
    1.2521   -6.0386    4.3364 H   0  0  0  0  0  0  0  0  0  0  0  0
    0.9294   -6.4796    2.7155 H   0  0  0  0  0  0  0  0  0  0  0  0
    3.6241   -7.3508    5.4360 H   0  0  0  0  0  0  0  0  0  0  0  0
    2.0179   -7.8810    5.7947 H   0  0  0  0  0  0  0  0  0  0  0  0
    4.3166   -9.5765    4.7453 H   0  0  0  0  0  0  0  0  0  0  0  0
    3.6663   -9.6403    6.3546 H   0  0  0  0  0  0  0  0  0  0  0  0
    2.8754  -11.5423    4.8850 H   0  0  0  0  0  0  0  0  0  0  0  0
    1.4161  -11.2347    6.3939 H   0  0  0  0  0  0  0  0  0  0  0  0
    2.7741  -10.4326    2.7133 H   0  0  0  0  0  0  0  0  0  0  0  0
    1.1799  -11.0206    3.1094 H   0  0  0  0  0  0  0  0  0  0  0  0
    0.4862   -8.7387    3.8532 H   0  0  0  0  0  0  0  0  0  0  0  0
    1.0590   -8.7236    2.2074 H   0  0  0  0  0  0  0  0  0  0  0  0
    4.8842   -6.6639    3.6523 H   0  0  0  0  0  0  0  0  0  0  0  0
    5.3015   -7.3155    2.0863 H   0  0  0  0  0  0  0  0  0  0  0  0
    4.0383   -6.6926    0.0104 H   0  0  0  0  0  0  0  0  0  0  0  0
    2.7896   -5.4580    0.0337 H   0  0  0  0  0  0  0  0  0  0  0  0
    2.4870   -7.0165    0.7710 H   0  0  0  0  0  0  0  0  0  0  0  0
    5.7634   -5.0972    1.2736 H   0  0  0  0  0  0  0  0  0  0  0  0
    4.4621   -4.0871    0.7220 H   0  0  0  0  0  0  0  0  0  0  0  0
    5.7235   -4.0360    3.4700 H   0  0  0  0  0  0  0  0  0  0  0  0
    5.7720   -2.8539    2.2065 H   0  0  0  0  0  0  0  0  0  0  0  0
    3.2831   -2.6171    2.3332 H   0  0  0  0  0  0  0  0  0  0  0  0
    4.8476   -0.5778    2.4297 H   0  0  0  0  0  0  0  0  0  0  0  0
    6.0821   -1.1235    3.5521 H   0  0  0  0  0  0  0  0  0  0  0  0
    5.0880    0.2421    3.9570 H   0  0  0  0  0  0  0  0  0  0  0  0
    1.9102   -1.5953    4.5661 H   0  0  0  0  0  0  0  0  0  0  0  0
    3.0456    0.8959    3.2390 H   0  0  0  0  0  0  0  0  0  0  0  0
    1.0571   -1.1844    2.2276 H   0  0  0  0  0  0  0  0  0  0  0  0
    2.5910   -0.7229    1.5018 H   0  0  0  0  0  0  0  0  0  0  0  0
    1.2661    0.4039    1.5048 H   0  0  0  0  0  0  0  0  0  0  0  0
  1  2  1  0
  1 38  1  0
  1 39  1  0
  1 40  1  0
  2  7  1  0
  2  3  1  0
  2 41  1  6
  3  4  1  0
  3 42  1  0
  3 43  1  0
  4  5  1  0
  4 44  1  0
  4 45  1  0
  5 36  1  0
  5  6  1  6
  5  8  1  0
  6  7  1  0
  7 46  1  0
  7 47  1  0
  8  9  1  0
  9 10  1  0
  9 48  1  0
  9 49  1  0
 10 35  1  0
 10 11  1  0
 10 50  1  1
 11 12  1  0
 11 13  1  0
 11 51  1  6
 12 52  1  0
 12 53  1  0
 12 54  1  0
 13 33  1  0
 13 14  1  0
 13 55  1  6
 14 15  1  0
 14 56  1  0
 14 57  1  0
 15 16  1  0
 15 58  1  0
 15 59  1  0
 16 32  1  0
 16 17  1  0
 16 60  1  1
 17 28  1  0
 17 18  1  0
 17 61  1  6
 18 19  1  0
 18 62  1  0
 18 63  1  0
 19 25  1  0
 19 20  1  0
 19 26  1  6
 20 21  1  0
 20 64  1  0
 20 65  1  0
 21 22  1  0
 21 66  1  0
 21 67  1  0
 22 23  1  0
 22 24  1  0
 22 68  1  6
 23 69  1  0
 24 25  1  0
 24 70  1  0
 24 71  1  0
 25 72  1  0
 25 73  1  0
 26 27  1  0
 27 28  1  0
 27 74  1  0
 27 75  1  0
 28 29  1  6
 28 30  1  0
 29 76  1  0
 29 77  1  0
 29 78  1  0
 30 31  1  0
 30 79  1  0
 30 80  1  0
 31 32  1  0
 31 81  1  0
 31 82  1  0
 32 33  1  0
 32 83  1  6
 33 34  1  6
 33 35  1  0
 34 84  1  0
 34 85  1  0
 34 86  1  0
 35 36  1  0
 35 87  1  1
 36 37  1  0
 36 88  1  6
 37 89  1  0
 37 90  1  0
 37 91  1  0
M  END
>  <i_m_ct_stereo_status>  (21) 
1

>  <s_m_source_file>  (21) 
/var/tmp/pbs.5076255.sched01/tmppz0entnt/04_lepiep.sdf

>  <i_m_source_file_index>  (21) 
10

>  <i_lp_mmshare_version>  (21) 
48012

>  <i_f3d_flags>  (21) 
0

>  <s_epik_input>  (21) 
TzFbQ0gyXVtDQEhdKFtDSDNdKVtDSDJdW0NIMl1bQ0BdMTJPW0NIMl1bQ0BIXTNbQ0BASF0oW0NASF0yW0NIM10pW0NAQF00KFtDSDNdKVtDQEBIXShbQ0BASF0zW0NIM10pW0NIMl1bQ0gyXVtDQEBIXTVbQ0BIXTZbQ0BAXShbQ0gzXSkoW0NIMl1bQ0gyXVtDQEhdNDUpW0NIMl1PW0NAXTcoW0NIMl02KVtDSDJdW0NIMl1bQ0BASF0oW09IXSlbQ0gyXVtDSDJdNw==

>  <s_epik_cmdline>  (21) 
J2VwaWtfcHl0aG9uJywgJy1waHQnLCAnMi4wJywgJy1waCcsICc3LjAnLCAnLXRuJywgJzgnLCAnLW1hJywgJzIwMCcsICctaW1hZScsICc8aW5maWxlLm1hZT4nLCAnLW9tYWUnLCAnPG91dGZpbGUubWFlPic=

>  <r_lp_tautomer_probability>  (21) 
1

>  <r_epik_Ionization_Penalty>  (21) 
1.66701e-06

>  <r_epik_Ionization_Penalty_Charging>  (21) 
0

>  <r_epik_Ionization_Penalty_Neutral>  (21) 
1.66701e-06

>  <r_epik_State_Penalty>  (21) 
-0

>  <r_epik_Charging_Adjusted_Penalty>  (21) 
0

>  <i_epik_Tot_Q>  (21) 
0

>  <i_epik_Tot_abs_Q>  (21) 
0

>  <s_lp_Force_Field>  (21) 
OPLS3e

>  <r_lp_Energy>  (21) 
82.5985

>  <b_lp_Chiralities_Consistent>  (21) 
1

>  <s_lp_Variant>  (21) 
9:0-1

>  <s_i_glide_gridfile>  (21) 
pfpi4k_grid

>  <i_i_glide_lignum>  (21) 
10

>  <i_i_glide_rotatable_bonds>  (21) 
1

>  <r_i_docking_score>  (21) 
-2.37717

>  <r_i_glide_ligand_efficiency>  (21) 
-0.0642479

>  <r_i_glide_ligand_efficiency_sa>  (21) 
-0.214088

>  <r_i_glide_ligand_efficiency_ln>  (21) 
-0.515553

>  <r_i_glide_gscore>  (21) 
-2.37717

>  <r_i_glide_lipo>  (21) 
-0.264691

>  <r_i_glide_hbond>  (21) 
-0.16

>  <r_i_glide_metal>  (21) 
-0

>  <r_i_glide_rewards>  (21) 
0

>  <r_i_glide_evdw>  (21) 
-27.1974

>  <r_i_glide_ecoul>  (21) 
-3.89895

>  <r_i_glide_erotb>  (21) 
0

>  <r_i_glide_esite>  (21) 
-0.00776967

>  <r_i_glide_emodel>  (21) 
-35.2771

>  <r_i_glide_energy>  (21) 
-31.0963

>  <r_i_glide_einternal>  (21) 
0.987771

>  <r_i_glide_intrahb_reward>  (21) 
-0

>  <i_i_glide_confnum>  (21) 
2

>  <i_i_glide_posenum>  (21) 
9

>  <r_i_glide_eff_state_penalty>  (21) 
0

>  <ligand_id>  (21) 
9

>  <original_smiles>  (21) 
CC1CCC2(OC1)OCC1C(C)C3CCC4C5CC6(CCC(O)CC6)OCC5(C)CCC4C3(C)C1C2C

>  <smiles>  (21) 
[H]OC1([H])C([H])([H])C([H])([H])C2(OC([H])([H])C3(C([H])([H])[H])C([H])([H])C([H])([H])C4([H])C([H])(C([H])([H])C([H])([H])C5([H])C([H])(C([H])([H])[H])C6([H])C([H])([H])OC7(OC([H])([H])C([H])(C([H])([H])[H])C([H])([H])C7([H])[H])C([H])(C([H])([H])[H])C6([H])C54C([H])([H])[H])C3([H])C2([H])[H])C([H])([H])C1([H])[H]

$$$$
9:1:0
     RDKit          3D

 91 97  0  0  1  0  0  0  0  0999 V2000
   -0.3830  -10.0150    2.8810 C   0  0  0  0  0  0  0  0  0  0  0  0
    0.2992   -8.7656    3.4266 C   0  0  2  0  0  0  0  0  0  0  0  0
   -0.1497   -7.5149    2.6679 C   0  0  0  0  0  0  0  0  0  0  0  0
    0.6349   -6.2878    3.1534 C   0  0  0  0  0  0  0  0  0  0  0  0
    2.1583   -6.5642    3.0269 C   0  0  1  0  0  0  0  0  0  0  0  0
    2.4741   -7.7158    3.7601 O   0  0  0  0  0  0  0  0  0  0  0  0
    1.8250   -8.9108    3.3317 C   0  0  0  0  0  0  0  0  0  0  0  0
    2.4045   -6.7837    1.6509 O   0  0  0  0  0  0  0  0  0  0  0  0
    3.3722   -5.9820    0.9821 C   0  0  0  0  0  0  0  0  0  0  0  0
    3.0141   -4.5106    1.2095 C   0  0  2  0  0  0  0  0  0  0  0  0
    3.9716   -3.5200    0.5399 C   0  0  1  0  0  0  0  0  0  0  0  0
    3.6377   -3.2033   -0.9260 C   0  0  0  0  0  0  0  0  0  0  0  0
    3.9816   -2.3180    1.5062 C   0  0  1  0  0  0  0  0  0  0  0  0
    2.7422   -1.4228    1.3008 C   0  0  0  0  0  0  0  0  0  0  0  0
    2.4754   -0.4222    2.4123 C   0  0  0  0  0  0  0  0  0  0  0  0
    2.3694   -1.1343    3.7788 C   0  0  2  0  0  0  0  0  0  0  0  0
    1.9840   -0.2855    5.0249 C   0  0  2  0  0  0  0  0  0  0  0  0
    0.6416    0.4955    4.8722 C   0  0  0  0  0  0  0  0  0  0  0  0
    0.7412    2.0349    4.6281 C   0  0  2  0  0  0  0  0  0  0  0  0
   -0.4650    2.7362    5.2895 C   0  0  0  0  0  0  0  0  0  0  0  0
   -1.8004    2.3263    4.6243 C   0  0  0  0  0  0  0  0  0  0  0  0
   -1.7935    2.6010    3.1079 C   0  0  1  0  0  0  0  0  0  0  0  0
   -1.7753    3.9994    2.8752 O   0  0  0  0  0  0  0  0  0  0  0  0
   -0.5616    1.9722    2.4315 C   0  0  0  0  0  0  0  0  0  0  0  0
    0.7454    2.4435    3.1346 C   0  0  0  0  0  0  0  0  0  0  0  0
    1.8844    2.6134    5.2495 O   0  0  0  0  0  0  0  0  0  0  0  0
    3.1326    1.9654    5.0440 C   0  0  0  0  0  0  0  0  0  0  0  0
    3.0852    0.5724    5.7030 C   0  0  1  0  0  0  0  0  0  0  0  0
    2.7268    0.7710    7.1969 C   0  0  0  0  0  0  0  0  0  0  0  0
    4.4487   -0.1618    5.6773 C   0  0  0  0  0  0  0  0  0  0  0  0
    4.7806   -0.9545    4.4083 C   0  0  0  0  0  0  0  0  0  0  0  0
    3.6443   -1.9536    4.0480 C   0  0  2  0  0  0  0  0  0  0  0  0
    3.9977   -2.9922    2.9095 C   0  0  2  0  0  0  0  0  0  0  0  0
    5.3816   -3.5894    3.1667 C   0  0  0  0  0  0  0  0  0  0  0  0
    2.9572   -4.1549    2.7177 C   0  0  2  0  0  0  0  0  0  0  0  0
    3.0801   -5.4236    3.6059 C   0  0  1  0  0  0  0  0  0  0  0  0
    2.7865   -5.1844    5.1033 C   0  0  0  0  0  0  0  0  0  0  0  0
   -0.1481  -10.1950    1.8364 H   0  0  0  0  0  0  0  0  0  0  0  0
   -1.4680   -9.9416    2.9727 H   0  0  0  0  0  0  0  0  0  0  0  0
   -0.0686  -10.9044    3.4352 H   0  0  0  0  0  0  0  0  0  0  0  0
    0.0299   -8.6546    4.4780 H   0  0  0  0  0  0  0  0  0  0  0  0
   -0.0083   -7.6635    1.5964 H   0  0  0  0  0  0  0  0  0  0  0  0
   -1.2223   -7.3606    2.8156 H   0  0  0  0  0  0  0  0  0  0  0  0
    0.3920   -5.4302    2.5369 H   0  0  0  0  0  0  0  0  0  0  0  0
    0.3837   -6.0579    4.1834 H   0  0  0  0  0  0  0  0  0  0  0  0
    2.1612   -9.7290    3.9669 H   0  0  0  0  0  0  0  0  0  0  0  0
    2.1326   -9.1592    2.3135 H   0  0  0  0  0  0  0  0  0  0  0  0
    4.3835   -6.2241    1.3173 H   0  0  0  0  0  0  0  0  0  0  0  0
    3.3209   -6.2247   -0.0773 H   0  0  0  0  0  0  0  0  0  0  0  0
    2.0175   -4.3660    0.8005 H   0  0  0  0  0  0  0  0  0  0  0  0
    4.9712   -3.9488    0.5359 H   0  0  0  0  0  0  0  0  0  0  0  0
    2.6139   -2.8515   -1.0607 H   0  0  0  0  0  0  0  0  0  0  0  0
    3.7573   -4.0972   -1.5371 H   0  0  0  0  0  0  0  0  0  0  0  0
    4.3080   -2.4410   -1.3249 H   0  0  0  0  0  0  0  0  0  0  0  0
    4.8782   -1.7107    1.3517 H   0  0  0  0  0  0  0  0  0  0  0  0
    2.8577   -0.8606    0.3674 H   0  0  0  0  0  0  0  0  0  0  0  0
    1.8493   -2.0348    1.1739 H   0  0  0  0  0  0  0  0  0  0  0  0
    3.2454    0.3399    2.3991 H   0  0  0  0  0  0  0  0  0  0  0  0
    1.5318    0.0445    2.1673 H   0  0  0  0  0  0  0  0  0  0  0  0
    1.5390   -1.8260    3.6690 H   0  0  0  0  0  0  0  0  0  0  0  0
    1.7627   -1.0673    5.7560 H   0  0  0  0  0  0  0  0  0  0  0  0
    0.0681    0.0250    4.1081 H   0  0  0  0  0  0  0  0  0  0  0  0
    0.0957    0.3107    5.8169 H   0  0  0  0  0  0  0  0  0  0  0  0
   -0.4953    2.5129    6.3480 H   0  0  0  0  0  0  0  0  0  0  0  0
   -0.3512    3.8098    5.2155 H   0  0  0  0  0  0  0  0  0  0  0  0
   -1.9776    1.2633    4.7840 H   0  0  0  0  0  0  0  0  0  0  0  0
   -2.6429    2.8310    5.1138 H   0  0  0  0  0  0  0  0  0  0  0  0
   -2.6949    2.1777    2.6573 H   0  0  0  0  0  0  0  0  0  0  0  0
   -1.1734    4.1622    2.1676 H   0  0  0  0  0  0  0  0  0  0  0  0
   -0.6351    0.9165    2.4515 H   0  0  0  0  0  0  0  0  0  0  0  0
   -0.5255    2.2463    1.3703 H   0  0  0  0  0  0  0  0  0  0  0  0
    0.8227    3.5284    3.0666 H   0  0  0  0  0  0  0  0  0  0  0  0
    1.6228    2.0893    2.5787 H   0  0  0  0  0  0  0  0  0  0  0  0
    3.3914    1.9173    3.9943 H   0  0  0  0  0  0  0  0  0  0  0  0
    3.9151    2.5704    5.5157 H   0  0  0  0  0  0  0  0  0  0  0  0
    3.4601    1.3996    7.6986 H   0  0  0  0  0  0  0  0  0  0  0  0
    2.6862   -0.1809    7.7279 H   0  0  0  0  0  0  0  0  0  0  0  0
    1.7522    1.2432    7.3316 H   0  0  0  0  0  0  0  0  0  0  0  0
    5.2459    0.5531    5.8518 H   0  0  0  0  0  0  0  0  0  0  0  0
    4.4913   -0.8673    6.5073 H   0  0  0  0  0  0  0  0  0  0  0  0
    4.9960   -0.2814    3.5827 H   0  0  0  0  0  0  0  0  0  0  0  0
    5.7106   -1.4798    4.6100 H   0  0  0  0  0  0  0  0  0  0  0  0
    3.4700   -2.5340    4.9475 H   0  0  0  0  0  0  0  0  0  0  0  0
    5.5124   -3.8848    4.2108 H   0  0  0  0  0  0  0  0  0  0  0  0
    6.1792   -2.8628    2.9202 H   0  0  0  0  0  0  0  0  0  0  0  0
    5.6054   -4.4738    2.5624 H   0  0  0  0  0  0  0  0  0  0  0  0
    1.9626   -3.7621    2.8942 H   0  0  0  0  0  0  0  0  0  0  0  0
    4.0933   -5.8303    3.5520 H   0  0  0  0  0  0  0  0  0  0  0  0
    1.8562   -4.6489    5.2550 H   0  0  0  0  0  0  0  0  0  0  0  0
    3.5844   -4.6112    5.5632 H   0  0  0  0  0  0  0  0  0  0  0  0
    2.7318   -6.1192    5.6550 H   0  0  0  0  0  0  0  0  0  0  0  0
  1  2  1  0
  1 38  1  0
  1 39  1  0
  1 40  1  0
  2  7  1  0
  2  3  1  0
  2 41  1  1
  3  4  1  0
  3 42  1  0
  3 43  1  0
  4  5  1  0
  4 44  1  0
  4 45  1  0
  5 36  1  0
  5  6  1  1
  5  8  1  0
  6  7  1  0
  7 46  1  0
  7 47  1  0
  8  9  1  0
  9 10  1  0
  9 48  1  0
  9 49  1  0
 10 35  1  0
 10 11  1  0
 10 50  1  6
 11 12  1  0
 11 13  1  0
 11 51  1  6
 12 52  1  0
 12 53  1  0
 12 54  1  0
 13 33  1  0
 13 14  1  0
 13 55  1  6
 14 15  1  0
 14 56  1  0
 14 57  1  0
 15 16  1  0
 15 58  1  0
 15 59  1  0
 16 32  1  0
 16 17  1  0
 16 60  1  6
 17 28  1  0
 17 18  1  0
 17 61  1  1
 18 19  1  0
 18 62  1  0
 18 63  1  0
 19 25  1  0
 19 20  1  0
 19 26  1  1
 20 21  1  0
 20 64  1  0
 20 65  1  0
 21 22  1  0
 21 66  1  0
 21 67  1  0
 22 23  1  0
 22 24  1  0
 22 68  1  6
 23 69  1  0
 24 25  1  0
 24 70  1  0
 24 71  1  0
 25 72  1  0
 25 73  1  0
 26 27  1  0
 27 28  1  0
 27 74  1  0
 27 75  1  0
 28 29  1  1
 28 30  1  0
 29 76  1  0
 29 77  1  0
 29 78  1  0
 30 31  1  0
 30 79  1  0
 30 80  1  0
 31 32  1  0
 31 81  1  0
 31 82  1  0
 32 33  1  0
 32 83  1  1
 33 34  1  1
 33 35  1  0
 34 84  1  0
 34 85  1  0
 34 86  1  0
 35 36  1  0
 35 87  1  6
 36 37  1  0
 36 88  1  1
 37 89  1  0
 37 90  1  0
 37 91  1  0
M  END
>  <i_m_ct_stereo_status>  (22) 
1

>  <s_m_source_file>  (22) 
/var/tmp/pbs.5076255.sched01/tmppz0entnt/04_lepiep.sdf

>  <i_m_source_file_index>  (22) 
11

>  <i_lp_mmshare_version>  (22) 
48012

>  <i_f3d_flags>  (22) 
0

>  <s_epik_input>  (22) 
TzFbQ0gyXVtDQEhdKFtDSDNdKVtDSDJdW0NIMl1bQ0BdMTJPW0NIMl1bQ0BIXTNbQ0BASF0oW0NASF0yW0NIM10pW0NAQF00KFtDSDNdKVtDQEBIXShbQ0BASF0zW0NIM10pW0NIMl1bQ0gyXVtDQEBIXTVbQ0BIXTZbQ0BAXShbQ0gzXSkoW0NIMl1bQ0gyXVtDQEhdNDUpW0NIMl1PW0NAXTcoW0NIMl02KVtDSDJdW0NIMl1bQ0BASF0oW09IXSlbQ0gyXVtDSDJdNw==

>  <s_epik_cmdline>  (22) 
J2VwaWtfcHl0aG9uJywgJy1waHQnLCAnMi4wJywgJy1waCcsICc3LjAnLCAnLXRuJywgJzgnLCAnLW1hJywgJzIwMCcsICctaW1hZScsICc8aW5maWxlLm1hZT4nLCAnLW9tYWUnLCAnPG91dGZpbGUubWFlPic=

>  <r_lp_tautomer_probability>  (22) 
1

>  <r_epik_Ionization_Penalty>  (22) 
1.66701e-06

>  <r_epik_Ionization_Penalty_Charging>  (22) 
0

>  <r_epik_Ionization_Penalty_Neutral>  (22) 
1.66701e-06

>  <r_epik_State_Penalty>  (22) 
-0

>  <r_epik_Charging_Adjusted_Penalty>  (22) 
0

>  <i_epik_Tot_Q>  (22) 
0

>  <i_epik_Tot_abs_Q>  (22) 
0

>  <s_lp_Force_Field>  (22) 
OPLS3e

>  <r_lp_Energy>  (22) 
83.4405

>  <b_lp_Chiralities_Consistent>  (22) 
1

>  <s_lp_Variant>  (22) 
9:0-2

>  <s_i_glide_gridfile>  (22) 
pfpi4k_grid

>  <i_i_glide_lignum>  (22) 
11

>  <i_i_glide_rotatable_bonds>  (22) 
1

>  <r_i_docking_score>  (22) 
-2.6803

>  <r_i_glide_ligand_efficiency>  (22) 
-0.0724404

>  <r_i_glide_ligand_efficiency_sa>  (22) 
-0.241388

>  <r_i_glide_ligand_efficiency_ln>  (22) 
-0.581293

>  <r_i_glide_gscore>  (22) 
-2.6803

>  <r_i_glide_lipo>  (22) 
-0.13114

>  <r_i_glide_hbond>  (22) 
-0.16

>  <r_i_glide_metal>  (22) 
-0

>  <r_i_glide_rewards>  (22) 
0

>  <r_i_glide_evdw>  (22) 
-30.2501

>  <r_i_glide_ecoul>  (22) 
-5.81068

>  <r_i_glide_erotb>  (22) 
0

>  <r_i_glide_esite>  (22) 
-0.00504973

>  <r_i_glide_emodel>  (22) 
-41.4638

>  <r_i_glide_energy>  (22) 
-36.0608

>  <r_i_glide_einternal>  (22) 
1.24179

>  <r_i_glide_intrahb_reward>  (22) 
-0

>  <i_i_glide_confnum>  (22) 
1

>  <i_i_glide_posenum>  (22) 
24

>  <r_i_glide_eff_state_penalty>  (22) 
0

>  <ligand_id>  (22) 
9

>  <original_smiles>  (22) 
CC1CCC2(OC1)OCC1C(C)C3CCC4C5CC6(CCC(O)CC6)OCC5(C)CCC4C3(C)C1C2C

>  <smiles>  (22) 
[H]OC1([H])C([H])([H])C([H])([H])C2(OC([H])([H])C3(C([H])([H])[H])C([H])([H])C([H])([H])C4([H])C([H])(C([H])([H])C([H])([H])C5([H])C([H])(C([H])([H])[H])C6([H])C([H])([H])OC7(OC([H])([H])C([H])(C([H])([H])[H])C([H])([H])C7([H])[H])C([H])(C([H])([H])[H])C6([H])C54C([H])([H])[H])C3([H])C2([H])[H])C([H])([H])C1([H])[H]

$$$$
9:1:1
     RDKit          3D

 91 97  0  0  1  0  0  0  0  0999 V2000
   -0.8683   -4.1802   10.2658 C   0  0  0  0  0  0  0  0  0  0  0  0
    0.2857   -4.6499    9.3632 C   0  0  2  0  0  0  0  0  0  0  0  0
    0.1446   -4.1271    7.9318 C   0  0  0  0  0  0  0  0  0  0  0  0
    1.2493   -4.6987    7.0234 C   0  0  0  0  0  0  0  0  0  0  0  0
    1.2249   -6.2494    7.0949 C   0  0  1  0  0  0  0  0  0  0  0  0
    1.3788   -6.6356    8.4325 O   0  0  0  0  0  0  0  0  0  0  0  0
    0.3667   -6.1845    9.3292 C   0  0  0  0  0  0  0  0  0  0  0  0
   -0.0422   -6.6462    6.6178 O   0  0  0  0  0  0  0  0  0  0  0  0
   -0.1205   -7.5603    5.5301 C   0  0  0  0  0  0  0  0  0  0  0  0
    0.7022   -6.9938    4.3736 C   0  0  2  0  0  0  0  0  0  0  0  0
    0.6956   -7.8808    3.1243 C   0  0  1  0  0  0  0  0  0  0  0  0
   -0.4973   -7.6476    2.1834 C   0  0  0  0  0  0  0  0  0  0  0  0
    2.0939   -7.6513    2.5174 C   0  0  1  0  0  0  0  0  0  0  0  0
    2.1438   -6.3271    1.7210 C   0  0  0  0  0  0  0  0  0  0  0  0
    3.5506   -5.8359    1.3943 C   0  0  0  0  0  0  0  0  0  0  0  0
    4.4140   -5.7032    2.6680 C   0  0  2  0  0  0  0  0  0  0  0  0
    5.8426   -5.0932    2.5452 C   0  0  2  0  0  0  0  0  0  0  0  0
    5.8543   -3.6906    1.8700 C   0  0  0  0  0  0  0  0  0  0  0  0
    6.3585   -3.6047    0.3975 C   0  0  2  0  0  0  0  0  0  0  0  0
    7.1049   -2.2650    0.1781 C   0  0  0  0  0  0  0  0  0  0  0  0
    6.1429   -1.0689    0.3368 C   0  0  0  0  0  0  0  0  0  0  0  0
    4.9359   -1.1689   -0.6095 C   0  0  1  0  0  0  0  0  0  0  0  0
    5.3482   -0.9762   -1.9537 O   0  0  0  0  0  0  0  0  0  0  0  0
    4.2263   -2.5359   -0.5522 C   0  0  0  0  0  0  0  0  0  0  0  0
    5.2514   -3.6964   -0.6857 C   0  0  0  0  0  0  0  0  0  0  0  0
    7.3580   -4.5782    0.1054 O   0  0  0  0  0  0  0  0  0  0  0  0
    7.0602   -5.9128    0.5135 C   0  0  0  0  0  0  0  0  0  0  0  0
    6.9912   -6.0114    2.0367 C   0  0  1  0  0  0  0  0  0  0  0  0
    8.3680   -5.5461    2.5513 C   0  0  0  0  0  0  0  0  0  0  0  0
    6.8134   -7.4601    2.5654 C   0  0  0  0  0  0  0  0  0  0  0  0
    5.3856   -8.0087    2.6379 C   0  0  0  0  0  0  0  0  0  0  0  0
    4.4483   -7.0488    3.4213 C   0  0  2  0  0  0  0  0  0  0  0  0
    3.0208   -7.6311    3.7716 C   0  0  2  0  0  0  0  0  0  0  0  0
    3.1766   -9.0697    4.3257 C   0  0  0  0  0  0  0  0  0  0  0  0
    2.1773   -6.7672    4.7775 C   0  0  2  0  0  0  0  0  0  0  0  0
    2.3840   -6.9678    6.3075 C   0  0  1  0  0  0  0  0  0  0  0  0
    3.7663   -6.5129    6.8222 C   0  0  0  0  0  0  0  0  0  0  0  0
   -1.8352   -4.5191    9.8877 H   0  0  0  0  0  0  0  0  0  0  0  0
   -0.9086   -3.0930   10.3423 H   0  0  0  0  0  0  0  0  0  0  0  0
   -0.7716   -4.5681   11.2795 H   0  0  0  0  0  0  0  0  0  0  0  0
    1.2230   -4.2778    9.7746 H   0  0  0  0  0  0  0  0  0  0  0  0
   -0.8384   -4.3874    7.5343 H   0  0  0  0  0  0  0  0  0  0  0  0
    0.2014   -3.0364    7.9291 H   0  0  0  0  0  0  0  0  0  0  0  0
    1.0745   -4.3907    5.9929 H   0  0  0  0  0  0  0  0  0  0  0  0
    2.2242   -4.3282    7.3283 H   0  0  0  0  0  0  0  0  0  0  0  0
    0.5955   -6.5734   10.3207 H   0  0  0  0  0  0  0  0  0  0  0  0
   -0.5877   -6.6191    9.0321 H   0  0  0  0  0  0  0  0  0  0  0  0
    0.2043   -8.5594    5.8305 H   0  0  0  0  0  0  0  0  0  0  0  0
   -1.1651   -7.6410    5.2353 H   0  0  0  0  0  0  0  0  0  0  0  0
    0.2742   -6.0243    4.1289 H   0  0  0  0  0  0  0  0  0  0  0  0
    0.6362   -8.9229    3.4310 H   0  0  0  0  0  0  0  0  0  0  0  0
   -0.5901   -6.6091    1.8686 H   0  0  0  0  0  0  0  0  0  0  0  0
   -1.4305   -7.9327    2.6751 H   0  0  0  0  0  0  0  0  0  0  0  0
   -0.4023   -8.2551    1.2853 H   0  0  0  0  0  0  0  0  0  0  0  0
    2.3596   -8.4754    1.8506 H   0  0  0  0  0  0  0  0  0  0  0  0
    1.6099   -6.4579    0.7808 H   0  0  0  0  0  0  0  0  0  0  0  0
    1.6279   -5.5374    2.2658 H   0  0  0  0  0  0  0  0  0  0  0  0
    3.9912   -6.5033    0.6626 H   0  0  0  0  0  0  0  0  0  0  0  0
    3.4254   -4.8666    0.9331 H   0  0  0  0  0  0  0  0  0  0  0  0
    3.8816   -4.9858    3.2874 H   0  0  0  0  0  0  0  0  0  0  0  0
    6.0911   -4.9194    3.5980 H   0  0  0  0  0  0  0  0  0  0  0  0
    4.8898   -3.2442    1.9826 H   0  0  0  0  0  0  0  0  0  0  0  0
    6.5299   -3.0841    2.4737 H   0  0  0  0  0  0  0  0  0  0  0  0
    7.9457   -2.1714    0.8628 H   0  0  0  0  0  0  0  0  0  0  0  0
    7.5466   -2.2676   -0.8194 H   0  0  0  0  0  0  0  0  0  0  0  0
    5.7887   -1.0175    1.3628 H   0  0  0  0  0  0  0  0  0  0  0  0
    6.6762   -0.1309    0.1762 H   0  0  0  0  0  0  0  0  0  0  0  0
    4.2297   -0.3661   -0.3795 H   0  0  0  0  0  0  0  0  0  0  0  0
    4.6071   -1.0345   -2.4963 H   0  0  0  0  0  0  0  0  0  0  0  0
    3.7069   -2.6098    0.3815 H   0  0  0  0  0  0  0  0  0  0  0  0
    3.4829   -2.6059   -1.3578 H   0  0  0  0  0  0  0  0  0  0  0  0
    5.7327   -3.6401   -1.6595 H   0  0  0  0  0  0  0  0  0  0  0  0
    4.7379   -4.6600   -0.7031 H   0  0  0  0  0  0  0  0  0  0  0  0
    6.1343   -6.2481    0.0745 H   0  0  0  0  0  0  0  0  0  0  0  0
    7.8515   -6.5699    0.1387 H   0  0  0  0  0  0  0  0  0  0  0  0
    9.1746   -6.1943    2.2065 H   0  0  0  0  0  0  0  0  0  0  0  0
    8.3917   -5.5328    3.6432 H   0  0  0  0  0  0  0  0  0  0  0  0
    8.6113   -4.5443    2.2026 H   0  0  0  0  0  0  0  0  0  0  0  0
    7.4104   -8.1432    1.9637 H   0  0  0  0  0  0  0  0  0  0  0  0
    7.2201   -7.5271    3.5774 H   0  0  0  0  0  0  0  0  0  0  0  0
    5.0029   -8.2072    1.6402 H   0  0  0  0  0  0  0  0  0  0  0  0
    5.4462   -8.9786    3.1247 H   0  0  0  0  0  0  0  0  0  0  0  0
    4.9417   -6.8660    4.3736 H   0  0  0  0  0  0  0  0  0  0  0  0
    3.9622   -9.1132    5.0793 H   0  0  0  0  0  0  0  0  0  0  0  0
    3.4261   -9.7809    3.5376 H   0  0  0  0  0  0  0  0  0  0  0  0
    2.2679   -9.4446    4.7930 H   0  0  0  0  0  0  0  0  0  0  0  0
    2.3781   -5.7198    4.5876 H   0  0  0  0  0  0  0  0  0  0  0  0
    2.2911   -8.0222    6.5663 H   0  0  0  0  0  0  0  0  0  0  0  0
    4.0143   -5.5113    6.4862 H   0  0  0  0  0  0  0  0  0  0  0  0
    4.5476   -7.1878    6.4832 H   0  0  0  0  0  0  0  0  0  0  0  0
    3.8111   -6.5247    7.9113 H   0  0  0  0  0  0  0  0  0  0  0  0
  1  2  1  0
  1 38  1  0
  1 39  1  0
  1 40  1  0
  2  7  1  0
  2  3  1  0
  2 41  1  1
  3  4  1  0
  3 42  1  0
  3 43  1  0
  4  5  1  0
  4 44  1  0
  4 45  1  0
  5 36  1  0
  5  6  1  1
  5  8  1  0
  6  7  1  0
  7 46  1  0
  7 47  1  0
  8  9  1  0
  9 10  1  0
  9 48  1  0
  9 49  1  0
 10 35  1  0
 10 11  1  0
 10 50  1  6
 11 12  1  0
 11 13  1  0
 11 51  1  1
 12 52  1  0
 12 53  1  0
 12 54  1  0
 13 33  1  0
 13 14  1  0
 13 55  1  6
 14 15  1  0
 14 56  1  0
 14 57  1  0
 15 16  1  0
 15 58  1  0
 15 59  1  0
 16 32  1  0
 16 17  1  0
 16 60  1  1
 17 28  1  0
 17 18  1  0
 17 61  1  1
 18 19  1  0
 18 62  1  0
 18 63  1  0
 19 25  1  0
 19 20  1  0
 19 26  1  6
 20 21  1  0
 20 64  1  0
 20 65  1  0
 21 22  1  0
 21 66  1  0
 21 67  1  0
 22 23  1  0
 22 24  1  0
 22 68  1  1
 23 69  1  0
 24 25  1  0
 24 70  1  0
 24 71  1  0
 25 72  1  0
 25 73  1  0
 26 27  1  0
 27 28  1  0
 27 74  1  0
 27 75  1  0
 28 29  1  1
 28 30  1  0
 29 76  1  0
 29 77  1  0
 29 78  1  0
 30 31  1  0
 30 79  1  0
 30 80  1  0
 31 32  1  0
 31 81  1  0
 31 82  1  0
 32 33  1  0
 32 83  1  1
 33 34  1  1
 33 35  1  0
 34 84  1  0
 34 85  1  0
 34 86  1  0
 35 36  1  0
 35 87  1  6
 36 37  1  0
 36 88  1  6
 37 89  1  0
 37 90  1  0
 37 91  1  0
M  END
>  <i_m_ct_stereo_status>  (23) 
1

>  <s_m_source_file>  (23) 
/var/tmp/pbs.5076255.sched01/tmppz0entnt/04_lepiep.sdf

>  <i_m_source_file_index>  (23) 
11

>  <i_lp_mmshare_version>  (23) 
48012

>  <i_f3d_flags>  (23) 
0

>  <s_epik_input>  (23) 
TzFbQ0gyXVtDQEhdKFtDSDNdKVtDSDJdW0NIMl1bQ0BdMTJPW0NIMl1bQ0BIXTNbQ0BASF0oW0NASF0yW0NIM10pW0NAQF00KFtDSDNdKVtDQEBIXShbQ0BASF0zW0NIM10pW0NIMl1bQ0gyXVtDQEBIXTVbQ0BIXTZbQ0BAXShbQ0gzXSkoW0NIMl1bQ0gyXVtDQEhdNDUpW0NIMl1PW0NAXTcoW0NIMl02KVtDSDJdW0NIMl1bQ0BASF0oW09IXSlbQ0gyXVtDSDJdNw==

>  <s_epik_cmdline>  (23) 
J2VwaWtfcHl0aG9uJywgJy1waHQnLCAnMi4wJywgJy1waCcsICc3LjAnLCAnLXRuJywgJzgnLCAnLW1hJywgJzIwMCcsICctaW1hZScsICc8aW5maWxlLm1hZT4nLCAnLW9tYWUnLCAnPG91dGZpbGUubWFlPic=

>  <r_lp_tautomer_probability>  (23) 
1

>  <r_epik_Ionization_Penalty>  (23) 
1.66701e-06

>  <r_epik_Ionization_Penalty_Charging>  (23) 
0

>  <r_epik_Ionization_Penalty_Neutral>  (23) 
1.66701e-06

>  <r_epik_State_Penalty>  (23) 
-0

>  <r_epik_Charging_Adjusted_Penalty>  (23) 
0

>  <i_epik_Tot_Q>  (23) 
0

>  <i_epik_Tot_abs_Q>  (23) 
0

>  <s_lp_Force_Field>  (23) 
OPLS3e

>  <r_lp_Energy>  (23) 
83.4405

>  <b_lp_Chiralities_Consistent>  (23) 
1

>  <s_lp_Variant>  (23) 
9:0-2

>  <s_i_glide_gridfile>  (23) 
pfpi4k_grid

>  <i_i_glide_lignum>  (23) 
11

>  <i_i_glide_rotatable_bonds>  (23) 
1

>  <r_i_docking_score>  (23) 
-2.26319

>  <r_i_glide_ligand_efficiency>  (23) 
-0.0611673

>  <r_i_glide_ligand_efficiency_sa>  (23) 
-0.203823

>  <r_i_glide_ligand_efficiency_ln>  (23) 
-0.490833

>  <r_i_glide_gscore>  (23) 
-2.26319

>  <r_i_glide_lipo>  (23) 
-0.514695

>  <r_i_glide_hbond>  (23) 
-0.000588762

>  <r_i_glide_metal>  (23) 
-0

>  <r_i_glide_rewards>  (23) 
0

>  <r_i_glide_evdw>  (23) 
-29.5762

>  <r_i_glide_ecoul>  (23) 
-1.79397

>  <r_i_glide_erotb>  (23) 
0

>  <r_i_glide_esite>  (23) 
0

>  <r_i_glide_emodel>  (23) 
-36.37

>  <r_i_glide_energy>  (23) 
-31.3702

>  <r_i_glide_einternal>  (23) 
0.330495

>  <r_i_glide_intrahb_reward>  (23) 
-0

>  <i_i_glide_confnum>  (23) 
2

>  <i_i_glide_posenum>  (23) 
3

>  <r_i_glide_eff_state_penalty>  (23) 
0

>  <ligand_id>  (23) 
9

>  <original_smiles>  (23) 
CC1CCC2(OC1)OCC1C(C)C3CCC4C5CC6(CCC(O)CC6)OCC5(C)CCC4C3(C)C1C2C

>  <smiles>  (23) 
[H]OC1([H])C([H])([H])C([H])([H])C2(OC([H])([H])C3(C([H])([H])[H])C([H])([H])C([H])([H])C4([H])C([H])(C([H])([H])C([H])([H])C5([H])C([H])(C([H])([H])[H])C6([H])C([H])([H])OC7(OC([H])([H])C([H])(C([H])([H])[H])C([H])([H])C7([H])[H])C([H])(C([H])([H])[H])C6([H])C54C([H])([H])[H])C3([H])C2([H])[H])C([H])([H])C1([H])[H]

$$$$
9:1:2
     RDKit          3D

 91 97  0  0  1  0  0  0  0  0999 V2000
   -2.5546    3.7235    3.8801 C   0  0  0  0  0  0  0  0  0  0  0  0
   -1.4845    2.7089    3.4776 C   0  0  2  0  0  0  0  0  0  0  0  0
   -1.5863    1.4271    4.3017 C   0  0  0  0  0  0  0  0  0  0  0  0
   -0.4532    0.4576    3.9344 C   0  0  0  0  0  0  0  0  0  0  0  0
    0.9086    1.1763    4.1078 C   0  0  1  0  0  0  0  0  0  0  0  0
    0.9175    2.3315    3.3274 O   0  0  0  0  0  0  0  0  0  0  0  0
   -0.0771    3.3038    3.6458 C   0  0  0  0  0  0  0  0  0  0  0  0
    0.9905    1.5259    5.4797 O   0  0  0  0  0  0  0  0  0  0  0  0
    2.0987    1.0823    6.2416 C   0  0  0  0  0  0  0  0  0  0  0  0
    2.1994   -0.4390    6.0948 C   0  0  2  0  0  0  0  0  0  0  0  0
    3.3619   -1.0610    6.8756 C   0  0  1  0  0  0  0  0  0  0  0  0
    3.0424   -1.3871    8.3469 C   0  0  0  0  0  0  0  0  0  0  0  0
    3.7840   -2.2546    5.9983 C   0  0  1  0  0  0  0  0  0  0  0  0
    2.8464   -3.4628    6.2112 C   0  0  0  0  0  0  0  0  0  0  0  0
    2.9574   -4.5509    5.1502 C   0  0  0  0  0  0  0  0  0  0  0  0
    2.7405   -3.9801    3.7335 C   0  0  2  0  0  0  0  0  0  0  0  0
    2.7041   -4.9642    2.5326 C   0  0  2  0  0  0  0  0  0  0  0  0
    1.6411   -6.0927    2.6652 C   0  0  0  0  0  0  0  0  0  0  0  0
    2.1777   -7.5168    3.0414 C   0  0  2  0  0  0  0  0  0  0  0  0
    1.2722   -8.5779    2.3673 C   0  0  0  0  0  0  0  0  0  0  0  0
   -0.1683   -8.5428    2.9385 C   0  0  0  0  0  0  0  0  0  0  0  0
   -0.1786   -8.7401    4.4675 C   0  0  1  0  0  0  0  0  0  0  0  0
    0.2144  -10.0515    4.7699 O   0  0  0  0  0  0  0  0  0  0  0  0
    0.7822   -7.7788    5.1942 C   0  0  0  0  0  0  0  0  0  0  0  0
    2.2055   -7.8478    4.5640 C   0  0  0  0  0  0  0  0  0  0  0  0
    3.4718   -7.7685    2.5066 O   0  0  0  0  0  0  0  0  0  0  0  0
    4.4679   -6.7686    2.7177 C   0  0  0  0  0  0  0  0  0  0  0  0
    4.0492   -5.4888    1.9661 C   0  0  1  0  0  0  0  0  0  0  0  0
    3.8716   -5.8585    0.4807 C   0  0  0  0  0  0  0  0  0  0  0  0
    5.1350   -4.3791    2.0085 C   0  0  0  0  0  0  0  0  0  0  0  0
    5.1286   -3.4617    3.2301 C   0  0  0  0  0  0  0  0  0  0  0  0
    3.7345   -2.8291    3.4727 C   0  0  2  0  0  0  0  0  0  0  0  0
    3.6944   -1.6776    4.5506 C   0  0  2  0  0  0  0  0  0  0  0  0
    4.8737   -0.7041    4.3125 C   0  0  0  0  0  0  0  0  0  0  0  0
    2.3521   -0.8668    4.6146 C   0  0  2  0  0  0  0  0  0  0  0  0
    2.1580    0.3383    3.6542 C   0  0  1  0  0  0  0  0  0  0  0  0
    2.0458   -0.0533    2.1591 C   0  0  0  0  0  0  0  0  0  0  0  0
   -2.4581    3.9958    4.9339 H   0  0  0  0  0  0  0  0  0  0  0  0
   -3.5637    3.3313    3.7355 H   0  0  0  0  0  0  0  0  0  0  0  0
   -2.4714    4.6378    3.2951 H   0  0  0  0  0  0  0  0  0  0  0  0
   -1.6275    2.4598    2.4245 H   0  0  0  0  0  0  0  0  0  0  0  0
   -1.5583    1.6602    5.3695 H   0  0  0  0  0  0  0  0  0  0  0  0
   -2.5502    0.9505    4.1185 H   0  0  0  0  0  0  0  0  0  0  0  0
   -0.4880   -0.4139    4.5824 H   0  0  0  0  0  0  0  0  0  0  0  0
   -0.5616    0.1244    2.9022 H   0  0  0  0  0  0  0  0  0  0  0  0
    0.0501    4.1487    2.9754 H   0  0  0  0  0  0  0  0  0  0  0  0
    0.0759    3.6815    4.6579 H   0  0  0  0  0  0  0  0  0  0  0  0
    3.0177    1.5928    5.9403 H   0  0  0  0  0  0  0  0  0  0  0  0
    1.9098    1.3522    7.2812 H   0  0  0  0  0  0  0  0  0  0  0  0
    1.2616   -0.8534    6.4601 H   0  0  0  0  0  0  0  0  0  0  0  0
    4.1907   -0.3574    6.8961 H   0  0  0  0  0  0  0  0  0  0  0  0
    2.1600   -2.0183    8.4567 H   0  0  0  0  0  0  0  0  0  0  0  0
    2.8573   -0.4663    8.9035 H   0  0  0  0  0  0  0  0  0  0  0  0
    3.8819   -1.8943    8.8240 H   0  0  0  0  0  0  0  0  0  0  0  0
    4.8078   -2.5579    6.2334 H   0  0  0  0  0  0  0  0  0  0  0  0
    3.0656   -3.9191    7.1767 H   0  0  0  0  0  0  0  0  0  0  0  0
    1.8073   -3.1356    6.2552 H   0  0  0  0  0  0  0  0  0  0  0  0
    3.9161   -5.0459    5.2530 H   0  0  0  0  0  0  0  0  0  0  0  0
    2.1820   -5.2665    5.3783 H   0  0  0  0  0  0  0  0  0  0  0  0
    1.7408   -3.5578    3.7528 H   0  0  0  0  0  0  0  0  0  0  0  0
    2.3260   -4.3163    1.7409 H   0  0  0  0  0  0  0  0  0  0  0  0
    0.9009   -5.7738    3.3755 H   0  0  0  0  0  0  0  0  0  0  0  0
    1.1531   -6.1322    1.6738 H   0  0  0  0  0  0  0  0  0  0  0  0
    1.2578   -8.4256    1.2870 H   0  0  0  0  0  0  0  0  0  0  0  0
    1.6919   -9.5708    2.5104 H   0  0  0  0  0  0  0  0  0  0  0  0
   -0.6379   -7.5947    2.6761 H   0  0  0  0  0  0  0  0  0  0  0  0
   -0.7751   -9.3065    2.4314 H   0  0  0  0  0  0  0  0  0  0  0  0
   -1.1967   -8.5846    4.8353 H   0  0  0  0  0  0  0  0  0  0  0  0
   -0.5500  -10.5905    4.8578 H   0  0  0  0  0  0  0  0  0  0  0  0
    0.4054   -6.7735    5.1324 H   0  0  0  0  0  0  0  0  0  0  0  0
    0.8445   -8.0693    6.2575 H   0  0  0  0  0  0  0  0  0  0  0  0
    2.5890   -8.8543    4.6800 H   0  0  0  0  0  0  0  0  0  0  0  0
    2.9117   -7.2279    5.1291 H   0  0  0  0  0  0  0  0  0  0  0  0
    4.6303   -6.5930    3.7741 H   0  0  0  0  0  0  0  0  0  0  0  0
    5.4179   -7.1449    2.3236 H   0  0  0  0  0  0  0  0  0  0  0  0
    4.7882   -6.2691    0.0529 H   0  0  0  0  0  0  0  0  0  0  0  0
    3.5865   -4.9933   -0.1216 H   0  0  0  0  0  0  0  0  0  0  0  0
    3.0913   -6.6055    0.3396 H   0  0  0  0  0  0  0  0  0  0  0  0
    6.1202   -4.8366    1.9246 H   0  0  0  0  0  0  0  0  0  0  0  0
    5.0243   -3.7356    1.1285 H   0  0  0  0  0  0  0  0  0  0  0  0
    5.4822   -3.9998    4.1071 H   0  0  0  0  0  0  0  0  0  0  0  0
    5.8661   -2.6899    3.0345 H   0  0  0  0  0  0  0  0  0  0  0  0
    3.4543   -2.3721    2.5249 H   0  0  0  0  0  0  0  0  0  0  0  0
    4.9546   -0.4380    3.2576 H   0  0  0  0  0  0  0  0  0  0  0  0
    5.8147   -1.1482    4.6281 H   0  0  0  0  0  0  0  0  0  0  0  0
    4.7745    0.2280    4.8678 H   0  0  0  0  0  0  0  0  0  0  0  0
    1.5311   -1.5454    4.4135 H   0  0  0  0  0  0  0  0  0  0  0  0
    3.0005    1.0278    3.7238 H   0  0  0  0  0  0  0  0  0  0  0  0
    1.3260   -0.8513    1.9969 H   0  0  0  0  0  0  0  0  0  0  0  0
    3.0057   -0.3861    1.7720 H   0  0  0  0  0  0  0  0  0  0  0  0
    1.7503    0.7910    1.5398 H   0  0  0  0  0  0  0  0  0  0  0  0
  1  2  1  0
  1 38  1  0
  1 39  1  0
  1 40  1  0
  2  7  1  0
  2  3  1  0
  2 41  1  6
  3  4  1  0
  3 42  1  0
  3 43  1  0
  4  5  1  0
  4 44  1  0
  4 45  1  0
  5 36  1  0
  5  6  1  6
  5  8  1  0
  6  7  1  0
  7 46  1  0
  7 47  1  0
  8  9  1  0
  9 10  1  0
  9 48  1  0
  9 49  1  0
 10 35  1  0
 10 11  1  0
 10 50  1  1
 11 12  1  0
 11 13  1  0
 11 51  1  1
 12 52  1  0
 12 53  1  0
 12 54  1  0
 13 33  1  0
 13 14  1  0
 13 55  1  1
 14 15  1  0
 14 56  1  0
 14 57  1  0
 15 16  1  0
 15 58  1  0
 15 59  1  0
 16 32  1  0
 16 17  1  0
 16 60  1  1
 17 28  1  0
 17 18  1  0
 17 61  1  6
 18 19  1  0
 18 62  1  0
 18 63  1  0
 19 25  1  0
 19 20  1  0
 19 26  1  6
 20 21  1  0
 20 64  1  0
 20 65  1  0
 21 22  1  0
 21 66  1  0
 21 67  1  0
 22 23  1  0
 22 24  1  0
 22 68  1  1
 23 69  1  0
 24 25  1  0
 24 70  1  0
 24 71  1  0
 25 72  1  0
 25 73  1  0
 26 27  1  0
 27 28  1  0
 27 74  1  0
 27 75  1  0
 28 29  1  6
 28 30  1  0
 29 76  1  0
 29 77  1  0
 29 78  1  0
 30 31  1  0
 30 79  1  0
 30 80  1  0
 31 32  1  0
 31 81  1  0
 31 82  1  0
 32 33  1  0
 32 83  1  6
 33 34  1  6
 33 35  1  0
 34 84  1  0
 34 85  1  0
 34 86  1  0
 35 36  1  0
 35 87  1  6
 36 37  1  0
 36 88  1  6
 37 89  1  0
 37 90  1  0
 37 91  1  0
M  END
>  <i_m_ct_stereo_status>  (24) 
1

>  <s_m_source_file>  (24) 
/var/tmp/pbs.5076255.sched01/tmppz0entnt/04_lepiep.sdf

>  <i_m_source_file_index>  (24) 
11

>  <i_lp_mmshare_version>  (24) 
48012

>  <i_f3d_flags>  (24) 
0

>  <s_epik_input>  (24) 
TzFbQ0gyXVtDQEhdKFtDSDNdKVtDSDJdW0NIMl1bQ0BdMTJPW0NIMl1bQ0BIXTNbQ0BASF0oW0NASF0yW0NIM10pW0NAQF00KFtDSDNdKVtDQEBIXShbQ0BASF0zW0NIM10pW0NIMl1bQ0gyXVtDQEBIXTVbQ0BIXTZbQ0BAXShbQ0gzXSkoW0NIMl1bQ0gyXVtDQEhdNDUpW0NIMl1PW0NAXTcoW0NIMl02KVtDSDJdW0NIMl1bQ0BASF0oW09IXSlbQ0gyXVtDSDJdNw==

>  <s_epik_cmdline>  (24) 
J2VwaWtfcHl0aG9uJywgJy1waHQnLCAnMi4wJywgJy1waCcsICc3LjAnLCAnLXRuJywgJzgnLCAnLW1hJywgJzIwMCcsICctaW1hZScsICc8aW5maWxlLm1hZT4nLCAnLW9tYWUnLCAnPG91dGZpbGUubWFlPic=

>  <r_lp_tautomer_probability>  (24) 
1

>  <r_epik_Ionization_Penalty>  (24) 
1.66701e-06

>  <r_epik_Ionization_Penalty_Charging>  (24) 
0

>  <r_epik_Ionization_Penalty_Neutral>  (24) 
1.66701e-06

>  <r_epik_State_Penalty>  (24) 
-0

>  <r_epik_Charging_Adjusted_Penalty>  (24) 
0

>  <i_epik_Tot_Q>  (24) 
0

>  <i_epik_Tot_abs_Q>  (24) 
0

>  <s_lp_Force_Field>  (24) 
OPLS3e

>  <r_lp_Energy>  (24) 
83.4405

>  <b_lp_Chiralities_Consistent>  (24) 
1

>  <s_lp_Variant>  (24) 
9:0-2

>  <s_i_glide_gridfile>  (24) 
pfpi4k_grid

>  <i_i_glide_lignum>  (24) 
11

>  <i_i_glide_rotatable_bonds>  (24) 
1

>  <r_i_docking_score>  (24) 
-2.12153

>  <r_i_glide_ligand_efficiency>  (24) 
-0.0573387

>  <r_i_glide_ligand_efficiency_sa>  (24) 
-0.191065

>  <r_i_glide_ligand_efficiency_ln>  (24) 
-0.46011

>  <r_i_glide_gscore>  (24) 
-2.12153

>  <r_i_glide_lipo>  (24) 
-0.201113

>  <r_i_glide_hbond>  (24) 
-0.16

>  <r_i_glide_metal>  (24) 
-0

>  <r_i_glide_rewards>  (24) 
0

>  <r_i_glide_evdw>  (24) 
-28.2238

>  <r_i_glide_ecoul>  (24) 
-2.25854

>  <r_i_glide_erotb>  (24) 
0

>  <r_i_glide_esite>  (24) 
-0.0104449

>  <r_i_glide_emodel>  (24) 
-34.4987

>  <r_i_glide_energy>  (24) 
-30.4824

>  <r_i_glide_einternal>  (24) 
1.10341

>  <r_i_glide_intrahb_reward>  (24) 
-0

>  <i_i_glide_confnum>  (24) 
2

>  <i_i_glide_posenum>  (24) 
2

>  <r_i_glide_eff_state_penalty>  (24) 
0

>  <ligand_id>  (24) 
9

>  <original_smiles>  (24) 
CC1CCC2(OC1)OCC1C(C)C3CCC4C5CC6(CCC(O)CC6)OCC5(C)CCC4C3(C)C1C2C

>  <smiles>  (24) 
[H]OC1([H])C([H])([H])C([H])([H])C2(OC([H])([H])C3(C([H])([H])[H])C([H])([H])C([H])([H])C4([H])C([H])(C([H])([H])C([H])([H])C5([H])C([H])(C([H])([H])[H])C6([H])C([H])([H])OC7(OC([H])([H])C([H])(C([H])([H])[H])C([H])([H])C7([H])[H])C([H])(C([H])([H])[H])C6([H])C54C([H])([H])[H])C3([H])C2([H])[H])C([H])([H])C1([H])[H]

$$$$
12:0:0
     RDKit          3D

 80 87  0  0  1  0  0  0  0  0999 V2000
    6.7751   -1.4392    1.1291 C   0  0  0  0  0  0  0  0  0  0  0  0
    5.5900   -2.4116    1.0881 C   0  0  2  0  0  0  0  0  0  0  0  0
    5.5831   -3.0233   -0.3243 C   0  0  0  0  0  0  0  0  0  0  0  0
    5.0956   -4.4676   -0.4277 C   0  0  0  0  0  0  0  0  0  0  0  0
    3.9668   -4.8991    0.5349 C   0  0  1  0  0  0  0  0  0  0  0  0
    4.5153   -5.6272    1.8098 C   0  0  1  0  0  0  0  0  0  0  0  0
    4.2487   -5.1498    3.2795 C   0  0  1  0  0  0  0  0  0  0  0  0
    4.0432   -3.7755    3.5136 O   0  0  0  0  0  0  0  0  0  0  0  0
    2.8435   -3.2374    3.0989 C   0  0  1  0  0  0  0  0  0  0  0  0
    2.4652   -2.2810    4.0459 O   0  0  0  0  0  0  0  0  0  0  0  0
    1.9942   -1.0590    3.5475 C   0  0  1  0  0  0  0  0  0  0  0  0
    1.1006   -0.4518    4.6249 C   0  0  0  0  0  0  0  0  0  0  0  0
    3.1797   -0.1214    3.2686 C   0  0  0  0  0  0  0  0  0  0  0  0
    4.4385   -0.7954    2.7134 C   0  0  0  0  0  0  0  0  0  0  0  0
    4.2465   -1.7292    1.4928 C   0  0  2  0  0  0  0  0  0  0  0  0
    3.0153   -2.6789    1.6548 C   0  0  2  0  0  0  0  0  0  0  0  0
    1.9141   -1.8413    1.3026 O   0  0  0  0  0  0  0  0  0  0  0  0
    1.1320   -1.3051    2.4702 O   0  0  0  0  0  0  0  0  0  0  0  0
    2.8353   -3.8544    0.6406 C   0  0  1  0  0  0  0  0  0  0  0  0
    2.4104   -3.4334   -0.7903 C   0  0  0  0  0  0  0  0  0  0  0  0
    3.2929   -6.1567    4.0233 C   0  0  2  0  0  0  0  0  0  0  0  0
    4.0154   -7.0353    5.1006 C   0  0  0  0  0  0  0  0  0  0  0  0
    4.7987   -8.3480    4.7187 C   0  0  0  0  0  0  0  0  0  0  0  0
    4.0632   -9.3961    3.8091 C   0  0  2  0  0  0  0  0  0  0  0  0
    4.3008  -10.7962    4.4066 C   0  0  0  0  0  0  0  0  0  0  0  0
    4.5204   -9.5008    2.2851 C   0  0  0  0  0  0  0  0  0  0  0  0
    4.2657   -8.3432    1.2581 C   0  0  0  0  0  0  0  0  0  0  0  0
    4.0161   -7.0571    2.0117 C   0  0  2  0  0  0  0  0  0  0  0  0
    2.7567   -6.9983    2.8740 C   0  0  2  0  0  0  0  0  0  0  0  0
    1.6776   -6.3754    2.2171 O   0  0  0  0  0  0  0  0  0  0  0  0
    0.4705   -6.6094    3.0882 O   0  0  0  0  0  0  0  0  0  0  0  0
    0.6088   -7.9160    3.6182 C   0  0  0  0  0  0  0  0  0  0  0  0
    0.4460   -7.7740    5.1351 C   0  0  0  0  0  0  0  0  0  0  0  0
   -0.4675   -8.8602    3.0689 C   0  0  0  0  0  0  0  0  0  0  0  0
    2.0159   -8.3111    3.1512 C   0  0  2  0  0  0  0  0  0  0  0  0
    2.6649   -9.1998    4.0247 O   0  0  0  0  0  0  0  0  0  0  0  0
    6.6219   -0.6026    0.4516 H   0  0  0  0  0  0  0  0  0  0  0  0
    7.6977   -1.9558    0.8480 H   0  0  0  0  0  0  0  0  0  0  0  0
    6.9712   -1.0600    2.1312 H   0  0  0  0  0  0  0  0  0  0  0  0
    5.8154   -3.2074    1.7977 H   0  0  0  0  0  0  0  0  0  0  0  0
    5.0623   -2.3575   -1.0112 H   0  0  0  0  0  0  0  0  0  0  0  0
    6.5940   -3.0410   -0.7247 H   0  0  0  0  0  0  0  0  0  0  0  0
    4.7596   -4.6248   -1.4552 H   0  0  0  0  0  0  0  0  0  0  0  0
    5.9458   -5.1419   -0.3151 H   0  0  0  0  0  0  0  0  0  0  0  0
    3.4960   -5.7138   -0.0178 H   0  0  0  0  0  0  0  0  0  0  0  0
    5.6028   -5.6641    1.7053 H   0  0  0  0  0  0  0  0  0  0  0  0
    5.2115   -5.3112    3.7580 H   0  0  0  0  0  0  0  0  0  0  0  0
    2.0571   -3.9881    3.1283 H   0  0  0  0  0  0  0  0  0  0  0  0
    0.2232   -1.0838    4.7560 H   0  0  0  0  0  0  0  0  0  0  0  0
    0.7669    0.5490    4.3349 H   0  0  0  0  0  0  0  0  0  0  0  0
    1.6177   -0.3715    5.5777 H   0  0  0  0  0  0  0  0  0  0  0  0
    2.8653    0.7108    2.6425 H   0  0  0  0  0  0  0  0  0  0  0  0
    3.4882    0.3385    4.2054 H   0  0  0  0  0  0  0  0  0  0  0  0
    5.1194    0.0111    2.4696 H   0  0  0  0  0  0  0  0  0  0  0  0
    4.9161   -1.3532    3.5212 H   0  0  0  0  0  0  0  0  0  0  0  0
    3.9783   -1.0682    0.6613 H   0  0  0  0  0  0  0  0  0  0  0  0
    1.9758   -4.4044    1.0059 H   0  0  0  0  0  0  0  0  0  0  0  0
    3.0237   -2.6480   -1.2125 H   0  0  0  0  0  0  0  0  0  0  0  0
    1.3827   -3.0691   -0.7690 H   0  0  0  0  0  0  0  0  0  0  0  0
    2.3891   -4.2706   -1.4816 H   0  0  0  0  0  0  0  0  0  0  0  0
    2.4727   -5.6151    4.5055 H   0  0  0  0  0  0  0  0  0  0  0  0
    4.6801   -6.3949    5.6768 H   0  0  0  0  0  0  0  0  0  0  0  0
    3.2594   -7.3556    5.8141 H   0  0  0  0  0  0  0  0  0  0  0  0
    5.7985   -8.1333    4.3335 H   0  0  0  0  0  0  0  0  0  0  0  0
    5.0083   -8.8210    5.6759 H   0  0  0  0  0  0  0  0  0  0  0  0
    5.3589  -11.0774    4.3809 H   0  0  0  0  0  0  0  0  0  0  0  0
    3.7436  -11.5493    3.8457 H   0  0  0  0  0  0  0  0  0  0  0  0
    3.9612  -10.8559    5.4430 H   0  0  0  0  0  0  0  0  0  0  0  0
    5.5988   -9.6804    2.2925 H   0  0  0  0  0  0  0  0  0  0  0  0
    4.0679  -10.3949    1.8587 H   0  0  0  0  0  0  0  0  0  0  0  0
    5.1308   -8.2385    0.6063 H   0  0  0  0  0  0  0  0  0  0  0  0
    3.4234   -8.5845    0.6168 H   0  0  0  0  0  0  0  0  0  0  0  0
    4.8637   -7.2659    2.6397 H   0  0  0  0  0  0  0  0  0  0  0  0
    0.6701   -8.7106    5.6449 H   0  0  0  0  0  0  0  0  0  0  0  0
   -0.5876   -7.4979    5.3606 H   0  0  0  0  0  0  0  0  0  0  0  0
    1.0861   -6.9904    5.5403 H   0  0  0  0  0  0  0  0  0  0  0  0
   -0.3428   -9.8566    3.4916 H   0  0  0  0  0  0  0  0  0  0  0  0
   -0.4257   -8.9558    1.9801 H   0  0  0  0  0  0  0  0  0  0  0  0
   -1.4648   -8.5152    3.3450 H   0  0  0  0  0  0  0  0  0  0  0  0
    1.8882   -8.8388    2.2051 H   0  0  0  0  0  0  0  0  0  0  0  0
  1  2  1  0
  1 37  1  0
  1 38  1  0
  1 39  1  0
  2 15  1  0
  2  3  1  0
  2 40  1  1
  3  4  1  0
  3 41  1  0
  3 42  1  0
  4  5  1  0
  4 43  1  0
  4 44  1  0
  5 19  1  0
  5  6  1  0
  5 45  1  6
  6 28  1  0
  6  7  1  0
  6 46  1  6
  7  8  1  0
  7 21  1  0
  7 47  1  1
  8  9  1  0
  9 16  1  0
  9 10  1  0
  9 48  1  6
 10 11  1  0
 11 18  1  0
 11 12  1  1
 11 13  1  0
 12 49  1  0
 12 50  1  0
 12 51  1  0
 13 14  1  0
 13 52  1  0
 13 53  1  0
 14 15  1  0
 14 54  1  0
 14 55  1  0
 15 16  1  0
 15 56  1  6
 16 17  1  6
 16 19  1  0
 17 18  1  0
 19 20  1  0
 19 57  1  1
 20 58  1  0
 20 59  1  0
 20 60  1  0
 21 29  1  0
 21 22  1  0
 21 61  1  1
 22 23  1  0
 22 62  1  0
 22 63  1  0
 23 24  1  0
 23 64  1  0
 23 65  1  0
 24 36  1  0
 24 25  1  1
 24 26  1  0
 25 66  1  0
 25 67  1  0
 25 68  1  0
 26 27  1  0
 26 69  1  0
 26 70  1  0
 27 28  1  0
 27 71  1  0
 27 72  1  0
 28 29  1  0
 28 73  1  1
 29 35  1  0
 29 30  1  6
 30 31  1  0
 31 32  1  0
 32 33  1  0
 32 34  1  0
 32 35  1  0
 33 74  1  0
 33 75  1  0
 33 76  1  0
 34 77  1  0
 34 78  1  0
 34 79  1  0
 35 36  1  0
 35 80  1  6
M  END
>  <i_m_ct_stereo_status>  (25) 
1

>  <s_m_source_file>  (25) 
/var/tmp/pbs.5076255.sched01/tmppz0entnt/04_lepiep.sdf

>  <i_m_source_file_index>  (25) 
15

>  <i_lp_mmshare_version>  (25) 
48012

>  <i_f3d_flags>  (25) 
0

>  <s_epik_input>  (25) 
TzFPW0NAXShPMikoW0NIM10pW0NIMl1bQ0gyXVtDQEhdM1tDQEhdKFtDSDNdKVtDSDJdW0NIMl1bQ0BIXShbQ0BASF00W0NIM10pW0NAQEhdKFtDQEhdNU9bQ0BASF0yW0NAQF0xMzQpW0NASF02W0NAQF03OFtDQEhdNVtDSDJdW0NIMl1bQ0BdKFtDSDNdKShbQ0gyXVtDSDJdNilPW0NASF04QyhPTzcpKFtDSDNdKVtDSDNd

>  <s_epik_cmdline>  (25) 
J2VwaWtfcHl0aG9uJywgJy1waHQnLCAnMi4wJywgJy1waCcsICc3LjAnLCAnLXRuJywgJzgnLCAnLW1hJywgJzIwMCcsICctaW1hZScsICc8aW5maWxlLm1hZT4nLCAnLW9tYWUnLCAnPG91dGZpbGUubWFlPic=

>  <r_lp_tautomer_probability>  (25) 
1

>  <r_epik_Ionization_Penalty>  (25) 
1.05299e-12

>  <r_epik_Ionization_Penalty_Charging>  (25) 
0

>  <r_epik_Ionization_Penalty_Neutral>  (25) 
1.05299e-12

>  <r_epik_State_Penalty>  (25) 
-0

>  <r_epik_Charging_Adjusted_Penalty>  (25) 
0

>  <i_epik_Tot_Q>  (25) 
0

>  <i_epik_Tot_abs_Q>  (25) 
0

>  <s_epik_Chemistry_Notes>  (25) 
This compound contains an acetal/aminal-like group ( X-CH(R)-Y where X, Y are N, S, or O) that may be acid/base labile, releasing an aldehyde.

>  <s_lp_Force_Field>  (25) 
OPLS3e

>  <r_lp_Energy>  (25) 
125.574

>  <b_lp_Chiralities_Consistent>  (25) 
1

>  <s_lp_Variant>  (25) 
12:0-1

>  <s_i_glide_gridfile>  (25) 
pfpi4k_grid

>  <i_i_glide_lignum>  (25) 
15

>  <i_i_glide_rotatable_bonds>  (25) 
0

>  <r_i_docking_score>  (25) 
-1.67364

>  <r_i_glide_ligand_efficiency>  (25) 
-0.0464899

>  <r_i_glide_ligand_efficiency_sa>  (25) 
-0.153506

>  <r_i_glide_ligand_efficiency_ln>  (25) 
-0.365142

>  <r_i_glide_gscore>  (25) 
-1.67364

>  <r_i_glide_lipo>  (25) 
-0.31062

>  <r_i_glide_hbond>  (25) 
0

>  <r_i_glide_metal>  (25) 
-0

>  <r_i_glide_rewards>  (25) 
0

>  <r_i_glide_evdw>  (25) 
-28.8025

>  <r_i_glide_ecoul>  (25) 
0.523661

>  <r_i_glide_erotb>  (25) 
0

>  <r_i_glide_esite>  (25) 
-0.00143844

>  <r_i_glide_emodel>  (25) 
-30.3679

>  <r_i_glide_energy>  (25) 
-28.2789

>  <r_i_glide_einternal>  (25) 
0

>  <r_i_glide_intrahb_reward>  (25) 
-0

>  <i_i_glide_confnum>  (25) 
1

>  <i_i_glide_posenum>  (25) 
1

>  <r_i_glide_eff_state_penalty>  (25) 
0

>  <ligand_id>  (25) 
12

>  <original_smiles>  (25) 
CC1CCC2C3C(OC4OC5(C)CCC1C4(OO5)C2C)C1CCC2(C)CCC3C13OOC(C)(C)C3O2

>  <smiles>  (25) 
[H]C([H])([H])C12OOC34C([H])(OC5([H])C([H])(C([H])(C([H])([H])C([H])([H])C([H])(C([H])([H])[H])C3([H])C([H])([H])C1([H])[H])C4([H])C([H])([H])[H])C1([H])C([H])([H])C([H])([H])C3(C([H])([H])[H])OC4([H])C(C([H])([H])[H])(C([H])([H])[H])OOC41C5([H])C([H])([H])C3([H])[H])O2

$$$$
12:0:1
     RDKit          3D

 80 87  0  0  1  0  0  0  0  0999 V2000
    8.9672   -6.1366    2.9527 C   0  0  0  0  0  0  0  0  0  0  0  0
    7.5622   -6.7486    2.8523 C   0  0  2  0  0  0  0  0  0  0  0  0
    7.7529   -8.2716    2.7816 C   0  0  0  0  0  0  0  0  0  0  0  0
    6.6720   -9.1303    3.4507 C   0  0  0  0  0  0  0  0  0  0  0  0
    5.2220   -8.5904    3.3949 C   0  0  1  0  0  0  0  0  0  0  0  0
    4.8367   -7.8084    4.6987 C   0  0  1  0  0  0  0  0  0  0  0  0
    4.3554   -6.3179    4.7060 C   0  0  1  0  0  0  0  0  0  0  0  0
    4.8187   -5.4654    3.6751 O   0  0  0  0  0  0  0  0  0  0  0  0
    4.2765   -5.6395    2.4101 C   0  0  1  0  0  0  0  0  0  0  0  0
    4.1165   -4.3805    1.8179 O   0  0  0  0  0  0  0  0  0  0  0  0
    4.5755   -4.2432    0.5087 C   0  0  1  0  0  0  0  0  0  0  0  0
    3.7812   -3.0526   -0.0630 C   0  0  0  0  0  0  0  0  0  0  0  0
    6.0782   -3.9197    0.4730 C   0  0  0  0  0  0  0  0  0  0  0  0
    6.8930   -4.6682    1.5262 C   0  0  0  0  0  0  0  0  0  0  0  0
    6.7290   -6.1921    1.6495 C   0  0  2  0  0  0  0  0  0  0  0  0
    5.2116   -6.5953    1.5823 C   0  0  2  0  0  0  0  0  0  0  0  0
    4.9322   -6.5904    0.1765 O   0  0  0  0  0  0  0  0  0  0  0  0
    4.2007   -5.3400   -0.2745 O   0  0  0  0  0  0  0  0  0  0  0  0
    4.8184   -8.0630    1.9905 C   0  0  1  0  0  0  0  0  0  0  0  0
    5.1566   -9.1150    0.9164 C   0  0  0  0  0  0  0  0  0  0  0  0
    2.8384   -6.2309    5.1169 C   0  0  2  0  0  0  0  0  0  0  0  0
    2.5781   -5.6785    6.5647 C   0  0  0  0  0  0  0  0  0  0  0  0
    2.6553   -6.6113    7.8287 C   0  0  0  0  0  0  0  0  0  0  0  0
    1.8675   -7.9724    7.7988 C   0  0  2  0  0  0  0  0  0  0  0  0
    1.1286   -8.1285    9.1430 C   0  0  0  0  0  0  0  0  0  0  0  0
    2.7069   -9.3160    7.6082 C   0  0  0  0  0  0  0  0  0  0  0  0
    3.4608   -9.6459    6.2656 C   0  0  0  0  0  0  0  0  0  0  0  0
    3.6559   -8.3658    5.4949 C   0  0  2  0  0  0  0  0  0  0  0  0
    2.3926   -7.6820    4.9842 C   0  0  2  0  0  0  0  0  0  0  0  0
    2.1186   -7.9863    3.6317 O   0  0  0  0  0  0  0  0  0  0  0  0
    0.7481   -7.4105    3.3675 O   0  0  0  0  0  0  0  0  0  0  0  0
    0.0140   -7.6045    4.5609 C   0  0  0  0  0  0  0  0  0  0  0  0
   -0.5739   -6.2427    4.9086 C   0  0  0  0  0  0  0  0  0  0  0  0
   -1.1453   -8.5417    4.3205 C   0  0  0  0  0  0  0  0  0  0  0  0
    1.0453   -8.1331    5.5646 C   0  0  2  0  0  0  0  0  0  0  0  0
    0.7740   -7.7806    6.9072 O   0  0  0  0  0  0  0  0  0  0  0  0
    9.5193   -6.2472    2.0205 H   0  0  0  0  0  0  0  0  0  0  0  0
    9.5571   -6.6020    3.7447 H   0  0  0  0  0  0  0  0  0  0  0  0
    8.9481   -5.0785    3.1869 H   0  0  0  0  0  0  0  0  0  0  0  0
    7.0701   -6.5021    3.7884 H   0  0  0  0  0  0  0  0  0  0  0  0
    7.8721   -8.5566    1.7411 H   0  0  0  0  0  0  0  0  0  0  0  0
    8.6961   -8.5638    3.2462 H   0  0  0  0  0  0  0  0  0  0  0  0
    6.7058  -10.1107    2.9716 H   0  0  0  0  0  0  0  0  0  0  0  0
    6.9616   -9.3363    4.4810 H   0  0  0  0  0  0  0  0  0  0  0  0
    4.6348   -9.5113    3.4980 H   0  0  0  0  0  0  0  0  0  0  0  0
    5.7166   -7.8364    5.3422 H   0  0  0  0  0  0  0  0  0  0  0  0
    4.8862   -5.8856    5.5469 H   0  0  0  0  0  0  0  0  0  0  0  0
    3.2652   -6.0645    2.4415 H   0  0  0  0  0  0  0  0  0  0  0  0
    2.7126   -3.2980   -0.1018 H   0  0  0  0  0  0  0  0  0  0  0  0
    4.1019   -2.8061   -1.0771 H   0  0  0  0  0  0  0  0  0  0  0  0
    3.8897   -2.1613    0.5516 H   0  0  0  0  0  0  0  0  0  0  0  0
    6.4743   -4.0342   -0.5338 H   0  0  0  0  0  0  0  0  0  0  0  0
    6.2000   -2.8676    0.7152 H   0  0  0  0  0  0  0  0  0  0  0  0
    7.9332   -4.4025    1.3500 H   0  0  0  0  0  0  0  0  0  0  0  0
    6.6168   -4.2414    2.4760 H   0  0  0  0  0  0  0  0  0  0  0  0
    7.1870   -6.6137    0.7515 H   0  0  0  0  0  0  0  0  0  0  0  0
    3.7346   -8.0966    1.9658 H   0  0  0  0  0  0  0  0  0  0  0  0
    6.1891   -9.0978    0.5831 H   0  0  0  0  0  0  0  0  0  0  0  0
    4.5253   -8.9687    0.0462 H   0  0  0  0  0  0  0  0  0  0  0  0
    4.9489  -10.1282    1.2800 H   0  0  0  0  0  0  0  0  0  0  0  0
    2.3136   -5.5863    4.4090 H   0  0  0  0  0  0  0  0  0  0  0  0
    3.2233   -4.8166    6.7352 H   0  0  0  0  0  0  0  0  0  0  0  0
    1.5737   -5.2629    6.5749 H   0  0  0  0  0  0  0  0  0  0  0  0
    3.6819   -6.7798    8.1499 H   0  0  0  0  0  0  0  0  0  0  0  0
    2.2512   -6.0077    8.6386 H   0  0  0  0  0  0  0  0  0  0  0  0
    1.8212   -8.2191    9.9800 H   0  0  0  0  0  0  0  0  0  0  0  0
    0.5000   -9.0215    9.1468 H   0  0  0  0  0  0  0  0  0  0  0  0
    0.4729   -7.2824    9.3520 H   0  0  0  0  0  0  0  0  0  0  0  0
    3.4610   -9.3150    8.3957 H   0  0  0  0  0  0  0  0  0  0  0  0
    2.0741  -10.1753    7.8356 H   0  0  0  0  0  0  0  0  0  0  0  0
    4.4229  -10.0982    6.4967 H   0  0  0  0  0  0  0  0  0  0  0  0
    2.9083  -10.3754    5.6758 H   0  0  0  0  0  0  0  0  0  0  0  0
    4.0057   -7.8613    6.3771 H   0  0  0  0  0  0  0  0  0  0  0  0
   -1.0612   -6.2373    5.8767 H   0  0  0  0  0  0  0  0  0  0  0  0
   -1.3051   -6.0068    4.1461 H   0  0  0  0  0  0  0  0  0  0  0  0
    0.1683   -5.4524    4.8858 H   0  0  0  0  0  0  0  0  0  0  0  0
   -1.7108   -8.6922    5.2371 H   0  0  0  0  0  0  0  0  0  0  0  0
   -0.7790   -9.5272    4.0088 H   0  0  0  0  0  0  0  0  0  0  0  0
   -1.8484   -8.2101    3.5640 H   0  0  0  0  0  0  0  0  0  0  0  0
    0.9971   -9.2204    5.4899 H   0  0  0  0  0  0  0  0  0  0  0  0
  1  2  1  0
  1 37  1  0
  1 38  1  0
  1 39  1  0
  2 15  1  0
  2  3  1  0
  2 40  1  1
  3  4  1  0
  3 41  1  0
  3 42  1  0
  4  5  1  0
  4 43  1  0
  4 44  1  0
  5 19  1  0
  5  6  1  0
  5 45  1  1
  6 28  1  0
  6  7  1  0
  6 46  1  1
  7  8  1  0
  7 21  1  0
  7 47  1  1
  8  9  1  0
  9 16  1  0
  9 10  1  0
  9 48  1  1
 10 11  1  0
 11 18  1  0
 11 12  1  6
 11 13  1  0
 12 49  1  0
 12 50  1  0
 12 51  1  0
 13 14  1  0
 13 52  1  0
 13 53  1  0
 14 15  1  0
 14 54  1  0
 14 55  1  0
 15 16  1  0
 15 56  1  6
 16 17  1  6
 16 19  1  0
 17 18  1  0
 19 20  1  0
 19 57  1  1
 20 58  1  0
 20 59  1  0
 20 60  1  0
 21 29  1  0
 21 22  1  0
 21 61  1  6
 22 23  1  0
 22 62  1  0
 22 63  1  0
 23 24  1  0
 23 64  1  0
 23 65  1  0
 24 36  1  0
 24 25  1  1
 24 26  1  0
 25 66  1  0
 25 67  1  0
 25 68  1  0
 26 27  1  0
 26 69  1  0
 26 70  1  0
 27 28  1  0
 27 71  1  0
 27 72  1  0
 28 29  1  0
 28 73  1  1
 29 35  1  0
 29 30  1  6
 30 31  1  0
 31 32  1  0
 32 33  1  0
 32 34  1  0
 32 35  1  0
 33 74  1  0
 33 75  1  0
 33 76  1  0
 34 77  1  0
 34 78  1  0
 34 79  1  0
 35 36  1  0
 35 80  1  1
M  END
>  <i_m_ct_stereo_status>  (26) 
1

>  <s_m_source_file>  (26) 
/var/tmp/pbs.5076255.sched01/tmppz0entnt/04_lepiep.sdf

>  <i_m_source_file_index>  (26) 
15

>  <i_lp_mmshare_version>  (26) 
48012

>  <i_f3d_flags>  (26) 
0

>  <s_epik_input>  (26) 
TzFPW0NAXShPMikoW0NIM10pW0NIMl1bQ0gyXVtDQEhdM1tDQEhdKFtDSDNdKVtDSDJdW0NIMl1bQ0BIXShbQ0BASF00W0NIM10pW0NAQEhdKFtDQEhdNU9bQ0BASF0yW0NAQF0xMzQpW0NASF02W0NAQF03OFtDQEhdNVtDSDJdW0NIMl1bQ0BdKFtDSDNdKShbQ0gyXVtDSDJdNilPW0NASF04QyhPTzcpKFtDSDNdKVtDSDNd

>  <s_epik_cmdline>  (26) 
J2VwaWtfcHl0aG9uJywgJy1waHQnLCAnMi4wJywgJy1waCcsICc3LjAnLCAnLXRuJywgJzgnLCAnLW1hJywgJzIwMCcsICctaW1hZScsICc8aW5maWxlLm1hZT4nLCAnLW9tYWUnLCAnPG91dGZpbGUubWFlPic=

>  <r_lp_tautomer_probability>  (26) 
1

>  <r_epik_Ionization_Penalty>  (26) 
1.05299e-12

>  <r_epik_Ionization_Penalty_Charging>  (26) 
0

>  <r_epik_Ionization_Penalty_Neutral>  (26) 
1.05299e-12

>  <r_epik_State_Penalty>  (26) 
-0

>  <r_epik_Charging_Adjusted_Penalty>  (26) 
0

>  <i_epik_Tot_Q>  (26) 
0

>  <i_epik_Tot_abs_Q>  (26) 
0

>  <s_epik_Chemistry_Notes>  (26) 
This compound contains an acetal/aminal-like group ( X-CH(R)-Y where X, Y are N, S, or O) that may be acid/base labile, releasing an aldehyde.

>  <s_lp_Force_Field>  (26) 
OPLS3e

>  <r_lp_Energy>  (26) 
125.574

>  <b_lp_Chiralities_Consistent>  (26) 
1

>  <s_lp_Variant>  (26) 
12:0-1

>  <s_i_glide_gridfile>  (26) 
pfpi4k_grid

>  <i_i_glide_lignum>  (26) 
15

>  <i_i_glide_rotatable_bonds>  (26) 
0

>  <r_i_docking_score>  (26) 
-1.6539

>  <r_i_glide_ligand_efficiency>  (26) 
-0.0459416

>  <r_i_glide_ligand_efficiency_sa>  (26) 
-0.151696

>  <r_i_glide_ligand_efficiency_ln>  (26) 
-0.360836

>  <r_i_glide_gscore>  (26) 
-1.6539

>  <r_i_glide_lipo>  (26) 
-0.362643

>  <r_i_glide_hbond>  (26) 
0

>  <r_i_glide_metal>  (26) 
-0

>  <r_i_glide_rewards>  (26) 
-0.049394

>  <r_i_glide_evdw>  (26) 
-24.9327

>  <r_i_glide_ecoul>  (26) 
0.0318403

>  <r_i_glide_erotb>  (26) 
0

>  <r_i_glide_esite>  (26) 
0

>  <r_i_glide_emodel>  (26) 
-26.8914

>  <r_i_glide_energy>  (26) 
-24.9009

>  <r_i_glide_einternal>  (26) 
0

>  <r_i_glide_intrahb_reward>  (26) 
-0

>  <i_i_glide_confnum>  (26) 
1

>  <i_i_glide_posenum>  (26) 
4

>  <r_i_glide_eff_state_penalty>  (26) 
0

>  <ligand_id>  (26) 
12

>  <original_smiles>  (26) 
CC1CCC2C3C(OC4OC5(C)CCC1C4(OO5)C2C)C1CCC2(C)CCC3C13OOC(C)(C)C3O2

>  <smiles>  (26) 
[H]C([H])([H])C12OOC34C([H])(OC5([H])C([H])(C([H])(C([H])([H])C([H])([H])C([H])(C([H])([H])[H])C3([H])C([H])([H])C1([H])[H])C4([H])C([H])([H])[H])C1([H])C([H])([H])C([H])([H])C3(C([H])([H])[H])OC4([H])C(C([H])([H])[H])(C([H])([H])[H])OOC41C5([H])C([H])([H])C3([H])[H])O2

$$$$
12:0:2
     RDKit          3D

 80 87  0  0  1  0  0  0  0  0999 V2000
    4.9715    0.6971    5.5067 C   0  0  0  0  0  0  0  0  0  0  0  0
    4.3185   -0.4050    4.6392 C   0  0  2  0  0  0  0  0  0  0  0  0
    5.2531   -0.6707    3.4466 C   0  0  0  0  0  0  0  0  0  0  0  0
    5.3087   -2.1233    2.9504 C   0  0  0  0  0  0  0  0  0  0  0  0
    4.0083   -2.9594    3.0250 C   0  0  1  0  0  0  0  0  0  0  0  0
    3.9229   -3.8404    4.3270 C   0  0  1  0  0  0  0  0  0  0  0  0
    2.7601   -3.7389    5.3776 C   0  0  1  0  0  0  0  0  0  0  0  0
    2.0818   -2.5032    5.5055 O   0  0  0  0  0  0  0  0  0  0  0  0
    1.2369   -2.1116    4.4811 C   0  0  1  0  0  0  0  0  0  0  0  0
    0.1303   -1.4921    5.0577 O   0  0  0  0  0  0  0  0  0  0  0  0
   -0.2400   -0.2409    4.5472 C   0  0  1  0  0  0  0  0  0  0  0  0
   -1.7245   -0.0901    4.9246 C   0  0  0  0  0  0  0  0  0  0  0  0
    0.5894    0.9032    5.1396 C   0  0  0  0  0  0  0  0  0  0  0  0
    2.0662    0.5817    5.3709 C   0  0  0  0  0  0  0  0  0  0  0  0
    2.8548   -0.0612    4.2018 C   0  0  2  0  0  0  0  0  0  0  0  0
    2.0401   -1.2042    3.4825 C   0  0  2  0  0  0  0  0  0  0  0  0
    1.1744   -0.4762    2.6007 O   0  0  0  0  0  0  0  0  0  0  0  0
   -0.2150   -0.2504    3.1456 O   0  0  0  0  0  0  0  0  0  0  0  0
    2.7766   -2.1775    2.4933 C   0  0  1  0  0  0  0  0  0  0  0  0
    3.1216   -1.5587    1.1186 C   0  0  0  0  0  0  0  0  0  0  0  0
    1.8832   -5.0498    5.3601 C   0  0  2  0  0  0  0  0  0  0  0  0
    2.0928   -6.0140    6.5861 C   0  0  0  0  0  0  0  0  0  0  0  0
    3.2717   -7.0544    6.6350 C   0  0  0  0  0  0  0  0  0  0  0  0
    3.4921   -7.9977    5.3929 C   0  0  2  0  0  0  0  0  0  0  0  0
    3.7205   -9.4369    5.9092 C   0  0  0  0  0  0  0  0  0  0  0  0
    4.7276   -7.6775    4.4274 C   0  0  0  0  0  0  0  0  0  0  0  0
    4.7794   -6.3739    3.5459 C   0  0  0  0  0  0  0  0  0  0  0  0
    3.8111   -5.3548    4.1106 C   0  0  2  0  0  0  0  0  0  0  0  0
    2.3251   -5.7242    4.0628 C   0  0  2  0  0  0  0  0  0  0  0  0
    1.6655   -5.1764    2.9407 O   0  0  0  0  0  0  0  0  0  0  0  0
    0.3139   -5.8561    2.8582 O   0  0  0  0  0  0  0  0  0  0  0  0
    0.4783   -7.1805    3.3149 C   0  0  0  0  0  0  0  0  0  0  0  0
   -0.5519   -7.3615    4.4425 C   0  0  0  0  0  0  0  0  0  0  0  0
    0.1849   -8.1393    2.1553 C   0  0  0  0  0  0  0  0  0  0  0  0
    1.9512   -7.1844    3.7507 C   0  0  2  0  0  0  0  0  0  0  0  0
    2.2266   -8.1283    4.7587 O   0  0  0  0  0  0  0  0  0  0  0  0
    4.9784    1.6587    4.9896 H   0  0  0  0  0  0  0  0  0  0  0  0
    6.0022    0.4427    5.7525 H   0  0  0  0  0  0  0  0  0  0  0  0
    4.4657    0.8233    6.4651 H   0  0  0  0  0  0  0  0  0  0  0  0
    4.2986   -1.2883    5.2749 H   0  0  0  0  0  0  0  0  0  0  0  0
    5.0314    0.0232    2.6387 H   0  0  0  0  0  0  0  0  0  0  0  0
    6.2720   -0.4029    3.7187 H   0  0  0  0  0  0  0  0  0  0  0  0
    5.6674   -2.1000    1.9222 H   0  0  0  0  0  0  0  0  0  0  0  0
    6.0903   -2.6530    3.4829 H   0  0  0  0  0  0  0  0  0  0  0  0
    4.1774   -3.7134    2.2553 H   0  0  0  0  0  0  0  0  0  0  0  0
    4.8418   -3.6500    4.8844 H   0  0  0  0  0  0  0  0  0  0  0  0
    3.2798   -3.7739    6.3385 H   0  0  0  0  0  0  0  0  0  0  0  0
    0.8117   -2.9741    3.9674 H   0  0  0  0  0  0  0  0  0  0  0  0
   -2.3173   -0.8905    4.4748 H   0  0  0  0  0  0  0  0  0  0  0  0
   -2.1334    0.8658    4.5850 H   0  0  0  0  0  0  0  0  0  0  0  0
   -1.8584   -0.1490    6.0068 H   0  0  0  0  0  0  0  0  0  0  0  0
    0.4671    1.7965    4.5312 H   0  0  0  0  0  0  0  0  0  0  0  0
    0.1758    1.1585    6.1158 H   0  0  0  0  0  0  0  0  0  0  0  0
    2.5312    1.5253    5.6495 H   0  0  0  0  0  0  0  0  0  0  0  0
    2.1501   -0.0623    6.2477 H   0  0  0  0  0  0  0  0  0  0  0  0
    2.9558    0.7239    3.4524 H   0  0  0  0  0  0  0  0  0  0  0  0
    2.0492   -2.9343    2.2181 H   0  0  0  0  0  0  0  0  0  0  0  0
    3.6468   -0.6101    1.1754 H   0  0  0  0  0  0  0  0  0  0  0  0
    2.2227   -1.3636    0.5498 H   0  0  0  0  0  0  0  0  0  0  0  0
    3.7062   -2.2412    0.5074 H   0  0  0  0  0  0  0  0  0  0  0  0
    0.8307   -4.7766    5.3136 H   0  0  0  0  0  0  0  0  0  0  0  0
    2.1242   -5.4169    7.4935 H   0  0  0  0  0  0  0  0  0  0  0  0
    1.1835   -6.5976    6.6825 H   0  0  0  0  0  0  0  0  0  0  0  0
    4.2127   -6.5869    6.9246 H   0  0  0  0  0  0  0  0  0  0  0  0
    3.0452   -7.6825    7.4962 H   0  0  0  0  0  0  0  0  0  0  0  0
    4.6386   -9.5195    6.4981 H   0  0  0  0  0  0  0  0  0  0  0  0
    3.7948  -10.1457    5.0793 H   0  0  0  0  0  0  0  0  0  0  0  0
    2.8911   -9.7800    6.5353 H   0  0  0  0  0  0  0  0  0  0  0  0
    5.6121   -7.6572    5.0662 H   0  0  0  0  0  0  0  0  0  0  0  0
    4.8880   -8.5257    3.7573 H   0  0  0  0  0  0  0  0  0  0  0  0
    5.7917   -5.9789    3.5465 H   0  0  0  0  0  0  0  0  0  0  0  0
    4.5383   -6.5875    2.5066 H   0  0  0  0  0  0  0  0  0  0  0  0
    4.1942   -5.5333    5.1017 H   0  0  0  0  0  0  0  0  0  0  0  0
   -0.4333   -8.3231    4.9435 H   0  0  0  0  0  0  0  0  0  0  0  0
   -1.5640   -7.3193    4.0376 H   0  0  0  0  0  0  0  0  0  0  0  0
   -0.4858   -6.5735    5.1916 H   0  0  0  0  0  0  0  0  0  0  0  0
    0.3092   -9.1766    2.4670 H   0  0  0  0  0  0  0  0  0  0  0  0
    0.8440   -7.9586    1.3050 H   0  0  0  0  0  0  0  0  0  0  0  0
   -0.8419   -8.0201    1.8051 H   0  0  0  0  0  0  0  0  0  0  0  0
    2.5202   -7.4911    2.8738 H   0  0  0  0  0  0  0  0  0  0  0  0
  1  2  1  0
  1 37  1  0
  1 38  1  0
  1 39  1  0
  2 15  1  0
  2  3  1  0
  2 40  1  1
  3  4  1  0
  3 41  1  0
  3 42  1  0
  4  5  1  0
  4 43  1  0
  4 44  1  0
  5 19  1  0
  5  6  1  0
  5 45  1  6
  6 28  1  0
  6  7  1  0
  6 46  1  1
  7  8  1  0
  7 21  1  0
  7 47  1  1
  8  9  1  0
  9 16  1  0
  9 10  1  0
  9 48  1  6
 10 11  1  0
 11 18  1  0
 11 12  1  6
 11 13  1  0
 12 49  1  0
 12 50  1  0
 12 51  1  0
 13 14  1  0
 13 52  1  0
 13 53  1  0
 14 15  1  0
 14 54  1  0
 14 55  1  0
 15 16  1  0
 15 56  1  6
 16 17  1  6
 16 19  1  0
 17 18  1  0
 19 20  1  0
 19 57  1  6
 20 58  1  0
 20 59  1  0
 20 60  1  0
 21 29  1  0
 21 22  1  0
 21 61  1  6
 22 23  1  0
 22 62  1  0
 22 63  1  0
 23 24  1  0
 23 64  1  0
 23 65  1  0
 24 36  1  0
 24 25  1  1
 24 26  1  0
 25 66  1  0
 25 67  1  0
 25 68  1  0
 26 27  1  0
 26 69  1  0
 26 70  1  0
 27 28  1  0
 27 71  1  0
 27 72  1  0
 28 29  1  0
 28 73  1  1
 29 35  1  0
 29 30  1  6
 30 31  1  0
 31 32  1  0
 32 33  1  0
 32 34  1  0
 32 35  1  0
 33 74  1  0
 33 75  1  0
 33 76  1  0
 34 77  1  0
 34 78  1  0
 34 79  1  0
 35 36  1  0
 35 80  1  6
M  END
>  <i_m_ct_stereo_status>  (27) 
1

>  <s_m_source_file>  (27) 
/var/tmp/pbs.5076255.sched01/tmppz0entnt/04_lepiep.sdf

>  <i_m_source_file_index>  (27) 
15

>  <i_lp_mmshare_version>  (27) 
48012

>  <i_f3d_flags>  (27) 
0

>  <s_epik_input>  (27) 
TzFPW0NAXShPMikoW0NIM10pW0NIMl1bQ0gyXVtDQEhdM1tDQEhdKFtDSDNdKVtDSDJdW0NIMl1bQ0BIXShbQ0BASF00W0NIM10pW0NAQEhdKFtDQEhdNU9bQ0BASF0yW0NAQF0xMzQpW0NASF02W0NAQF03OFtDQEhdNVtDSDJdW0NIMl1bQ0BdKFtDSDNdKShbQ0gyXVtDSDJdNilPW0NASF04QyhPTzcpKFtDSDNdKVtDSDNd

>  <s_epik_cmdline>  (27) 
J2VwaWtfcHl0aG9uJywgJy1waHQnLCAnMi4wJywgJy1waCcsICc3LjAnLCAnLXRuJywgJzgnLCAnLW1hJywgJzIwMCcsICctaW1hZScsICc8aW5maWxlLm1hZT4nLCAnLW9tYWUnLCAnPG91dGZpbGUubWFlPic=

>  <r_lp_tautomer_probability>  (27) 
1

>  <r_epik_Ionization_Penalty>  (27) 
1.05299e-12

>  <r_epik_Ionization_Penalty_Charging>  (27) 
0

>  <r_epik_Ionization_Penalty_Neutral>  (27) 
1.05299e-12

>  <r_epik_State_Penalty>  (27) 
-0

>  <r_epik_Charging_Adjusted_Penalty>  (27) 
0

>  <i_epik_Tot_Q>  (27) 
0

>  <i_epik_Tot_abs_Q>  (27) 
0

>  <s_epik_Chemistry_Notes>  (27) 
This compound contains an acetal/aminal-like group ( X-CH(R)-Y where X, Y are N, S, or O) that may be acid/base labile, releasing an aldehyde.

>  <s_lp_Force_Field>  (27) 
OPLS3e

>  <r_lp_Energy>  (27) 
125.574

>  <b_lp_Chiralities_Consistent>  (27) 
1

>  <s_lp_Variant>  (27) 
12:0-1

>  <s_i_glide_gridfile>  (27) 
pfpi4k_grid

>  <i_i_glide_lignum>  (27) 
15

>  <i_i_glide_rotatable_bonds>  (27) 
0

>  <r_i_docking_score>  (27) 
-1.48548

>  <r_i_glide_ligand_efficiency>  (27) 
-0.0412632

>  <r_i_glide_ligand_efficiency_sa>  (27) 
-0.136248

>  <r_i_glide_ligand_efficiency_ln>  (27) 
-0.324091

>  <r_i_glide_gscore>  (27) 
-1.48548

>  <r_i_glide_lipo>  (27) 
-0.238215

>  <r_i_glide_hbond>  (27) 
-0.0962165

>  <r_i_glide_metal>  (27) 
-0

>  <r_i_glide_rewards>  (27) 
0

>  <r_i_glide_evdw>  (27) 
-22.7199

>  <r_i_glide_ecoul>  (27) 
0.0106393

>  <r_i_glide_erotb>  (27) 
0

>  <r_i_glide_esite>  (27) 
-0.0166474

>  <r_i_glide_emodel>  (27) 
-24.0528

>  <r_i_glide_energy>  (27) 
-22.7092

>  <r_i_glide_einternal>  (27) 
0

>  <r_i_glide_intrahb_reward>  (27) 
-0

>  <i_i_glide_confnum>  (27) 
2

>  <i_i_glide_posenum>  (27) 
8

>  <r_i_glide_eff_state_penalty>  (27) 
0

>  <ligand_id>  (27) 
12

>  <original_smiles>  (27) 
CC1CCC2C3C(OC4OC5(C)CCC1C4(OO5)C2C)C1CCC2(C)CCC3C13OOC(C)(C)C3O2

>  <smiles>  (27) 
[H]C([H])([H])C12OOC34C([H])(OC5([H])C([H])(C([H])(C([H])([H])C([H])([H])C([H])(C([H])([H])[H])C3([H])C([H])([H])C1([H])[H])C4([H])C([H])([H])[H])C1([H])C([H])([H])C([H])([H])C3(C([H])([H])[H])OC4([H])C(C([H])([H])[H])(C([H])([H])[H])OOC41C5([H])C([H])([H])C3([H])[H])O2

$$$$
13:0:0
     RDKit          3D

 67 72  0  0  1  0  0  0  0  0999 V2000
   -1.6155   -8.5900    2.4908 C   0  0  0  0  0  0  0  0  0  0  0  0
   -0.6062   -7.6423    3.1236 C   0  0  0  0  0  0  0  0  0  0  0  0
    0.3494   -6.9593    2.4256 C   0  0  0  0  0  0  0  0  0  0  0  0
    0.5097   -7.0358    0.9201 C   0  0  0  0  0  0  0  0  0  0  0  0
    1.3900   -6.0568    3.1098 C   0  0  0  0  0  0  0  0  0  0  0  0
    1.4217   -6.3491    4.6122 C   0  0  2  0  0  0  0  0  0  0  0  0
   -0.0139   -6.2451    5.1200 C   0  0  1  0  0  0  0  0  0  0  0  0
   -0.7854   -7.4776    4.6384 C   0  0  0  0  0  0  0  0  0  0  0  0
    0.0991   -5.8883    6.5064 O   0  0  0  0  0  0  0  0  0  0  0  0
    1.0777   -4.8459    6.4417 C   0  0  1  0  0  0  0  0  0  0  0  0
    1.8724   -4.2890    7.6235 C   0  0  0  0  0  0  0  0  0  0  0  0
    3.2280   -3.8423    6.9634 C   0  0  2  0  0  0  0  0  0  0  0  0
    3.5272   -2.3030    6.9655 C   0  0  2  0  0  0  0  0  0  0  0  0
    2.2819   -1.3706    6.9088 C   0  0  0  0  0  0  0  0  0  0  0  0
    2.5686    0.0325    6.3455 C   0  0  0  0  0  0  0  0  0  0  0  0
    3.9786    0.4663    6.6832 C   0  0  0  0  0  0  0  0  0  0  0  0
    4.2133    1.4767    7.5490 C   0  0  0  0  0  0  0  0  0  0  0  0
    5.5738    1.8524    7.9629 C   0  0  0  0  0  0  0  0  0  0  0  0
    5.7984    2.7730    8.7463 O   0  0  0  0  0  0  0  0  0  0  0  0
    6.7487    1.0633    7.3917 C   0  0  0  0  0  0  0  0  0  0  0  0
    6.3323   -0.3612    6.9672 C   0  0  0  0  0  0  0  0  0  0  0  0
    5.0763   -0.4035    6.0493 C   0  0  2  0  0  0  0  0  0  0  0  0
    5.4686    0.2345    4.6897 C   0  0  0  0  0  0  0  0  0  0  0  0
    4.5850   -1.9017    5.8984 C   0  0  2  0  0  0  0  0  0  0  0  0
    4.1275   -2.3341    4.4693 C   0  0  0  0  0  0  0  0  0  0  0  0
    3.1154   -3.4944    4.4299 C   0  0  0  0  0  0  0  0  0  0  0  0
    3.3194   -4.5358    5.5481 C   0  0  1  0  0  0  0  0  0  0  0  0
    4.6450   -5.3040    5.3354 C   0  0  0  0  0  0  0  0  0  0  0  0
    2.1618   -5.5407    5.6746 C   0  0  2  0  0  0  0  0  0  0  0  0
   -1.7834   -9.4512    3.1391 H   0  0  0  0  0  0  0  0  0  0  0  0
   -1.2869   -8.9836    1.5309 H   0  0  0  0  0  0  0  0  0  0  0  0
   -2.5711   -8.0845    2.3485 H   0  0  0  0  0  0  0  0  0  0  0  0
    0.7966   -6.0693    0.5073 H   0  0  0  0  0  0  0  0  0  0  0  0
   -0.4046   -7.3491    0.4185 H   0  0  0  0  0  0  0  0  0  0  0  0
    1.2946   -7.7510    0.6820 H   0  0  0  0  0  0  0  0  0  0  0  0
    2.3750   -6.2405    2.6818 H   0  0  0  0  0  0  0  0  0  0  0  0
    1.1268   -5.0171    2.9151 H   0  0  0  0  0  0  0  0  0  0  0  0
    1.7645   -7.3788    4.7247 H   0  0  0  0  0  0  0  0  0  0  0  0
   -0.5081   -5.3915    4.6490 H   0  0  0  0  0  0  0  0  0  0  0  0
   -1.8456   -7.3715    4.8639 H   0  0  0  0  0  0  0  0  0  0  0  0
   -0.4347   -8.3817    5.1368 H   0  0  0  0  0  0  0  0  0  0  0  0
    0.6587   -4.0066    5.8843 H   0  0  0  0  0  0  0  0  0  0  0  0
    1.3347   -3.4990    8.1498 H   0  0  0  0  0  0  0  0  0  0  0  0
    2.0569   -5.0781    8.3538 H   0  0  0  0  0  0  0  0  0  0  0  0
    4.0103   -4.2879    7.5805 H   0  0  0  0  0  0  0  0  0  0  0  0
    3.9903   -2.0976    7.9312 H   0  0  0  0  0  0  0  0  0  0  0  0
    1.4669   -1.8159    6.3433 H   0  0  0  0  0  0  0  0  0  0  0  0
    1.9086   -1.2563    7.9278 H   0  0  0  0  0  0  0  0  0  0  0  0
    2.4666    0.0232    5.2605 H   0  0  0  0  0  0  0  0  0  0  0  0
    1.8429    0.7535    6.7229 H   0  0  0  0  0  0  0  0  0  0  0  0
    3.3955    2.0316    7.9808 H   0  0  0  0  0  0  0  0  0  0  0  0
    7.1604    1.6212    6.5496 H   0  0  0  0  0  0  0  0  0  0  0  0
    7.5370    1.0118    8.1430 H   0  0  0  0  0  0  0  0  0  0  0  0
    7.1773   -0.8459    6.4757 H   0  0  0  0  0  0  0  0  0  0  0  0
    6.1402   -0.9421    7.8707 H   0  0  0  0  0  0  0  0  0  0  0  0
    6.2123   -0.3555    4.1540 H   0  0  0  0  0  0  0  0  0  0  0  0
    5.8846    1.2311    4.8229 H   0  0  0  0  0  0  0  0  0  0  0  0
    4.6142    0.3755    4.0283 H   0  0  0  0  0  0  0  0  0  0  0  0
    5.4568   -2.5221    6.1015 H   0  0  0  0  0  0  0  0  0  0  0  0
    3.6663   -1.5190    3.9185 H   0  0  0  0  0  0  0  0  0  0  0  0
    5.0124   -2.6158    3.8956 H   0  0  0  0  0  0  0  0  0  0  0  0
    2.1150   -3.0709    4.5047 H   0  0  0  0  0  0  0  0  0  0  0  0
    3.1616   -3.9727    3.4524 H   0  0  0  0  0  0  0  0  0  0  0  0
    4.6358   -5.8366    4.3843 H   0  0  0  0  0  0  0  0  0  0  0  0
    4.8193   -6.0439    6.1179 H   0  0  0  0  0  0  0  0  0  0  0  0
    5.5086   -4.6426    5.3261 H   0  0  0  0  0  0  0  0  0  0  0  0
    2.5303   -6.3157    6.3527 H   0  0  0  0  0  0  0  0  0  0  0  0
  1  2  1  0
  1 30  1  0
  1 31  1  0
  1 32  1  0
  2  8  1  0
  2  3  2  0
  3  4  1  0
  3  5  1  0
  4 33  1  0
  4 34  1  0
  4 35  1  0
  5  6  1  0
  5 36  1  0
  5 37  1  0
  6 29  1  0
  6  7  1  0
  6 38  1  6
  7  8  1  0
  7  9  1  0
  7 39  1  6
  8 40  1  0
  8 41  1  0
  9 10  1  0
 10 29  1  0
 10 11  1  0
 10 42  1  6
 11 12  1  0
 11 43  1  0
 11 44  1  0
 12 27  1  0
 12 13  1  0
 12 45  1  1
 13 24  1  0
 13 14  1  0
 13 46  1  1
 14 15  1  0
 14 47  1  0
 14 48  1  0
 15 16  1  0
 15 49  1  0
 15 50  1  0
 16 22  1  0
 16 17  2  0
 17 18  1  0
 17 51  1  0
 18 19  2  0
 18 20  1  0
 20 21  1  0
 20 52  1  0
 20 53  1  0
 21 22  1  0
 21 54  1  0
 21 55  1  0
 22 23  1  6
 22 24  1  0
 23 56  1  0
 23 57  1  0
 23 58  1  0
 24 25  1  0
 24 59  1  1
 25 26  1  0
 25 60  1  0
 25 61  1  0
 26 27  1  0
 26 62  1  0
 26 63  1  0
 27 28  1  6
 27 29  1  0
 28 64  1  0
 28 65  1  0
 28 66  1  0
 29 67  1  1
M  END
>  <i_m_ct_stereo_status>  (28) 
1

>  <s_m_source_file>  (28) 
/var/tmp/pbs.5076255.sched01/tmppz0entnt/04_lepiep.sdf

>  <i_m_source_file_index>  (28) 
16

>  <i_lp_mmshare_version>  (28) 
48012

>  <i_f3d_flags>  (28) 
0

>  <s_epik_input>  (28) 
W0NIM11DKFtDSDJdMSk9QyhbQ0gzXSlbQ0gyXVtDQEBIXShPW0NASF0yW0NIMl0zKVtDQEBIXTFbQ0BIXTJbQ0BAXShbQ0gzXSkoW0NIMl1bQ0gyXVtDQEhdNDUpW0NASF0zW0NAQEhdNFtDSDJdW0NIMl1DKFtDQF01NltDSDNdKT1bQ0hdQyg9TylbQ0gyXVtDSDJdNg==

>  <s_epik_cmdline>  (28) 
J2VwaWtfcHl0aG9uJywgJy1waHQnLCAnMi4wJywgJy1waCcsICc3LjAnLCAnLXRuJywgJzgnLCAnLW1hJywgJzIwMCcsICctaW1hZScsICc8aW5maWxlLm1hZT4nLCAnLW9tYWUnLCAnPG91dGZpbGUubWFlPic=

>  <r_lp_tautomer_probability>  (28) 
1

>  <r_epik_Ionization_Penalty>  (28) 
7.60149e-11

>  <r_epik_Ionization_Penalty_Charging>  (28) 
0

>  <r_epik_Ionization_Penalty_Neutral>  (28) 
7.60149e-11

>  <r_epik_State_Penalty>  (28) 
-0

>  <r_epik_Charging_Adjusted_Penalty>  (28) 
0

>  <i_epik_Tot_Q>  (28) 
0

>  <i_epik_Tot_abs_Q>  (28) 
0

>  <s_lp_Force_Field>  (28) 
OPLS3e

>  <r_lp_Energy>  (28) 
77.4057

>  <b_lp_Chiralities_Consistent>  (28) 
1

>  <s_lp_Variant>  (28) 
13:0-1

>  <s_i_glide_gridfile>  (28) 
pfpi4k_grid

>  <i_i_glide_lignum>  (28) 
16

>  <i_i_glide_rotatable_bonds>  (28) 
0

>  <r_i_docking_score>  (28) 
-2.22667

>  <r_i_glide_ligand_efficiency>  (28) 
-0.0767817

>  <r_i_glide_ligand_efficiency_sa>  (28) 
-0.235898

>  <r_i_glide_ligand_efficiency_ln>  (28) 
-0.509851

>  <r_i_glide_gscore>  (28) 
-2.22667

>  <r_i_glide_lipo>  (28) 
-0.303279

>  <r_i_glide_hbond>  (28) 
0

>  <r_i_glide_metal>  (28) 
-0

>  <r_i_glide_rewards>  (28) 
-0.718708

>  <r_i_glide_evdw>  (28) 
-21.8505

>  <r_i_glide_ecoul>  (28) 
-0.747728

>  <r_i_glide_erotb>  (28) 
0

>  <r_i_glide_esite>  (28) 
0

>  <r_i_glide_emodel>  (28) 
-25.3627

>  <r_i_glide_energy>  (28) 
-22.5982

>  <r_i_glide_einternal>  (28) 
0

>  <r_i_glide_intrahb_reward>  (28) 
-0

>  <i_i_glide_confnum>  (28) 
1

>  <i_i_glide_posenum>  (28) 
37

>  <r_i_glide_eff_state_penalty>  (28) 
0

>  <ligand_id>  (28) 
13

>  <original_smiles>  (28) 
CC1=C(C)CC2C(C1)OC1CC3C4CCC5=CC(=O)CCC5(C)C4CCC3(C)C12

>  <smiles>  (28) 
[H]C1=C2C([H])([H])C([H])([H])C3([H])C([H])(C([H])([H])C([H])([H])C4(C([H])([H])[H])C3([H])C([H])([H])C3([H])OC5([H])C([H])([H])C(C([H])([H])[H])=C(C([H])([H])[H])C([H])([H])C5([H])C34[H])C2(C([H])([H])[H])C([H])([H])C([H])([H])C1=O

$$$$
13:0:1
     RDKit          3D

 67 72  0  0  1  0  0  0  0  0999 V2000
    2.2896   -9.4013    8.5282 C   0  0  0  0  0  0  0  0  0  0  0  0
    2.6483   -8.7059    7.2229 C   0  0  0  0  0  0  0  0  0  0  0  0
    1.8912   -8.7799    6.0872 C   0  0  0  0  0  0  0  0  0  0  0  0
    0.5773   -9.5385    5.9898 C   0  0  0  0  0  0  0  0  0  0  0  0
    2.3149   -8.1155    4.7659 C   0  0  0  0  0  0  0  0  0  0  0  0
    3.7956   -7.7387    4.8278 C   0  0  2  0  0  0  0  0  0  0  0  0
    3.9989   -6.9189    6.1001 C   0  0  1  0  0  0  0  0  0  0  0  0
    3.9361   -7.8679    7.3002 C   0  0  0  0  0  0  0  0  0  0  0  0
    5.1384   -6.0897    5.8298 O   0  0  0  0  0  0  0  0  0  0  0  0
    4.8083   -5.6009    4.5276 C   0  0  1  0  0  0  0  0  0  0  0  0
    5.7779   -4.9273    3.5643 C   0  0  0  0  0  0  0  0  0  0  0  0
    5.2229   -5.3221    2.1521 C   0  0  2  0  0  0  0  0  0  0  0  0
    4.6707   -4.1452    1.2819 C   0  0  2  0  0  0  0  0  0  0  0  0
    4.0616   -2.9482    2.0764 C   0  0  0  0  0  0  0  0  0  0  0  0
    3.0497   -2.1256    1.2686 C   0  0  0  0  0  0  0  0  0  0  0  0
    3.4098   -2.1522   -0.1976 C   0  0  0  0  0  0  0  0  0  0  0  0
    3.8549   -1.0443   -0.8127 C   0  0  0  0  0  0  0  0  0  0  0  0
    4.2332   -1.0287   -2.2267 C   0  0  0  0  0  0  0  0  0  0  0  0
    4.5668   -0.0045   -2.8056 O   0  0  0  0  0  0  0  0  0  0  0  0
    4.2099   -2.3258   -3.0076 C   0  0  0  0  0  0  0  0  0  0  0  0
    4.3556   -3.5185   -2.0539 C   0  0  0  0  0  0  0  0  0  0  0  0
    3.3341   -3.5140   -0.8800 C   0  0  2  0  0  0  0  0  0  0  0  0
    1.9134   -3.6647   -1.4843 C   0  0  0  0  0  0  0  0  0  0  0  0
    3.7101   -4.6450    0.1578 C   0  0  2  0  0  0  0  0  0  0  0  0
    2.5137   -5.4338    0.7730 C   0  0  0  0  0  0  0  0  0  0  0  0
    2.7712   -6.0516    2.1580 C   0  0  0  0  0  0  0  0  0  0  0  0
    4.2239   -6.5243    2.3577 C   0  0  1  0  0  0  0  0  0  0  0  0
    4.5340   -7.7269    1.4369 C   0  0  0  0  0  0  0  0  0  0  0  0
    4.5534   -6.8897    3.8116 C   0  0  2  0  0  0  0  0  0  0  0  0
    3.1874   -9.7889    9.0074 H   0  0  0  0  0  0  0  0  0  0  0  0
    1.6266  -10.2538    8.3866 H   0  0  0  0  0  0  0  0  0  0  0  0
    1.8154   -8.6974    9.2113 H   0  0  0  0  0  0  0  0  0  0  0  0
   -0.1328   -8.9961    5.3648 H   0  0  0  0  0  0  0  0  0  0  0  0
    0.0998   -9.6866    6.9563 H   0  0  0  0  0  0  0  0  0  0  0  0
    0.7438  -10.5174    5.5397 H   0  0  0  0  0  0  0  0  0  0  0  0
    2.1483   -8.8034    3.9383 H   0  0  0  0  0  0  0  0  0  0  0  0
    1.6917   -7.2370    4.6077 H   0  0  0  0  0  0  0  0  0  0  0  0
    4.3563   -8.6714    4.9131 H   0  0  0  0  0  0  0  0  0  0  0  0
    3.1655   -6.2249    6.2292 H   0  0  0  0  0  0  0  0  0  0  0  0
    3.9533   -7.3031    8.2311 H   0  0  0  0  0  0  0  0  0  0  0  0
    4.7942   -8.5386    7.3100 H   0  0  0  0  0  0  0  0  0  0  0  0
    3.9110   -4.9846    4.6007 H   0  0  0  0  0  0  0  0  0  0  0  0
    5.8248   -3.8543    3.7497 H   0  0  0  0  0  0  0  0  0  0  0  0
    6.7797   -5.3361    3.6947 H   0  0  0  0  0  0  0  0  0  0  0  0
    6.0780   -5.7090    1.5954 H   0  0  0  0  0  0  0  0  0  0  0  0
    5.5353   -3.7267    0.7635 H   0  0  0  0  0  0  0  0  0  0  0  0
    3.5986   -3.2589    3.0117 H   0  0  0  0  0  0  0  0  0  0  0  0
    4.8820   -2.2817    2.3536 H   0  0  0  0  0  0  0  0  0  0  0  0
    2.0486   -2.5393    1.3737 H   0  0  0  0  0  0  0  0  0  0  0  0
    3.0029   -1.0994    1.6376 H   0  0  0  0  0  0  0  0  0  0  0  0
    3.9269   -0.1220   -0.2628 H   0  0  0  0  0  0  0  0  0  0  0  0
    3.2877   -2.3693   -3.5922 H   0  0  0  0  0  0  0  0  0  0  0  0
    5.0296   -2.3146   -3.7230 H   0  0  0  0  0  0  0  0  0  0  0  0
    4.2443   -4.4137   -2.6561 H   0  0  0  0  0  0  0  0  0  0  0  0
    5.3776   -3.5328   -1.6628 H   0  0  0  0  0  0  0  0  0  0  0  0
    1.7216   -4.6442   -1.9109 H   0  0  0  0  0  0  0  0  0  0  0  0
    1.6990   -2.9187   -2.2493 H   0  0  0  0  0  0  0  0  0  0  0  0
    1.1578   -3.4930   -0.7348 H   0  0  0  0  0  0  0  0  0  0  0  0
    4.2688   -5.3888   -0.4090 H   0  0  0  0  0  0  0  0  0  0  0  0
    1.6419   -4.8052    0.8955 H   0  0  0  0  0  0  0  0  0  0  0  0
    2.2288   -6.2222    0.0766 H   0  0  0  0  0  0  0  0  0  0  0  0
    2.5219   -5.3083    2.9142 H   0  0  0  0  0  0  0  0  0  0  0  0
    2.0794   -6.8777    2.3129 H   0  0  0  0  0  0  0  0  0  0  0  0
    3.8785   -8.5664    1.6671 H   0  0  0  0  0  0  0  0  0  0  0  0
    5.5615   -8.0733    1.5564 H   0  0  0  0  0  0  0  0  0  0  0  0
    4.3979   -7.4867    0.3848 H   0  0  0  0  0  0  0  0  0  0  0  0
    5.5311   -7.3777    3.7665 H   0  0  0  0  0  0  0  0  0  0  0  0
  1  2  1  0
  1 30  1  0
  1 31  1  0
  1 32  1  0
  2  8  1  0
  2  3  2  0
  3  4  1  0
  3  5  1  0
  4 33  1  0
  4 34  1  0
  4 35  1  0
  5  6  1  0
  5 36  1  0
  5 37  1  0
  6 29  1  0
  6  7  1  0
  6 38  1  1
  7  8  1  0
  7  9  1  0
  7 39  1  1
  8 40  1  0
  8 41  1  0
  9 10  1  0
 10 29  1  0
 10 11  1  0
 10 42  1  1
 11 12  1  0
 11 43  1  0
 11 44  1  0
 12 27  1  0
 12 13  1  0
 12 45  1  6
 13 24  1  0
 13 14  1  0
 13 46  1  6
 14 15  1  0
 14 47  1  0
 14 48  1  0
 15 16  1  0
 15 49  1  0
 15 50  1  0
 16 22  1  0
 16 17  2  0
 17 18  1  0
 17 51  1  0
 18 19  2  0
 18 20  1  0
 20 21  1  0
 20 52  1  0
 20 53  1  0
 21 22  1  0
 21 54  1  0
 21 55  1  0
 22 23  1  6
 22 24  1  0
 23 56  1  0
 23 57  1  0
 23 58  1  0
 24 25  1  0
 24 59  1  6
 25 26  1  0
 25 60  1  0
 25 61  1  0
 26 27  1  0
 26 62  1  0
 26 63  1  0
 27 28  1  6
 27 29  1  0
 28 64  1  0
 28 65  1  0
 28 66  1  0
 29 67  1  6
M  END
>  <i_m_ct_stereo_status>  (29) 
1

>  <s_m_source_file>  (29) 
/var/tmp/pbs.5076255.sched01/tmppz0entnt/04_lepiep.sdf

>  <i_m_source_file_index>  (29) 
16

>  <i_lp_mmshare_version>  (29) 
48012

>  <i_f3d_flags>  (29) 
0

>  <s_epik_input>  (29) 
W0NIM11DKFtDSDJdMSk9QyhbQ0gzXSlbQ0gyXVtDQEBIXShPW0NASF0yW0NIMl0zKVtDQEBIXTFbQ0BIXTJbQ0BAXShbQ0gzXSkoW0NIMl1bQ0gyXVtDQEhdNDUpW0NASF0zW0NAQEhdNFtDSDJdW0NIMl1DKFtDQF01NltDSDNdKT1bQ0hdQyg9TylbQ0gyXVtDSDJdNg==

>  <s_epik_cmdline>  (29) 
J2VwaWtfcHl0aG9uJywgJy1waHQnLCAnMi4wJywgJy1waCcsICc3LjAnLCAnLXRuJywgJzgnLCAnLW1hJywgJzIwMCcsICctaW1hZScsICc8aW5maWxlLm1hZT4nLCAnLW9tYWUnLCAnPG91dGZpbGUubWFlPic=

>  <r_lp_tautomer_probability>  (29) 
1

>  <r_epik_Ionization_Penalty>  (29) 
7.60149e-11

>  <r_epik_Ionization_Penalty_Charging>  (29) 
0

>  <r_epik_Ionization_Penalty_Neutral>  (29) 
7.60149e-11

>  <r_epik_State_Penalty>  (29) 
-0

>  <r_epik_Charging_Adjusted_Penalty>  (29) 
0

>  <i_epik_Tot_Q>  (29) 
0

>  <i_epik_Tot_abs_Q>  (29) 
0

>  <s_lp_Force_Field>  (29) 
OPLS3e

>  <r_lp_Energy>  (29) 
77.4057

>  <b_lp_Chiralities_Consistent>  (29) 
1

>  <s_lp_Variant>  (29) 
13:0-1

>  <s_i_glide_gridfile>  (29) 
pfpi4k_grid

>  <i_i_glide_lignum>  (29) 
16

>  <i_i_glide_rotatable_bonds>  (29) 
0

>  <r_i_docking_score>  (29) 
-2.02198

>  <r_i_glide_ligand_efficiency>  (29) 
-0.0697234

>  <r_i_glide_ligand_efficiency_sa>  (29) 
-0.214212

>  <r_i_glide_ligand_efficiency_ln>  (29) 
-0.462982

>  <r_i_glide_gscore>  (29) 
-2.02198

>  <r_i_glide_lipo>  (29) 
-0.285912

>  <r_i_glide_hbond>  (29) 
0

>  <r_i_glide_metal>  (29) 
-0

>  <r_i_glide_rewards>  (29) 
-0.718708

>  <r_i_glide_evdw>  (29) 
-19.206

>  <r_i_glide_ecoul>  (29) 
-0.224832

>  <r_i_glide_erotb>  (29) 
0

>  <r_i_glide_esite>  (29) 
-0.023335

>  <r_i_glide_emodel>  (29) 
-21.828

>  <r_i_glide_energy>  (29) 
-19.4308

>  <r_i_glide_einternal>  (29) 
0

>  <r_i_glide_intrahb_reward>  (29) 
-0

>  <i_i_glide_confnum>  (29) 
2

>  <i_i_glide_posenum>  (29) 
1

>  <r_i_glide_eff_state_penalty>  (29) 
0

>  <ligand_id>  (29) 
13

>  <original_smiles>  (29) 
CC1=C(C)CC2C(C1)OC1CC3C4CCC5=CC(=O)CCC5(C)C4CCC3(C)C12

>  <smiles>  (29) 
[H]C1=C2C([H])([H])C([H])([H])C3([H])C([H])(C([H])([H])C([H])([H])C4(C([H])([H])[H])C3([H])C([H])([H])C3([H])OC5([H])C([H])([H])C(C([H])([H])[H])=C(C([H])([H])[H])C([H])([H])C5([H])C34[H])C2(C([H])([H])[H])C([H])([H])C([H])([H])C1=O

$$$$
14:0:0
     RDKit          3D

 48 52  0  0  1  0  0  0  0  0999 V2000
    3.6532    0.0690    1.2384 C   0  0  0  0  0  0  0  0  0  0  0  0
    4.5075   -0.9536    1.4072 C   0  0  0  0  0  0  0  0  0  0  0  0
    5.6286   -0.7552    2.4322 C   0  0  0  0  0  0  0  0  0  0  0  0
    4.4176   -2.2788    0.6555 C   0  0  2  0  0  0  0  0  0  0  0  0
    4.7388   -2.1617   -0.7489 O   0  0  0  0  0  0  0  0  0  0  0  0
    3.3413   -2.3680   -0.4375 C   0  0  1  0  0  0  0  0  0  0  0  0
    2.7248   -3.7213   -0.7341 C   0  0  0  0  0  0  0  0  0  0  0  0
    1.6339   -3.8298   -1.2749 O   0  0  0  0  0  0  0  0  0  0  0  0
    3.3907   -4.7905   -0.2860 O   0  0  0  0  0  0  0  0  0  0  0  0
    4.7142   -4.7317    0.2071 C   0  0  2  0  0  0  0  0  0  0  0  0
    5.1013   -6.1310    0.7180 C   0  0  0  0  0  0  0  0  0  0  0  0
    4.3468   -6.5470    1.9912 C   0  0  2  0  0  0  0  0  0  0  0  0
    2.9016   -7.0531    1.6847 C   0  0  1  0  0  0  0  0  0  0  0  0
    2.6528   -8.4923    2.1716 C   0  0  0  0  0  0  0  0  0  0  0  0
    1.8123   -6.1282    2.2217 C   0  0  0  0  0  0  0  0  0  0  0  0
    0.6523   -6.1803    1.7713 O   0  0  0  0  0  0  0  0  0  0  0  0
    2.2018   -5.1564    3.3518 C   0  0  2  0  0  0  0  0  0  0  0  0
    1.0895   -5.0166    4.4014 C   0  0  0  0  0  0  0  0  0  0  0  0
    2.6957   -3.8132    2.7642 C   0  0  0  0  0  0  0  0  0  0  0  0
    4.2241   -3.9906    2.6036 C   0  0  1  0  0  0  0  0  0  0  0  0
    4.4448   -5.4421    3.0745 C   0  0  1  0  0  0  0  0  0  0  0  0
    3.3819   -5.6359    3.9932 O   0  0  0  0  0  0  0  0  0  0  0  0
    4.9499   -3.6022    1.2516 C   0  0  2  0  0  0  0  0  0  0  0  0
    6.5041   -3.5484    1.4071 C   0  0  0  0  0  0  0  0  0  0  0  0
    3.7974    0.9779    1.8023 H   0  0  0  0  0  0  0  0  0  0  0  0
    2.8076    0.0607    0.5540 H   0  0  0  0  0  0  0  0  0  0  0  0
    5.7196   -1.6075    3.1064 H   0  0  0  0  0  0  0  0  0  0  0  0
    5.4841    0.1585    3.0113 H   0  0  0  0  0  0  0  0  0  0  0  0
    6.5760   -0.6502    1.9047 H   0  0  0  0  0  0  0  0  0  0  0  0
    2.7284   -1.5183   -0.7042 H   0  0  0  0  0  0  0  0  0  0  0  0
    5.3389   -4.5313   -0.6660 H   0  0  0  0  0  0  0  0  0  0  0  0
    4.9492   -6.8732   -0.0654 H   0  0  0  0  0  0  0  0  0  0  0  0
    6.1718   -6.1736    0.9197 H   0  0  0  0  0  0  0  0  0  0  0  0
    4.8817   -7.4046    2.3974 H   0  0  0  0  0  0  0  0  0  0  0  0
    2.7733   -7.0564    0.6046 H   0  0  0  0  0  0  0  0  0  0  0  0
    1.6814   -8.8566    1.8325 H   0  0  0  0  0  0  0  0  0  0  0  0
    2.6633   -8.5538    3.2608 H   0  0  0  0  0  0  0  0  0  0  0  0
    3.4040   -9.1830    1.7875 H   0  0  0  0  0  0  0  0  0  0  0  0
    0.1962   -4.5578    3.9806 H   0  0  0  0  0  0  0  0  0  0  0  0
    1.4103   -4.4000    5.2394 H   0  0  0  0  0  0  0  0  0  0  0  0
    0.8070   -5.9904    4.8009 H   0  0  0  0  0  0  0  0  0  0  0  0
    2.1565   -3.5466    1.8563 H   0  0  0  0  0  0  0  0  0  0  0  0
    2.4975   -3.0005    3.4679 H   0  0  0  0  0  0  0  0  0  0  0  0
    4.6379   -3.3736    3.3962 H   0  0  0  0  0  0  0  0  0  0  0  0
    5.3992   -5.5180    3.5891 H   0  0  0  0  0  0  0  0  0  0  0  0
    6.8819   -4.4703    1.8530 H   0  0  0  0  0  0  0  0  0  0  0  0
    6.8709   -2.7632    2.0400 H   0  0  0  0  0  0  0  0  0  0  0  0
    6.9791   -3.4772    0.4165 H   0  0  0  0  0  0  0  0  0  0  0  0
  1  2  2  0
  1 25  1  0
  1 26  1  0
  2  3  1  0
  4  2  1  1
  3 27  1  0
  3 28  1  0
  3 29  1  0
  4  6  1  0
  4 23  1  0
  4  5  1  0
  5  6  1  0
  6  7  1  0
  6 30  1  1
  7  8  2  0
  7  9  1  0
  9 10  1  0
 10 23  1  0
 10 11  1  0
 10 31  1  6
 11 12  1  0
 11 32  1  0
 11 33  1  0
 12 21  1  0
 12 13  1  0
 12 34  1  1
 13 14  1  0
 13 15  1  0
 13 35  1  6
 14 36  1  0
 14 37  1  0
 14 38  1  0
 15 16  2  0
 15 17  1  0
 17 22  1  0
 17 18  1  1
 17 19  1  0
 18 39  1  0
 18 40  1  0
 18 41  1  0
 19 20  1  0
 19 42  1  0
 19 43  1  0
 20 21  1  0
 20 23  1  0
 20 44  1  1
 21 22  1  0
 21 45  1  1
 23 24  1  1
 24 46  1  0
 24 47  1  0
 24 48  1  0
M  END
>  <i_m_ct_stereo_status>  (30) 
1

>  <s_m_source_file>  (30) 
/var/tmp/pbs.5076255.sched01/tmppz0entnt/04_lepiep.sdf

>  <i_m_source_file_index>  (30) 
17

>  <i_lp_mmshare_version>  (30) 
48012

>  <i_f3d_flags>  (30) 
0

>  <s_epik_input>  (30) 
W0NIMl09QyhbQ0gzXSlbQ0BAXTEyW0NAQEhdKE8xKUMoPU8pT1tDQEhdM1tDQF0yKFtDSDNdKVtDQEBIXTRbQ0BASF01W0NASF0oW0NIMl0zKVtDQEBIXShbQ0gzXSlDKD1PKVtDQF0oTzUpKFtDSDNdKVtDSDJdNA==

>  <s_epik_cmdline>  (30) 
J2VwaWtfcHl0aG9uJywgJy1waHQnLCAnMi4wJywgJy1waCcsICc3LjAnLCAnLXRuJywgJzgnLCAnLW1hJywgJzIwMCcsICctaW1hZScsICc8aW5maWxlLm1hZT4nLCAnLW9tYWUnLCAnPG91dGZpbGUubWFlPic=

>  <r_lp_tautomer_probability>  (30) 
1

>  <r_epik_Ionization_Penalty>  (30) 
2.4408e-12

>  <r_epik_Ionization_Penalty_Charging>  (30) 
0

>  <r_epik_Ionization_Penalty_Neutral>  (30) 
2.4408e-12

>  <r_epik_State_Penalty>  (30) 
-0

>  <r_epik_Charging_Adjusted_Penalty>  (30) 
0

>  <i_epik_Tot_Q>  (30) 
0

>  <i_epik_Tot_abs_Q>  (30) 
0

>  <s_epik_Chemistry_Notes>  (30) 
This compound has an ester and may undergo hydrolysis at high or low pH.

>  <s_lp_Force_Field>  (30) 
OPLS3e

>  <r_lp_Energy>  (30) 
42.3585

>  <b_lp_Chiralities_Consistent>  (30) 
1

>  <s_lp_Variant>  (30) 
14:0-1

>  <s_i_glide_gridfile>  (30) 
pfpi4k_grid

>  <i_i_glide_lignum>  (30) 
17

>  <i_i_glide_rotatable_bonds>  (30) 
1

>  <r_i_docking_score>  (30) 
-3.20703

>  <r_i_glide_ligand_efficiency>  (30) 
-0.133626

>  <r_i_glide_ligand_efficiency_sa>  (30) 
-0.385445

>  <r_i_glide_ligand_efficiency_ln>  (30) 
-0.76759

>  <r_i_glide_gscore>  (30) 
-3.20703

>  <r_i_glide_lipo>  (30) 
-0.494723

>  <r_i_glide_hbond>  (30) 
-0.171765

>  <r_i_glide_metal>  (30) 
-0

>  <r_i_glide_rewards>  (30) 
-1.14279

>  <r_i_glide_evdw>  (30) 
-19.6419

>  <r_i_glide_ecoul>  (30) 
-3.55198

>  <r_i_glide_erotb>  (30) 
0.170467

>  <r_i_glide_esite>  (30) 
-0.0533307

>  <r_i_glide_emodel>  (30) 
-25.3038

>  <r_i_glide_energy>  (30) 
-23.1939

>  <r_i_glide_einternal>  (30) 
2.97656

>  <r_i_glide_intrahb_reward>  (30) 
-0

>  <i_i_glide_confnum>  (30) 
6

>  <i_i_glide_posenum>  (30) 
8

>  <r_i_glide_eff_state_penalty>  (30) 
0

>  <ligand_id>  (30) 
14

>  <original_smiles>  (30) 
C=C(C)C12OC1C(=O)OC1CC3C(C)C(=O)C4(C)CC(C3O4)C12C

>  <smiles>  (30) 
[H]C([H])=C(C([H])([H])[H])C12OC1([H])C(=O)OC1([H])C([H])([H])C3([H])C4([H])OC(C([H])([H])[H])(C(=O)C3([H])C([H])([H])[H])C([H])([H])C4([H])C12C([H])([H])[H]

$$$$
14:0:1
     RDKit          3D

 48 52  0  0  1  0  0  0  0  0999 V2000
    4.3136   -0.2146   -2.1186 C   0  0  0  0  0  0  0  0  0  0  0  0
    3.9417   -1.5082   -2.2214 C   0  0  0  0  0  0  0  0  0  0  0  0
    3.2744   -1.9062   -3.5325 C   0  0  0  0  0  0  0  0  0  0  0  0
    4.1229   -2.5661   -1.1521 C   0  0  2  0  0  0  0  0  0  0  0  0
    4.4496   -3.8303   -1.7293 O   0  0  0  0  0  0  0  0  0  0  0  0
    3.1306   -3.7121   -1.1532 C   0  0  1  0  0  0  0  0  0  0  0  0
    2.9109   -4.5412    0.0760 C   0  0  0  0  0  0  0  0  0  0  0  0
    1.9045   -5.2500    0.1821 O   0  0  0  0  0  0  0  0  0  0  0  0
    3.8341   -4.4062    1.0646 O   0  0  0  0  0  0  0  0  0  0  0  0
    5.0550   -3.6933    0.8797 C   0  0  2  0  0  0  0  0  0  0  0  0
    5.7560   -3.5618    2.2395 C   0  0  0  0  0  0  0  0  0  0  0  0
    5.0696   -2.5736    3.2017 C   0  0  2  0  0  0  0  0  0  0  0  0
    3.8071   -3.1698    3.8933 C   0  0  1  0  0  0  0  0  0  0  0  0
    3.9123   -3.1305    5.4259 C   0  0  0  0  0  0  0  0  0  0  0  0
    2.5058   -2.5047    3.4389 C   0  0  0  0  0  0  0  0  0  0  0  0
    1.4131   -3.0875    3.5814 O   0  0  0  0  0  0  0  0  0  0  0  0
    2.5940   -1.1067    2.8201 C   0  0  2  0  0  0  0  0  0  0  0  0
    1.4262   -0.2040    3.2309 C   0  0  0  0  0  0  0  0  0  0  0  0
    2.7682   -1.2281    1.2935 C   0  0  0  0  0  0  0  0  0  0  0  0
    4.2919   -1.2467    1.0785 C   0  0  1  0  0  0  0  0  0  0  0  0
    4.8461   -1.2082    2.5133 C   0  0  1  0  0  0  0  0  0  0  0  0
    3.8311   -0.5153    3.2192 O   0  0  0  0  0  0  0  0  0  0  0  0
    4.9376   -2.3247    0.1255 C   0  0  2  0  0  0  0  0  0  0  0  0
    6.3960   -1.9484   -0.2650 C   0  0  0  0  0  0  0  0  0  0  0  0
    4.1293    0.4695   -2.9419 H   0  0  0  0  0  0  0  0  0  0  0  0
    4.7758    0.1320   -1.2318 H   0  0  0  0  0  0  0  0  0  0  0  0
    3.6537   -2.8411   -3.9547 H   0  0  0  0  0  0  0  0  0  0  0  0
    3.4379   -1.1307   -4.2761 H   0  0  0  0  0  0  0  0  0  0  0  0
    2.1941   -1.9945   -3.3930 H   0  0  0  0  0  0  0  0  0  0  0  0
    2.3627   -3.8017   -1.9054 H   0  0  0  0  0  0  0  0  0  0  0  0
    5.6798   -4.3646    0.2821 H   0  0  0  0  0  0  0  0  0  0  0  0
    5.8328   -4.5422    2.7231 H   0  0  0  0  0  0  0  0  0  0  0  0
    6.7885   -3.2421    2.0811 H   0  0  0  0  0  0  0  0  0  0  0  0
    5.7819   -2.3769    4.0020 H   0  0  0  0  0  0  0  0  0  0  0  0
    3.7367   -4.2226    3.6122 H   0  0  0  0  0  0  0  0  0  0  0  0
    3.0760   -3.6681    5.8712 H   0  0  0  0  0  0  0  0  0  0  0  0
    3.8940   -2.1079    5.8051 H   0  0  0  0  0  0  0  0  0  0  0  0
    4.8286   -3.6084    5.7739 H   0  0  0  0  0  0  0  0  0  0  0  0
    0.4653   -0.5873    2.8794 H   0  0  0  0  0  0  0  0  0  0  0  0
    1.5441    0.8064    2.8394 H   0  0  0  0  0  0  0  0  0  0  0  0
    1.3763   -0.1306    4.3186 H   0  0  0  0  0  0  0  0  0  0  0  0
    2.2148   -2.0810    0.8956 H   0  0  0  0  0  0  0  0  0  0  0  0
    2.3624   -0.3545    0.7886 H   0  0  0  0  0  0  0  0  0  0  0  0
    4.5237   -0.2406    0.7330 H   0  0  0  0  0  0  0  0  0  0  0  0
    5.7762   -0.6504    2.5172 H   0  0  0  0  0  0  0  0  0  0  0  0
    6.9972   -1.6880    0.6079 H   0  0  0  0  0  0  0  0  0  0  0  0
    6.4785   -1.0977   -0.9356 H   0  0  0  0  0  0  0  0  0  0  0  0
    6.8902   -2.7783   -0.7767 H   0  0  0  0  0  0  0  0  0  0  0  0
  1  2  2  0
  1 25  1  0
  1 26  1  0
  2  3  1  0
  4  2  1  6
  3 27  1  0
  3 28  1  0
  3 29  1  0
  4  6  1  0
  4 23  1  0
  4  5  1  0
  5  6  1  0
  6  7  1  0
  6 30  1  6
  7  8  2  0
  7  9  1  0
  9 10  1  0
 10 23  1  0
 10 11  1  0
 10 31  1  6
 11 12  1  0
 11 32  1  0
 11 33  1  0
 12 21  1  0
 12 13  1  0
 12 34  1  1
 13 14  1  0
 13 15  1  0
 13 35  1  6
 14 36  1  0
 14 37  1  0
 14 38  1  0
 15 16  2  0
 15 17  1  0
 17 22  1  0
 17 18  1  6
 17 19  1  0
 18 39  1  0
 18 40  1  0
 18 41  1  0
 19 20  1  0
 19 42  1  0
 19 43  1  0
 20 21  1  0
 20 23  1  0
 20 44  1  6
 21 22  1  0
 21 45  1  6
 23 24  1  6
 24 46  1  0
 24 47  1  0
 24 48  1  0
M  END
>  <i_m_ct_stereo_status>  (31) 
1

>  <s_m_source_file>  (31) 
/var/tmp/pbs.5076255.sched01/tmppz0entnt/04_lepiep.sdf

>  <i_m_source_file_index>  (31) 
17

>  <i_lp_mmshare_version>  (31) 
48012

>  <i_f3d_flags>  (31) 
0

>  <s_epik_input>  (31) 
W0NIMl09QyhbQ0gzXSlbQ0BAXTEyW0NAQEhdKE8xKUMoPU8pT1tDQEhdM1tDQF0yKFtDSDNdKVtDQEBIXTRbQ0BASF01W0NASF0oW0NIMl0zKVtDQEBIXShbQ0gzXSlDKD1PKVtDQF0oTzUpKFtDSDNdKVtDSDJdNA==

>  <s_epik_cmdline>  (31) 
J2VwaWtfcHl0aG9uJywgJy1waHQnLCAnMi4wJywgJy1waCcsICc3LjAnLCAnLXRuJywgJzgnLCAnLW1hJywgJzIwMCcsICctaW1hZScsICc8aW5maWxlLm1hZT4nLCAnLW9tYWUnLCAnPG91dGZpbGUubWFlPic=

>  <r_lp_tautomer_probability>  (31) 
1

>  <r_epik_Ionization_Penalty>  (31) 
2.4408e-12

>  <r_epik_Ionization_Penalty_Charging>  (31) 
0

>  <r_epik_Ionization_Penalty_Neutral>  (31) 
2.4408e-12

>  <r_epik_State_Penalty>  (31) 
-0

>  <r_epik_Charging_Adjusted_Penalty>  (31) 
0

>  <i_epik_Tot_Q>  (31) 
0

>  <i_epik_Tot_abs_Q>  (31) 
0

>  <s_epik_Chemistry_Notes>  (31) 
This compound has an ester and may undergo hydrolysis at high or low pH.

>  <s_lp_Force_Field>  (31) 
OPLS3e

>  <r_lp_Energy>  (31) 
42.3585

>  <b_lp_Chiralities_Consistent>  (31) 
1

>  <s_lp_Variant>  (31) 
14:0-1

>  <s_i_glide_gridfile>  (31) 
pfpi4k_grid

>  <i_i_glide_lignum>  (31) 
17

>  <i_i_glide_rotatable_bonds>  (31) 
1

>  <r_i_docking_score>  (31) 
-2.78444

>  <r_i_glide_ligand_efficiency>  (31) 
-0.116018

>  <r_i_glide_ligand_efficiency_sa>  (31) 
-0.334654

>  <r_i_glide_ligand_efficiency_ln>  (31) 
-0.666443

>  <r_i_glide_gscore>  (31) 
-2.78444

>  <r_i_glide_lipo>  (31) 
-0.451821

>  <r_i_glide_hbond>  (31) 
-0.0666309

>  <r_i_glide_metal>  (31) 
-0

>  <r_i_glide_rewards>  (31) 
-1.14328

>  <r_i_glide_evdw>  (31) 
-20.9659

>  <r_i_glide_ecoul>  (31) 
-1.39822

>  <r_i_glide_erotb>  (31) 
0.170467

>  <r_i_glide_esite>  (31) 
-0.0351487

>  <r_i_glide_emodel>  (31) 
-25.7159

>  <r_i_glide_energy>  (31) 
-22.3641

>  <r_i_glide_einternal>  (31) 
1.51235

>  <r_i_glide_intrahb_reward>  (31) 
-0

>  <i_i_glide_confnum>  (31) 
2

>  <i_i_glide_posenum>  (31) 
36

>  <r_i_glide_eff_state_penalty>  (31) 
0

>  <ligand_id>  (31) 
14

>  <original_smiles>  (31) 
C=C(C)C12OC1C(=O)OC1CC3C(C)C(=O)C4(C)CC(C3O4)C12C

>  <smiles>  (31) 
[H]C([H])=C(C([H])([H])[H])C12OC1([H])C(=O)OC1([H])C([H])([H])C3([H])C4([H])OC(C([H])([H])[H])(C(=O)C3([H])C([H])([H])[H])C([H])([H])C4([H])C12C([H])([H])[H]

$$$$
14:0:2
     RDKit          3D

 48 52  0  0  1  0  0  0  0  0999 V2000
    4.6088    0.1239   -2.7364 C   0  0  0  0  0  0  0  0  0  0  0  0
    4.0479   -0.9907   -3.1605 C   0  0  0  0  0  0  0  0  0  0  0  0
    3.3698   -0.9942   -4.5073 C   0  0  0  0  0  0  0  0  0  0  0  0
    4.0806   -2.2678   -2.3443 C   0  0  2  0  0  0  0  0  0  0  0  0
    3.8654   -3.4492   -3.1101 O   0  0  0  0  0  0  0  0  0  0  0  0
    2.7861   -3.0172   -2.2913 C   0  0  1  0  0  0  0  0  0  0  0  0
    2.5092   -3.8835   -1.1266 C   0  0  0  0  0  0  0  0  0  0  0  0
    1.4149   -4.4078   -0.9949 O   0  0  0  0  0  0  0  0  0  0  0  0
    3.5548   -4.1868   -0.2891 O   0  0  0  0  0  0  0  0  0  0  0  0
    4.9284   -3.9193   -0.6704 C   0  0  2  0  0  0  0  0  0  0  0  0
    5.8354   -4.2611    0.5494 C   0  0  0  0  0  0  0  0  0  0  0  0
    5.6009   -3.3357    1.7578 C   0  0  2  0  0  0  0  0  0  0  0  0
    4.3364   -3.6922    2.5869 C   0  0  1  0  0  0  0  0  0  0  0  0
    4.6580   -3.9803    4.0617 C   0  0  0  0  0  0  0  0  0  0  0  0
    3.2217   -2.6421    2.4984 C   0  0  0  0  0  0  0  0  0  0  0  0
    2.0531   -2.9228    2.7733 O   0  0  0  0  0  0  0  0  0  0  0  0
    3.6374   -1.2201    2.0721 C   0  0  2  0  0  0  0  0  0  0  0  0
    2.8581   -0.1294    2.8430 C   0  0  0  0  0  0  0  0  0  0  0  0
    3.5405   -1.0758    0.5473 C   0  0  0  0  0  0  0  0  0  0  0  0
    4.9505   -1.4585    0.0367 C   0  0  1  0  0  0  0  0  0  0  0  0
    5.6860   -1.8611    1.3316 C   0  0  1  0  0  0  0  0  0  0  0  0
    5.0244   -1.0590    2.3094 O   0  0  0  0  0  0  0  0  0  0  0  0
    5.0972   -2.4771   -1.1728 C   0  0  2  0  0  0  0  0  0  0  0  0
    6.5041   -2.4031   -1.7738 C   0  0  0  0  0  0  0  0  0  0  0  0
    4.5056    1.0245   -3.3485 H   0  0  0  0  0  0  0  0  0  0  0  0
    5.1245    0.1316   -1.8235 H   0  0  0  0  0  0  0  0  0  0  0  0
    3.6325   -1.8939   -5.0969 H   0  0  0  0  0  0  0  0  0  0  0  0
    3.7010   -0.1272   -5.0825 H   0  0  0  0  0  0  0  0  0  0  0  0
    2.2744   -0.9391   -4.4016 H   0  0  0  0  0  0  0  0  0  0  0  0
    1.9206   -2.7471   -2.8933 H   0  0  0  0  0  0  0  0  0  0  0  0
    5.1944   -4.6323   -1.4535 H   0  0  0  0  0  0  0  0  0  0  0  0
    5.6845   -5.2971    0.8572 H   0  0  0  0  0  0  0  0  0  0  0  0
    6.8813   -4.1954    0.2472 H   0  0  0  0  0  0  0  0  0  0  0  0
    6.4479   -3.4874    2.4232 H   0  0  0  0  0  0  0  0  0  0  0  0
    3.9096   -4.6150    2.1749 H   0  0  0  0  0  0  0  0  0  0  0  0
    3.7727   -4.3548    4.5788 H   0  0  0  0  0  0  0  0  0  0  0  0
    4.9898   -3.0799    4.5822 H   0  0  0  0  0  0  0  0  0  0  0  0
    5.4336   -4.7367    4.1526 H   0  0  0  0  0  0  0  0  0  0  0  0
    1.7782   -0.1716    2.6284 H   0  0  0  0  0  0  0  0  0  0  0  0
    3.2105    0.8628    2.5797 H   0  0  0  0  0  0  0  0  0  0  0  0
    2.9891   -0.2649    3.9081 H   0  0  0  0  0  0  0  0  0  0  0  0
    2.7049   -1.6364    0.1425 H   0  0  0  0  0  0  0  0  0  0  0  0
    3.3560   -0.0458    0.2671 H   0  0  0  0  0  0  0  0  0  0  0  0
    5.4560   -0.5347   -0.1609 H   0  0  0  0  0  0  0  0  0  0  0  0
    6.7204   -1.5688    1.2469 H   0  0  0  0  0  0  0  0  0  0  0  0
    7.2849   -2.4648   -1.0248 H   0  0  0  0  0  0  0  0  0  0  0  0
    6.6302   -1.4632   -2.2984 H   0  0  0  0  0  0  0  0  0  0  0  0
    6.6750   -3.1934   -2.5134 H   0  0  0  0  0  0  0  0  0  0  0  0
  1  2  2  0
  1 25  1  0
  1 26  1  0
  2  3  1  0
  4  2  1  6
  3 27  1  0
  3 28  1  0
  3 29  1  0
  4  6  1  0
  4 23  1  0
  4  5  1  0
  5  6  1  0
  6  7  1  0
  6 30  1  6
  7  8  2  0
  7  9  1  0
  9 10  1  0
 10 23  1  0
 10 11  1  0
 10 31  1  6
 11 12  1  0
 11 32  1  0
 11 33  1  0
 12 21  1  0
 12 13  1  0
 12 34  1  1
 13 14  1  0
 13 15  1  0
 13 35  1  6
 14 36  1  0
 14 37  1  0
 14 38  1  0
 15 16  2  0
 15 17  1  0
 17 22  1  0
 17 18  1  1
 17 19  1  0
 18 39  1  0
 18 40  1  0
 18 41  1  0
 19 20  1  0
 19 42  1  0
 19 43  1  0
 20 21  1  0
 20 23  1  0
 20 44  1  6
 21 22  1  0
 21 45  1  6
 23 24  1  6
 24 46  1  0
 24 47  1  0
 24 48  1  0
M  END
>  <i_m_ct_stereo_status>  (32) 
1

>  <s_m_source_file>  (32) 
/var/tmp/pbs.5076255.sched01/tmppz0entnt/04_lepiep.sdf

>  <i_m_source_file_index>  (32) 
17

>  <i_lp_mmshare_version>  (32) 
48012

>  <i_f3d_flags>  (32) 
0

>  <s_epik_input>  (32) 
W0NIMl09QyhbQ0gzXSlbQ0BAXTEyW0NAQEhdKE8xKUMoPU8pT1tDQEhdM1tDQF0yKFtDSDNdKVtDQEBIXTRbQ0BASF01W0NASF0oW0NIMl0zKVtDQEBIXShbQ0gzXSlDKD1PKVtDQF0oTzUpKFtDSDNdKVtDSDJdNA==

>  <s_epik_cmdline>  (32) 
J2VwaWtfcHl0aG9uJywgJy1waHQnLCAnMi4wJywgJy1waCcsICc3LjAnLCAnLXRuJywgJzgnLCAnLW1hJywgJzIwMCcsICctaW1hZScsICc8aW5maWxlLm1hZT4nLCAnLW9tYWUnLCAnPG91dGZpbGUubWFlPic=

>  <r_lp_tautomer_probability>  (32) 
1

>  <r_epik_Ionization_Penalty>  (32) 
2.4408e-12

>  <r_epik_Ionization_Penalty_Charging>  (32) 
0

>  <r_epik_Ionization_Penalty_Neutral>  (32) 
2.4408e-12

>  <r_epik_State_Penalty>  (32) 
-0

>  <r_epik_Charging_Adjusted_Penalty>  (32) 
0

>  <i_epik_Tot_Q>  (32) 
0

>  <i_epik_Tot_abs_Q>  (32) 
0

>  <s_epik_Chemistry_Notes>  (32) 
This compound has an ester and may undergo hydrolysis at high or low pH.

>  <s_lp_Force_Field>  (32) 
OPLS3e

>  <r_lp_Energy>  (32) 
42.3585

>  <b_lp_Chiralities_Consistent>  (32) 
1

>  <s_lp_Variant>  (32) 
14:0-1

>  <s_i_glide_gridfile>  (32) 
pfpi4k_grid

>  <i_i_glide_lignum>  (32) 
17

>  <i_i_glide_rotatable_bonds>  (32) 
1

>  <r_i_docking_score>  (32) 
-2.5432

>  <r_i_glide_ligand_efficiency>  (32) 
-0.105967

>  <r_i_glide_ligand_efficiency_sa>  (32) 
-0.305661

>  <r_i_glide_ligand_efficiency_ln>  (32) 
-0.608704

>  <r_i_glide_gscore>  (32) 
-2.5432

>  <r_i_glide_lipo>  (32) 
-0.517438

>  <r_i_glide_hbond>  (32) 
0

>  <r_i_glide_metal>  (32) 
-0

>  <r_i_glide_rewards>  (32) 
-1.14289

>  <r_i_glide_evdw>  (32) 
-19.739

>  <r_i_glide_ecoul>  (32) 
-0.277075

>  <r_i_glide_erotb>  (32) 
0.170467

>  <r_i_glide_esite>  (32) 
-0.0248233

>  <r_i_glide_emodel>  (32) 
-21.6773

>  <r_i_glide_energy>  (32) 
-20.0161

>  <r_i_glide_einternal>  (32) 
2.0679

>  <r_i_glide_intrahb_reward>  (32) 
-0

>  <i_i_glide_confnum>  (32) 
6

>  <i_i_glide_posenum>  (32) 
28

>  <r_i_glide_eff_state_penalty>  (32) 
0

>  <ligand_id>  (32) 
14

>  <original_smiles>  (32) 
C=C(C)C12OC1C(=O)OC1CC3C(C)C(=O)C4(C)CC(C3O4)C12C

>  <smiles>  (32) 
[H]C([H])=C(C([H])([H])[H])C12OC1([H])C(=O)OC1([H])C([H])([H])C3([H])C4([H])OC(C([H])([H])[H])(C(=O)C3([H])C([H])([H])[H])C([H])([H])C4([H])C12C([H])([H])[H]

$$$$
15:0:0
     RDKit          3D

 43 46  0  0  1  0  0  0  0  0999 V2000
    3.7602    0.2651   -3.7211 C   0  0  0  0  0  0  0  0  0  0  0  0
    4.3597   -0.3161   -2.6699 C   0  0  0  0  0  0  0  0  0  0  0  0
    3.6616   -1.1228   -1.5883 C   0  0  2  0  0  0  0  0  0  0  0  0
    4.3425   -0.7767    0.0637 C   0  0  1  0  0  0  0  0  0  0  0  0
    3.2003   -0.7522    1.1225 C   0  0  0  0  0  0  0  0  0  0  0  0
    2.7266   -2.2142    1.3170 C   0  0  0  0  0  0  0  0  0  0  0  0
    3.3391   -2.8700    0.0219 C   0  0  2  0  0  0  0  0  0  0  0  0
    3.1717   -3.9708   -0.7098 C   0  0  2  0  0  0  0  0  0  0  0  0
    4.0895   -4.5805    0.5608 C   0  0  0  0  0  0  0  0  0  0  0  0
    5.2074   -3.5378    1.3551 C   0  0  0  0  0  0  0  0  0  0  0  0
    5.4155   -1.9762    0.7527 C   0  0  2  0  0  0  0  0  0  0  0  0
    6.8556   -1.4602    0.9276 C   0  0  0  0  0  0  0  0  0  0  0  0
    5.1018   -2.6143   -0.3856 C   0  0  1  0  0  0  0  0  0  0  0  0
    5.8029   -3.5500   -1.4226 C   0  0  0  0  0  0  0  0  0  0  0  0
    4.8110   -3.4411   -2.6031 C   0  0  0  0  0  0  0  0  0  0  0  0
    3.4718   -2.8701   -2.0354 C   0  0  2  0  0  0  0  0  0  0  0  0
    2.3760   -3.0269   -3.1093 C   0  0  0  0  0  0  0  0  0  0  0  0
    2.6932    0.1802   -3.8773 H   0  0  0  0  0  0  0  0  0  0  0  0
    4.3163    0.8442   -4.4426 H   0  0  0  0  0  0  0  0  0  0  0  0
    5.4191   -0.2125   -2.5424 H   0  0  0  0  0  0  0  0  0  0  0  0
    2.6608   -0.6925   -1.6075 H   0  0  0  0  0  0  0  0  0  0  0  0
    4.8200    0.1991    0.0784 H   0  0  0  0  0  0  0  0  0  0  0  0
    3.5435   -0.3314    2.0692 H   0  0  0  0  0  0  0  0  0  0  0  0
    2.3792   -0.1240    0.7771 H   0  0  0  0  0  0  0  0  0  0  0  0
    3.0808   -2.6085    2.2683 H   0  0  0  0  0  0  0  0  0  0  0  0
    1.6347   -2.2557    1.4003 H   0  0  0  0  0  0  0  0  0  0  0  0
    2.3936   -2.4165   -0.3422 H   0  0  0  0  0  0  0  0  0  0  0  0
    2.1523   -4.3655   -0.7004 H   0  0  0  0  0  0  0  0  0  0  0  0
    3.4030   -4.9570    1.3220 H   0  0  0  0  0  0  0  0  0  0  0  0
    4.5924   -5.4911    0.2374 H   0  0  0  0  0  0  0  0  0  0  0  0
    4.9801   -3.4893    2.4212 H   0  0  0  0  0  0  0  0  0  0  0  0
    6.1749   -4.0483    1.3499 H   0  0  0  0  0  0  0  0  0  0  0  0
    7.5907   -2.2544    0.7880 H   0  0  0  0  0  0  0  0  0  0  0  0
    6.9833   -1.0691    1.9375 H   0  0  0  0  0  0  0  0  0  0  0  0
    7.0920   -0.6502    0.2409 H   0  0  0  0  0  0  0  0  0  0  0  0
    5.6457   -1.9081   -1.0485 H   0  0  0  0  0  0  0  0  0  0  0  0
    6.8136   -3.2560   -1.7217 H   0  0  0  0  0  0  0  0  0  0  0  0
    5.8945   -4.5855   -1.1154 H   0  0  0  0  0  0  0  0  0  0  0  0
    5.2023   -2.7957   -3.3884 H   0  0  0  0  0  0  0  0  0  0  0  0
    4.6567   -4.4253   -3.0506 H   0  0  0  0  0  0  0  0  0  0  0  0
    2.2480   -4.0679   -3.4087 H   0  0  0  0  0  0  0  0  0  0  0  0
    2.6010   -2.4521   -4.0078 H   0  0  0  0  0  0  0  0  0  0  0  0
    1.4195   -2.6864   -2.7203 H   0  0  0  0  0  0  0  0  0  0  0  0
  1  2  2  0
  1 18  1  0
  1 19  1  0
  2  3  1  0
  2 20  1  0
  3 16  1  0
  3  4  1  0
  3 21  1  1
  4 11  1  0
  4  5  1  0
  4 22  1  6
  5  6  1  0
  5 23  1  0
  5 24  1  0
  6  7  1  0
  6 25  1  0
  6 26  1  0
  7 13  1  0
  7  8  1  0
  7 27  1  6
  8 16  1  0
  8  9  1  0
  8 28  1  6
  9 10  1  0
  9 29  1  0
  9 30  1  0
 10 11  1  0
 10 31  1  0
 10 32  1  0
 11 12  1  6
 11 13  1  0
 12 33  1  0
 12 34  1  0
 12 35  1  0
 13 14  1  0
 13 36  1  6
 14 15  1  0
 14 37  1  0
 14 38  1  0
 15 16  1  0
 15 39  1  0
 15 40  1  0
 16 17  1  6
 17 41  1  0
 17 42  1  0
 17 43  1  0
M  END
>  <i_m_ct_stereo_status>  (33) 
1

>  <s_m_source_file>  (33) 
/var/tmp/pbs.5076255.sched01/tmppz0entnt/04_lepiep.sdf

>  <i_m_source_file_index>  (33) 
18

>  <i_lp_mmshare_version>  (33) 
48012

>  <i_f3d_flags>  (33) 
0

>  <s_epik_input>  (33) 
W0NIM11bQ0BdMTJbQ0BIXTNbQ0BASF0oW0NIXT1bQ0gyXSlbQ0BdNChbQ0gzXSlbQ0BASF0oW0NIMl1bQ0gyXTEpW0NASF0oW0NIMl1bQ0gyXTMpW0NASF0yW0NIMl1bQ0gyXTQ=

>  <s_epik_cmdline>  (33) 
J2VwaWtfcHl0aG9uJywgJy1waHQnLCAnMi4wJywgJy1waCcsICc3LjAnLCAnLXRuJywgJzgnLCAnLW1hJywgJzIwMCcsICctaW1hZScsICc8aW5maWxlLm1hZT4nLCAnLW9tYWUnLCAnPG91dGZpbGUubWFlPic=

>  <r_lp_tautomer_probability>  (33) 
1

>  <r_epik_Ionization_Penalty>  (33) 
0

>  <r_epik_Ionization_Penalty_Charging>  (33) 
0

>  <r_epik_Ionization_Penalty_Neutral>  (33) 
0

>  <r_epik_State_Penalty>  (33) 
-0

>  <r_epik_Charging_Adjusted_Penalty>  (33) 
0

>  <i_epik_Tot_Q>  (33) 
0

>  <i_epik_Tot_abs_Q>  (33) 
0

>  <s_lp_Force_Field>  (33) 
OPLS3e

>  <r_lp_Energy>  (33) 
534.492

>  <b_lp_Chiralities_Consistent>  (33) 
1

>  <s_lp_Variant>  (33) 
15:0-1

>  <s_i_glide_gridfile>  (33) 
pfpi4k_grid

>  <i_i_glide_lignum>  (33) 
18

>  <i_i_glide_rotatable_bonds>  (33) 
1

>  <r_i_docking_score>  (33) 
-3.22159

>  <r_i_glide_ligand_efficiency>  (33) 
-0.189506

>  <r_i_glide_ligand_efficiency_sa>  (33) 
-0.487272

>  <r_i_glide_ligand_efficiency_ln>  (33) 
-0.840442

>  <r_i_glide_gscore>  (33) 
-3.22159

>  <r_i_glide_lipo>  (33) 
-0.607513

>  <r_i_glide_hbond>  (33) 
0

>  <r_i_glide_metal>  (33) 
-0

>  <r_i_glide_rewards>  (33) 
-1.83826

>  <r_i_glide_evdw>  (33) 
-21.5507

>  <r_i_glide_ecoul>  (33) 
-0.134384

>  <r_i_glide_erotb>  (33) 
0.32187

>  <r_i_glide_esite>  (33) 
0

>  <r_i_glide_emodel>  (33) 
-25.0329

>  <r_i_glide_energy>  (33) 
-21.685

>  <r_i_glide_einternal>  (33) 
0.927208

>  <r_i_glide_intrahb_reward>  (33) 
-0

>  <i_i_glide_confnum>  (33) 
5

>  <i_i_glide_posenum>  (33) 
38

>  <r_i_glide_eff_state_penalty>  (33) 
0

>  <ligand_id>  (33) 
15

>  <original_smiles>  (33) 
C=CC1C2CCC3C4CCC2(C)C3CCC14C

>  <smiles>  (33) 
[H]C([H])=C([H])C1([H])C2([H])C([H])([H])C([H])([H])C3([H])C4([H])C([H])([H])C([H])([H])C2(C([H])([H])[H])C3([H])C([H])([H])C([H])([H])C14C([H])([H])[H]

$$$$
15:0:1
     RDKit          3D

 43 46  0  0  1  0  0  0  0  0999 V2000
    2.0030   -2.9675   -3.5343 C   0  0  0  0  0  0  0  0  0  0  0  0
    2.5497   -2.4903   -2.4089 C   0  0  0  0  0  0  0  0  0  0  0  0
    3.5073   -3.2498   -1.5045 C   0  0  2  0  0  0  0  0  0  0  0  0
    2.8758   -3.4541    0.1744 C   0  0  1  0  0  0  0  0  0  0  0  0
    3.2408   -4.8635    0.7103 C   0  0  0  0  0  0  0  0  0  0  0  0
    4.7617   -4.8479    0.9979 C   0  0  0  0  0  0  0  0  0  0  0  0
    5.1837   -3.5772    0.1724 C   0  0  2  0  0  0  0  0  0  0  0  0
    6.2841   -3.0366   -0.3452 C   0  0  2  0  0  0  0  0  0  0  0  0
    6.4332   -2.5812    1.2574 C   0  0  0  0  0  0  0  0  0  0  0  0
    5.0130   -2.3147    2.1928 C   0  0  0  0  0  0  0  0  0  0  0  0
    3.5208   -2.4264    1.4287 C   0  0  2  0  0  0  0  0  0  0  0  0
    2.4834   -1.4537    2.0268 C   0  0  0  0  0  0  0  0  0  0  0  0
    4.2645   -2.0022    0.4026 C   0  0  1  0  0  0  0  0  0  0  0  0
    4.9021   -0.6725   -0.0959 C   0  0  0  0  0  0  0  0  0  0  0  0
    5.2052   -1.0719   -1.5552 C   0  0  0  0  0  0  0  0  0  0  0  0
    5.1915   -2.6265   -1.6397 C   0  0  2  0  0  0  0  0  0  0  0  0
    5.7772   -3.0664   -2.9769 C   0  0  0  0  0  0  0  0  0  0  0  0
    2.2203   -3.9621   -3.9012 H   0  0  0  0  0  0  0  0  0  0  0  0
    1.3182   -2.3661   -4.1124 H   0  0  0  0  0  0  0  0  0  0  0  0
    2.2919   -1.4857   -2.1186 H   0  0  0  0  0  0  0  0  0  0  0  0
    3.5221   -4.2566   -1.9218 H   0  0  0  0  0  0  0  0  0  0  0  0
    1.8128   -3.3454    0.1273 H   0  0  0  0  0  0  0  0  0  0  0  0
    2.6829   -5.0979    1.6174 H   0  0  0  0  0  0  0  0  0  0  0  0
    2.9913   -5.6232   -0.0303 H   0  0  0  0  0  0  0  0  0  0  0  0
    4.9431   -4.8020    2.0715 H   0  0  0  0  0  0  0  0  0  0  0  0
    5.2352   -5.7865    0.6823 H   0  0  0  0  0  0  0  0  0  0  0  0
    5.1537   -4.3855   -0.5849 H   0  0  0  0  0  0  0  0  0  0  0  0
    7.0367   -3.7778   -0.6278 H   0  0  0  0  0  0  0  0  0  0  0  0
    7.0031   -3.3600    1.7602 H   0  0  0  0  0  0  0  0  0  0  0  0
    7.0809   -1.7102    1.3205 H   0  0  0  0  0  0  0  0  0  0  0  0
    5.0190   -2.9586    3.0701 H   0  0  0  0  0  0  0  0  0  0  0  0
    5.1064   -1.3197    2.6306 H   0  0  0  0  0  0  0  0  0  0  0  0
    2.9285   -0.4989    2.3093 H   0  0  0  0  0  0  0  0  0  0  0  0
    2.0337   -1.8823    2.9218 H   0  0  0  0  0  0  0  0  0  0  0  0
    1.6749   -1.2385    1.3280 H   0  0  0  0  0  0  0  0  0  0  0  0
    3.4272   -1.5187   -0.1391 H   0  0  0  0  0  0  0  0  0  0  0  0
    4.2275    0.1859   -0.0437 H   0  0  0  0  0  0  0  0  0  0  0  0
    5.8046   -0.3370    0.4113 H   0  0  0  0  0  0  0  0  0  0  0  0
    4.4951   -0.6270   -2.2491 H   0  0  0  0  0  0  0  0  0  0  0  0
    6.1837   -0.7113   -1.8354 H   0  0  0  0  0  0  0  0  0  0  0  0
    6.7940   -2.6923   -3.0697 H   0  0  0  0  0  0  0  0  0  0  0  0
    5.1897   -2.6871   -3.8142 H   0  0  0  0  0  0  0  0  0  0  0  0
    5.8164   -4.1534   -3.0572 H   0  0  0  0  0  0  0  0  0  0  0  0
  1  2  2  0
  1 18  1  0
  1 19  1  0
  2  3  1  0
  2 20  1  0
  3 16  1  0
  3  4  1  0
  3 21  1  6
  4 11  1  0
  4  5  1  0
  4 22  1  6
  5  6  1  0
  5 23  1  0
  5 24  1  0
  6  7  1  0
  6 25  1  0
  6 26  1  0
  7 13  1  0
  7  8  1  0
  7 27  1  6
  8 16  1  0
  8  9  1  0
  8 28  1  6
  9 10  1  0
  9 29  1  0
  9 30  1  0
 10 11  1  0
 10 31  1  0
 10 32  1  0
 11 12  1  1
 11 13  1  0
 12 33  1  0
 12 34  1  0
 12 35  1  0
 13 14  1  0
 13 36  1  6
 14 15  1  0
 14 37  1  0
 14 38  1  0
 15 16  1  0
 15 39  1  0
 15 40  1  0
 16 17  1  6
 17 41  1  0
 17 42  1  0
 17 43  1  0
M  END
>  <i_m_ct_stereo_status>  (34) 
1

>  <s_m_source_file>  (34) 
/var/tmp/pbs.5076255.sched01/tmppz0entnt/04_lepiep.sdf

>  <i_m_source_file_index>  (34) 
18

>  <i_lp_mmshare_version>  (34) 
48012

>  <i_f3d_flags>  (34) 
0

>  <s_epik_input>  (34) 
W0NIM11bQ0BdMTJbQ0BIXTNbQ0BASF0oW0NIXT1bQ0gyXSlbQ0BdNChbQ0gzXSlbQ0BASF0oW0NIMl1bQ0gyXTEpW0NASF0oW0NIMl1bQ0gyXTMpW0NASF0yW0NIMl1bQ0gyXTQ=

>  <s_epik_cmdline>  (34) 
J2VwaWtfcHl0aG9uJywgJy1waHQnLCAnMi4wJywgJy1waCcsICc3LjAnLCAnLXRuJywgJzgnLCAnLW1hJywgJzIwMCcsICctaW1hZScsICc8aW5maWxlLm1hZT4nLCAnLW9tYWUnLCAnPG91dGZpbGUubWFlPic=

>  <r_lp_tautomer_probability>  (34) 
1

>  <r_epik_Ionization_Penalty>  (34) 
0

>  <r_epik_Ionization_Penalty_Charging>  (34) 
0

>  <r_epik_Ionization_Penalty_Neutral>  (34) 
0

>  <r_epik_State_Penalty>  (34) 
-0

>  <r_epik_Charging_Adjusted_Penalty>  (34) 
0

>  <i_epik_Tot_Q>  (34) 
0

>  <i_epik_Tot_abs_Q>  (34) 
0

>  <s_lp_Force_Field>  (34) 
OPLS3e

>  <r_lp_Energy>  (34) 
534.492

>  <b_lp_Chiralities_Consistent>  (34) 
1

>  <s_lp_Variant>  (34) 
15:0-1

>  <s_i_glide_gridfile>  (34) 
pfpi4k_grid

>  <i_i_glide_lignum>  (34) 
18

>  <i_i_glide_rotatable_bonds>  (34) 
1

>  <r_i_docking_score>  (34) 
-3.22152

>  <r_i_glide_ligand_efficiency>  (34) 
-0.189501

>  <r_i_glide_ligand_efficiency_sa>  (34) 
-0.487262

>  <r_i_glide_ligand_efficiency_ln>  (34) 
-0.840424

>  <r_i_glide_gscore>  (34) 
-3.22152

>  <r_i_glide_lipo>  (34) 
-0.681048

>  <r_i_glide_hbond>  (34) 
0

>  <r_i_glide_metal>  (34) 
-0

>  <r_i_glide_rewards>  (34) 
-1.83826

>  <r_i_glide_evdw>  (34) 
-18.0787

>  <r_i_glide_ecoul>  (34) 
-0.800998

>  <r_i_glide_erotb>  (34) 
0.32187

>  <r_i_glide_esite>  (34) 
0

>  <r_i_glide_emodel>  (34) 
-22.7624

>  <r_i_glide_energy>  (34) 
-18.8797

>  <r_i_glide_einternal>  (34) 
0.0636694

>  <r_i_glide_intrahb_reward>  (34) 
-0

>  <i_i_glide_confnum>  (34) 
4

>  <i_i_glide_posenum>  (34) 
12

>  <r_i_glide_eff_state_penalty>  (34) 
0

>  <ligand_id>  (34) 
15

>  <original_smiles>  (34) 
C=CC1C2CCC3C4CCC2(C)C3CCC14C

>  <smiles>  (34) 
[H]C([H])=C([H])C1([H])C2([H])C([H])([H])C([H])([H])C3([H])C4([H])C([H])([H])C([H])([H])C2(C([H])([H])[H])C3([H])C([H])([H])C([H])([H])C14C([H])([H])[H]

$$$$
15:0:2
     RDKit          3D

 43 46  0  0  1  0  0  0  0  0999 V2000
    4.7025   -1.9547   -2.4657 C   0  0  0  0  0  0  0  0  0  0  0  0
    4.8391   -3.1637   -1.8544 C   0  0  0  0  0  0  0  0  0  0  0  0
    5.3819   -3.4644   -0.4536 C   0  0  2  0  0  0  0  0  0  0  0  0
    4.8551   -5.1283    0.0818 C   0  0  1  0  0  0  0  0  0  0  0  0
    6.0183   -5.8437    0.8433 C   0  0  0  0  0  0  0  0  0  0  0  0
    6.1775   -5.1498    2.2144 C   0  0  0  0  0  0  0  0  0  0  0  0
    5.3990   -3.8092    1.9256 C   0  0  2  0  0  0  0  0  0  0  0  0
    5.2855   -2.5936    2.4475 C   0  0  2  0  0  0  0  0  0  0  0  0
    4.3187   -3.4615    3.5118 C   0  0  0  0  0  0  0  0  0  0  0  0
    3.4786   -4.8504    2.9284 C   0  0  0  0  0  0  0  0  0  0  0  0
    3.5879   -5.2135    1.2898 C   0  0  2  0  0  0  0  0  0  0  0  0
    2.2961   -5.8656    0.7618 C   0  0  0  0  0  0  0  0  0  0  0  0
    3.7063   -3.8797    1.2121 C   0  0  1  0  0  0  0  0  0  0  0  0
    2.7844   -2.6193    1.3235 C   0  0  0  0  0  0  0  0  0  0  0  0
    3.7322   -1.5452    0.7437 C   0  0  0  0  0  0  0  0  0  0  0  0
    5.1924   -2.1241    0.7670 C   0  0  2  0  0  0  0  0  0  0  0  0
    6.2347   -1.0018    0.5610 C   0  0  0  0  0  0  0  0  0  0  0  0
    4.9715   -1.0220   -1.9933 H   0  0  0  0  0  0  0  0  0  0  0  0
    4.3054   -1.9035   -3.4727 H   0  0  0  0  0  0  0  0  0  0  0  0
    4.5373   -4.0378   -2.4077 H   0  0  0  0  0  0  0  0  0  0  0  0
    6.4490   -3.5736   -0.6536 H   0  0  0  0  0  0  0  0  0  0  0  0
    4.5995   -5.7301   -0.7773 H   0  0  0  0  0  0  0  0  0  0  0  0
    5.8068   -6.9099    0.9770 H   0  0  0  0  0  0  0  0  0  0  0  0
    6.9400   -5.7707    0.2658 H   0  0  0  0  0  0  0  0  0  0  0  0
    5.7856   -5.7854    3.0092 H   0  0  0  0  0  0  0  0  0  0  0  0
    7.2381   -5.0286    2.4674 H   0  0  0  0  0  0  0  0  0  0  0  0
    6.3993   -3.6173    1.4978 H   0  0  0  0  0  0  0  0  0  0  0  0
    6.2006   -2.2455    2.9335 H   0  0  0  0  0  0  0  0  0  0  0  0
    4.9410   -3.7961    4.3396 H   0  0  0  0  0  0  0  0  0  0  0  0
    3.6128   -2.7891    3.9944 H   0  0  0  0  0  0  0  0  0  0  0  0
    3.7561   -5.7262    3.5183 H   0  0  0  0  0  0  0  0  0  0  0  0
    2.4262   -4.7085    3.1841 H   0  0  0  0  0  0  0  0  0  0  0  0
    1.4130   -5.4321    1.2283 H   0  0  0  0  0  0  0  0  0  0  0  0
    2.2951   -6.9323    0.9924 H   0  0  0  0  0  0  0  0  0  0  0  0
    2.2051   -5.7610   -0.3206 H   0  0  0  0  0  0  0  0  0  0  0  0
    3.3024   -3.7909    0.1865 H   0  0  0  0  0  0  0  0  0  0  0  0
    1.8650   -2.6835    0.7323 H   0  0  0  0  0  0  0  0  0  0  0  0
    2.4489   -2.3407    2.3206 H   0  0  0  0  0  0  0  0  0  0  0  0
    3.4043   -1.3021   -0.2631 H   0  0  0  0  0  0  0  0  0  0  0  0
    3.6578   -0.6257    1.3245 H   0  0  0  0  0  0  0  0  0  0  0  0
    6.0910   -0.2362    1.3264 H   0  0  0  0  0  0  0  0  0  0  0  0
    6.1752   -0.4795   -0.3916 H   0  0  0  0  0  0  0  0  0  0  0  0
    7.2576   -1.3824    0.6726 H   0  0  0  0  0  0  0  0  0  0  0  0
  1  2  2  0
  1 18  1  0
  1 19  1  0
  2  3  1  0
  2 20  1  0
  3 16  1  0
  3  4  1  0
  3 21  1  6
  4 11  1  0
  4  5  1  0
  4 22  1  6
  5  6  1  0
  5 23  1  0
  5 24  1  0
  6  7  1  0
  6 25  1  0
  6 26  1  0
  7 13  1  0
  7  8  1  0
  7 27  1  6
  8 16  1  0
  8  9  1  0
  8 28  1  1
  9 10  1  0
  9 29  1  0
  9 30  1  0
 10 11  1  0
 10 31  1  0
 10 32  1  0
 11 12  1  6
 11 13  1  0
 12 33  1  0
 12 34  1  0
 12 35  1  0
 13 14  1  0
 13 36  1  6
 14 15  1  0
 14 37  1  0
 14 38  1  0
 15 16  1  0
 15 39  1  0
 15 40  1  0
 16 17  1  6
 17 41  1  0
 17 42  1  0
 17 43  1  0
M  END
>  <i_m_ct_stereo_status>  (35) 
1

>  <s_m_source_file>  (35) 
/var/tmp/pbs.5076255.sched01/tmppz0entnt/04_lepiep.sdf

>  <i_m_source_file_index>  (35) 
18

>  <i_lp_mmshare_version>  (35) 
48012

>  <i_f3d_flags>  (35) 
0

>  <s_epik_input>  (35) 
W0NIM11bQ0BdMTJbQ0BIXTNbQ0BASF0oW0NIXT1bQ0gyXSlbQ0BdNChbQ0gzXSlbQ0BASF0oW0NIMl1bQ0gyXTEpW0NASF0oW0NIMl1bQ0gyXTMpW0NASF0yW0NIMl1bQ0gyXTQ=

>  <s_epik_cmdline>  (35) 
J2VwaWtfcHl0aG9uJywgJy1waHQnLCAnMi4wJywgJy1waCcsICc3LjAnLCAnLXRuJywgJzgnLCAnLW1hJywgJzIwMCcsICctaW1hZScsICc8aW5maWxlLm1hZT4nLCAnLW9tYWUnLCAnPG91dGZpbGUubWFlPic=

>  <r_lp_tautomer_probability>  (35) 
1

>  <r_epik_Ionization_Penalty>  (35) 
0

>  <r_epik_Ionization_Penalty_Charging>  (35) 
0

>  <r_epik_Ionization_Penalty_Neutral>  (35) 
0

>  <r_epik_State_Penalty>  (35) 
-0

>  <r_epik_Charging_Adjusted_Penalty>  (35) 
0

>  <i_epik_Tot_Q>  (35) 
0

>  <i_epik_Tot_abs_Q>  (35) 
0

>  <s_lp_Force_Field>  (35) 
OPLS3e

>  <r_lp_Energy>  (35) 
534.492

>  <b_lp_Chiralities_Consistent>  (35) 
1

>  <s_lp_Variant>  (35) 
15:0-1

>  <s_i_glide_gridfile>  (35) 
pfpi4k_grid

>  <i_i_glide_lignum>  (35) 
18

>  <i_i_glide_rotatable_bonds>  (35) 
1

>  <r_i_docking_score>  (35) 
-2.96314

>  <r_i_glide_ligand_efficiency>  (35) 
-0.174302

>  <r_i_glide_ligand_efficiency_sa>  (35) 
-0.448181

>  <r_i_glide_ligand_efficiency_ln>  (35) 
-0.773018

>  <r_i_glide_gscore>  (35) 
-2.96314

>  <r_i_glide_lipo>  (35) 
-0.514212

>  <r_i_glide_hbond>  (35) 
0

>  <r_i_glide_metal>  (35) 
-0

>  <r_i_glide_rewards>  (35) 
-1.83826

>  <r_i_glide_evdw>  (35) 
-18.3977

>  <r_i_glide_ecoul>  (35) 
-0.0843557

>  <r_i_glide_erotb>  (35) 
0.32187

>  <r_i_glide_esite>  (35) 
0

>  <r_i_glide_emodel>  (35) 
-20.7822

>  <r_i_glide_energy>  (35) 
-18.4821

>  <r_i_glide_einternal>  (35) 
2.35728

>  <r_i_glide_intrahb_reward>  (35) 
-0

>  <i_i_glide_confnum>  (35) 
2

>  <i_i_glide_posenum>  (35) 
24

>  <r_i_glide_eff_state_penalty>  (35) 
0

>  <ligand_id>  (35) 
15

>  <original_smiles>  (35) 
C=CC1C2CCC3C4CCC2(C)C3CCC14C

>  <smiles>  (35) 
[H]C([H])=C([H])C1([H])C2([H])C([H])([H])C([H])([H])C3([H])C4([H])C([H])([H])C([H])([H])C2(C([H])([H])[H])C3([H])C([H])([H])C([H])([H])C14C([H])([H])[H]

$$$$
17:0:0
     RDKit          3D

 64 68  0  0  1  0  0  0  0  0999 V2000
    2.2073  -11.4231    3.4866 C   0  0  0  0  0  0  0  0  0  0  0  0
    1.4818  -10.1304    3.8664 C   0  0  0  0  0  0  0  0  0  0  0  0
    0.2631  -10.1107    3.9996 O   0  0  0  0  0  0  0  0  0  0  0  0
    2.2568   -9.0385    4.0418 O   0  0  0  0  0  0  0  0  0  0  0  0
    3.6074   -8.9757    3.6103 C   0  0  2  0  0  0  0  0  0  0  0  0
    4.3581   -7.8775    4.3395 C   0  0  0  0  0  0  0  0  0  0  0  0
    5.2289   -7.0396    3.7517 C   0  0  0  0  0  0  0  0  0  0  0  0
    5.7970   -5.8476    4.4936 C   0  0  0  0  0  0  0  0  0  0  0  0
    5.2353   -4.5755    3.8532 C   0  0  0  0  0  0  0  0  0  0  0  0
    5.5361   -4.4952    2.3367 C   0  0  1  0  0  0  0  0  0  0  0  0
    5.0623   -5.7868    1.6041 C   0  0  1  0  0  0  0  0  0  0  0  0
    5.3978   -5.6537    0.1128 C   0  0  0  0  0  0  0  0  0  0  0  0
    4.7620   -4.4177   -0.5110 C   0  0  0  0  0  0  0  0  0  0  0  0
    5.1915   -3.0821    0.1407 C   0  0  1  0  0  0  0  0  0  0  0  0
    6.6478   -2.7633   -0.2718 C   0  0  0  0  0  0  0  0  0  0  0  0
    4.2238   -1.9277   -0.2564 C   0  0  1  0  0  0  0  0  0  0  0  0
    3.8771   -1.7733   -1.7407 C   0  0  0  0  0  0  0  0  0  0  0  0
    3.0081   -2.7352   -2.5156 C   0  0  0  0  0  0  0  0  0  0  0  0
    2.9664   -2.1628   -3.8109 O   0  0  0  0  0  0  0  0  0  0  0  0
    3.6638   -1.0091   -3.8722 C   0  0  0  0  0  0  0  0  0  0  0  0
    3.8174   -0.3170   -4.8765 O   0  0  0  0  0  0  0  0  0  0  0  0
    4.2224   -0.7652   -2.5468 C   0  0  0  0  0  0  0  0  0  0  0  0
    3.0103   -2.1047    0.6755 C   0  0  0  0  0  0  0  0  0  0  0  0
    3.4950   -2.9019    1.9013 C   0  0  0  0  0  0  0  0  0  0  0  0
    4.9955   -3.1776    1.6889 C   0  0  1  0  0  0  0  0  0  0  0  0
    5.6838   -2.1003    2.3030 O   0  0  0  0  0  0  0  0  0  0  0  0
    5.6086   -7.1060    2.2550 C   0  0  1  0  0  0  0  0  0  0  0  0
    7.1452   -7.2481    2.0965 C   0  0  0  0  0  0  0  0  0  0  0  0
    5.0047   -8.3911    1.6086 C   0  0  0  0  0  0  0  0  0  0  0  0
    3.5953   -8.7049    2.0918 C   0  0  0  0  0  0  0  0  0  0  0  0
    3.0285  -11.6386    4.1722 H   0  0  0  0  0  0  0  0  0  0  0  0
    2.6044  -11.3741    2.4730 H   0  0  0  0  0  0  0  0  0  0  0  0
    1.5164  -12.2655    3.5187 H   0  0  0  0  0  0  0  0  0  0  0  0
    4.1465   -9.8882    3.8586 H   0  0  0  0  0  0  0  0  0  0  0  0
    4.1244   -7.7631    5.3898 H   0  0  0  0  0  0  0  0  0  0  0  0
    5.5109   -5.8941    5.5435 H   0  0  0  0  0  0  0  0  0  0  0  0
    6.8835   -5.8602    4.4554 H   0  0  0  0  0  0  0  0  0  0  0  0
    4.1537   -4.5501    4.0157 H   0  0  0  0  0  0  0  0  0  0  0  0
    5.6470   -3.7075    4.3664 H   0  0  0  0  0  0  0  0  0  0  0  0
    6.6174   -4.4485    2.2321 H   0  0  0  0  0  0  0  0  0  0  0  0
    3.9772   -5.8400    1.6780 H   0  0  0  0  0  0  0  0  0  0  0  0
    6.4769   -5.6210   -0.0373 H   0  0  0  0  0  0  0  0  0  0  0  0
    5.0120   -6.5030   -0.4499 H   0  0  0  0  0  0  0  0  0  0  0  0
    5.0172   -4.4211   -1.5698 H   0  0  0  0  0  0  0  0  0  0  0  0
    3.6825   -4.5448   -0.4507 H   0  0  0  0  0  0  0  0  0  0  0  0
    6.9275   -1.7408   -0.0206 H   0  0  0  0  0  0  0  0  0  0  0  0
    6.7862   -2.8868   -1.3456 H   0  0  0  0  0  0  0  0  0  0  0  0
    7.3540   -3.4249    0.2311 H   0  0  0  0  0  0  0  0  0  0  0  0
    4.6947   -0.9867    0.0397 H   0  0  0  0  0  0  0  0  0  0  0  0
    2.0018   -2.7738   -2.1001 H   0  0  0  0  0  0  0  0  0  0  0  0
    3.4293   -3.7385   -2.5671 H   0  0  0  0  0  0  0  0  0  0  0  0
    4.8118    0.1054   -2.2963 H   0  0  0  0  0  0  0  0  0  0  0  0
    2.5785   -1.1439    0.9579 H   0  0  0  0  0  0  0  0  0  0  0  0
    2.2306   -2.6696    0.1722 H   0  0  0  0  0  0  0  0  0  0  0  0
    3.2977   -2.3719    2.8364 H   0  0  0  0  0  0  0  0  0  0  0  0
    2.9298   -3.8309    1.9492 H   0  0  0  0  0  0  0  0  0  0  0  0
    5.3287   -1.2885    1.9566 H   0  0  0  0  0  0  0  0  0  0  0  0
    7.4250   -7.4311    1.0586 H   0  0  0  0  0  0  0  0  0  0  0  0
    7.5247   -8.0912    2.6791 H   0  0  0  0  0  0  0  0  0  0  0  0
    7.6904   -6.3646    2.4229 H   0  0  0  0  0  0  0  0  0  0  0  0
    5.0130   -8.3624    0.5231 H   0  0  0  0  0  0  0  0  0  0  0  0
    5.6193   -9.2561    1.8663 H   0  0  0  0  0  0  0  0  0  0  0  0
    3.2230   -9.5740    1.5476 H   0  0  0  0  0  0  0  0  0  0  0  0
    2.9141   -7.8806    1.8578 H   0  0  0  0  0  0  0  0  0  0  0  0
  1  2  1  0
  1 31  1  0
  1 32  1  0
  1 33  1  0
  2  3  2  0
  2  4  1  0
  4  5  1  0
  5 30  1  0
  5  6  1  0
  5 34  1  6
  6  7  2  0
  6 35  1  0
  7 27  1  0
  7  8  1  0
  8  9  1  0
  8 36  1  0
  8 37  1  0
  9 10  1  0
  9 38  1  0
  9 39  1  0
 10 25  1  0
 10 11  1  0
 10 40  1  1
 11 12  1  0
 11 27  1  0
 11 41  1  6
 12 13  1  0
 12 42  1  0
 12 43  1  0
 13 14  1  0
 13 44  1  0
 13 45  1  0
 14 25  1  0
 14 15  1  1
 14 16  1  0
 15 46  1  0
 15 47  1  0
 15 48  1  0
 16 23  1  0
 16 49  1  1
 16 17  1  0
 17 22  2  0
 17 18  1  0
 18 19  1  0
 18 50  1  0
 18 51  1  0
 19 20  1  0
 20 22  1  0
 20 21  2  0
 22 52  1  0
 23 24  1  0
 23 53  1  0
 23 54  1  0
 24 25  1  0
 24 55  1  0
 24 56  1  0
 25 26  1  1
 26 57  1  0
 27 28  1  1
 27 29  1  0
 28 58  1  0
 28 59  1  0
 28 60  1  0
 29 30  1  0
 29 61  1  0
 29 62  1  0
 30 63  1  0
 30 64  1  0
M  END
>  <i_m_ct_stereo_status>  (36) 
1

>  <s_m_source_file>  (36) 
/var/tmp/pbs.5076255.sched01/tmppz0entnt/04_lepiep.sdf

>  <i_m_source_file_index>  (36) 
20

>  <i_lp_mmshare_version>  (36) 
48012

>  <i_f3d_flags>  (36) 
0

>  <s_epik_input>  (36) 
W0NIM11DKD1PKU9bQ0BASF0oW0NIMl1bQ0gyXTEpW0NIXT1DKFtDSDJdW0NIMl0yKVtDQF0xKFtDSDNdKVtDQEhdKFtDSDJdW0NIMl0zKVtDQEhdMltDQEBdKFtPSF0pKFtDQEBdMzRbQ0gzXSlbQ0gyXVtDSDJdW0NAQEhdNGM1W2NIXW9jKFtPSF0pW2NIXTU=

>  <s_epik_cmdline>  (36) 
J2VwaWtfcHl0aG9uJywgJy1waHQnLCAnMi4wJywgJy1waCcsICc3LjAnLCAnLXRuJywgJzgnLCAnLW1hJywgJzIwMCcsICctaW1hZScsICc8aW5maWxlLm1hZT4nLCAnLW9tYWUnLCAnPG91dGZpbGUubWFlPic=

>  <r_lp_tautomer_probability>  (36) 
1

>  <r_epik_Ionization_Penalty>  (36) 
2.82355e-07

>  <r_epik_Ionization_Penalty_Charging>  (36) 
0

>  <r_epik_Ionization_Penalty_Neutral>  (36) 
2.82355e-07

>  <r_epik_State_Penalty>  (36) 
-0

>  <r_epik_Charging_Adjusted_Penalty>  (36) 
0

>  <i_epik_Tot_Q>  (36) 
0

>  <i_epik_Tot_abs_Q>  (36) 
0

>  <s_epik_Chemistry_Notes>  (36) 
This compound has an ester and may undergo hydrolysis at high or low pH.

>  <s_lp_Force_Field>  (36) 
OPLS3e

>  <r_lp_Energy>  (36) 
23.4683

>  <b_lp_Chiralities_Consistent>  (36) 
1

>  <s_lp_Variant>  (36) 
17:0-1

>  <s_i_glide_gridfile>  (36) 
pfpi4k_grid

>  <i_i_glide_lignum>  (36) 
20

>  <i_i_glide_rotatable_bonds>  (36) 
4

>  <r_i_docking_score>  (36) 
-3.31657

>  <r_i_glide_ligand_efficiency>  (36) 
-0.110552

>  <r_i_glide_ligand_efficiency_sa>  (36) 
-0.343512

>  <r_i_glide_ligand_efficiency_ln>  (36) 
-0.753561

>  <r_i_glide_gscore>  (36) 
-3.31657

>  <r_i_glide_lipo>  (36) 
-0.437603

>  <r_i_glide_hbond>  (36) 
0

>  <r_i_glide_metal>  (36) 
-0

>  <r_i_glide_rewards>  (36) 
-0.821407

>  <r_i_glide_evdw>  (36) 
-37.9156

>  <r_i_glide_ecoul>  (36) 
-2.60084

>  <r_i_glide_erotb>  (36) 
0.229732

>  <r_i_glide_esite>  (36) 
-0.00138855

>  <r_i_glide_emodel>  (36) 
-44.5425

>  <r_i_glide_energy>  (36) 
-40.5164

>  <r_i_glide_einternal>  (36) 
7.75492

>  <r_i_glide_intrahb_reward>  (36) 
-0

>  <i_i_glide_confnum>  (36) 
2

>  <i_i_glide_posenum>  (36) 
28

>  <r_i_glide_eff_state_penalty>  (36) 
0

>  <ligand_id>  (36) 
17

>  <original_smiles>  (36) 
CC(=O)OC1C=C2CCC3C(CCC4(C)C(c5coc(O)c5)CCC34O)C2(C)CC1

>  <smiles>  (36) 
[H]OC12C([H])([H])C([H])([H])C([H])(C3=C([H])C(=O)OC3([H])[H])C1(C([H])([H])[H])C([H])([H])C([H])([H])C1([H])C2([H])C([H])([H])C([H])([H])C2=C([H])C([H])(OC(=O)C([H])([H])[H])C([H])([H])C([H])([H])C21C([H])([H])[H]

$$$$
17:0:1
     RDKit          3D

 64 68  0  0  1  0  0  0  0  0999 V2000
   -0.1650   -9.4426    4.1000 C   0  0  0  0  0  0  0  0  0  0  0  0
    1.2750   -9.7835    3.7563 C   0  0  0  0  0  0  0  0  0  0  0  0
    1.5834  -10.8815    3.2927 O   0  0  0  0  0  0  0  0  0  0  0  0
    2.1105   -8.7495    3.9748 O   0  0  0  0  0  0  0  0  0  0  0  0
    3.4569   -8.8026    3.5209 C   0  0  2  0  0  0  0  0  0  0  0  0
    4.2834   -7.7393    4.2212 C   0  0  0  0  0  0  0  0  0  0  0  0
    5.1606   -6.9210    3.6117 C   0  0  0  0  0  0  0  0  0  0  0  0
    5.7757   -5.7364    4.3327 C   0  0  0  0  0  0  0  0  0  0  0  0
    5.2521   -4.4407    3.7011 C   0  0  0  0  0  0  0  0  0  0  0  0
    5.5274   -4.3744    2.1804 C   0  0  1  0  0  0  0  0  0  0  0  0
    4.9919   -5.6540    1.4677 C   0  0  1  0  0  0  0  0  0  0  0  0
    5.3079   -5.5312   -0.0266 C   0  0  0  0  0  0  0  0  0  0  0  0
    4.6998   -4.2817   -0.6490 C   0  0  0  0  0  0  0  0  0  0  0  0
    5.1827   -2.9575   -0.0157 C   0  0  1  0  0  0  0  0  0  0  0  0
    6.6388   -2.6878   -0.4645 C   0  0  0  0  0  0  0  0  0  0  0  0
    4.2389   -1.7800   -0.3992 C   0  0  1  0  0  0  0  0  0  0  0  0
    3.8725   -1.6332   -1.8749 C   0  0  0  0  0  0  0  0  0  0  0  0
    2.9496   -2.5601   -2.6270 C   0  0  0  0  0  0  0  0  0  0  0  0
    2.8986   -1.9836   -3.9243 O   0  0  0  0  0  0  0  0  0  0  0  0
    3.6474   -0.8632   -4.0015 C   0  0  0  0  0  0  0  0  0  0  0  0
    3.8094   -0.1808   -5.0128 O   0  0  0  0  0  0  0  0  0  0  0  0
    4.2436   -0.6446   -2.6957 C   0  0  0  0  0  0  0  0  0  0  0  0
    3.0417   -1.9117    0.5593 C   0  0  0  0  0  0  0  0  0  0  0  0
    3.5328   -2.7122    1.7789 C   0  0  0  0  0  0  0  0  0  0  0  0
    5.0189   -3.0397    1.5361 C   0  0  1  0  0  0  0  0  0  0  0  0
    5.7616   -1.9832    2.1218 O   0  0  0  0  0  0  0  0  0  0  0  0
    5.5038   -6.9947    2.1089 C   0  0  1  0  0  0  0  0  0  0  0  0
    7.0325   -7.1799    1.9246 C   0  0  0  0  0  0  0  0  0  0  0  0
    4.8473   -8.2659    1.4820 C   0  0  0  0  0  0  0  0  0  0  0  0
    3.4421   -8.5523    2.0007 C   0  0  0  0  0  0  0  0  0  0  0  0
   -0.4215   -8.4582    3.7096 H   0  0  0  0  0  0  0  0  0  0  0  0
   -0.3199   -9.4451    5.1797 H   0  0  0  0  0  0  0  0  0  0  0  0
   -0.8384  -10.1725    3.6550 H   0  0  0  0  0  0  0  0  0  0  0  0
    3.9072   -9.7691    3.7602 H   0  0  0  0  0  0  0  0  0  0  0  0
    4.0714   -7.6093    5.2733 H   0  0  0  0  0  0  0  0  0  0  0  0
    5.5151   -5.7639    5.3893 H   0  0  0  0  0  0  0  0  0  0  0  0
    6.8594   -5.7793    4.2691 H   0  0  0  0  0  0  0  0  0  0  0  0
    4.1763   -4.3704    3.8854 H   0  0  0  0  0  0  0  0  0  0  0  0
    5.7091   -3.5859    4.2002 H   0  0  0  0  0  0  0  0  0  0  0  0
    6.6079   -4.3599    2.0562 H   0  0  0  0  0  0  0  0  0  0  0  0
    3.9071   -5.6704    1.5627 H   0  0  0  0  0  0  0  0  0  0  0  0
    6.3834   -5.5233   -0.1978 H   0  0  0  0  0  0  0  0  0  0  0  0
    4.9006   -6.3723   -0.5851 H   0  0  0  0  0  0  0  0  0  0  0  0
    4.9496   -4.3040   -1.7087 H   0  0  0  0  0  0  0  0  0  0  0  0
    3.6178   -4.3710   -0.5755 H   0  0  0  0  0  0  0  0  0  0  0  0
    6.9596   -1.6761   -0.2216 H   0  0  0  0  0  0  0  0  0  0  0  0
    6.7481   -2.8177   -1.5412 H   0  0  0  0  0  0  0  0  0  0  0  0
    7.3338   -3.3728    0.0233 H   0  0  0  0  0  0  0  0  0  0  0  0
    4.7473   -0.8520   -0.1254 H   0  0  0  0  0  0  0  0  0  0  0  0
    1.9524   -2.5534   -2.1907 H   0  0  0  0  0  0  0  0  0  0  0  0
    3.3252   -3.5815   -2.6921 H   0  0  0  0  0  0  0  0  0  0  0  0
    4.8702    0.1981   -2.4547 H   0  0  0  0  0  0  0  0  0  0  0  0
    2.6418   -0.9345    0.8436 H   0  0  0  0  0  0  0  0  0  0  0  0
    2.2264   -2.4577    0.0800 H   0  0  0  0  0  0  0  0  0  0  0  0
    3.3761   -2.1712    2.7152 H   0  0  0  0  0  0  0  0  0  0  0  0
    2.9412   -3.6223    1.8430 H   0  0  0  0  0  0  0  0  0  0  0  0
    5.4321   -1.1612    1.7681 H   0  0  0  0  0  0  0  0  0  0  0  0
    7.2885   -7.3750    0.8826 H   0  0  0  0  0  0  0  0  0  0  0  0
    7.3999   -8.0317    2.4994 H   0  0  0  0  0  0  0  0  0  0  0  0
    7.6131   -6.3129    2.2309 H   0  0  0  0  0  0  0  0  0  0  0  0
    4.8301   -8.2323    0.3972 H   0  0  0  0  0  0  0  0  0  0  0  0
    5.4491   -9.1431    1.7258 H   0  0  0  0  0  0  0  0  0  0  0  0
    3.0292   -9.4200    1.4839 H   0  0  0  0  0  0  0  0  0  0  0  0
    2.7809   -7.7140    1.7758 H   0  0  0  0  0  0  0  0  0  0  0  0
  1  2  1  0
  1 31  1  0
  1 32  1  0
  1 33  1  0
  2  3  2  0
  2  4  1  0
  4  5  1  0
  5 30  1  0
  5  6  1  0
  5 34  1  6
  6  7  2  0
  6 35  1  0
  7 27  1  0
  7  8  1  0
  8  9  1  0
  8 36  1  0
  8 37  1  0
  9 10  1  0
  9 38  1  0
  9 39  1  0
 10 25  1  0
 10 11  1  0
 10 40  1  1
 11 12  1  0
 11 27  1  0
 11 41  1  6
 12 13  1  0
 12 42  1  0
 12 43  1  0
 13 14  1  0
 13 44  1  0
 13 45  1  0
 14 25  1  0
 14 15  1  1
 14 16  1  0
 15 46  1  0
 15 47  1  0
 15 48  1  0
 16 23  1  0
 16 49  1  1
 16 17  1  0
 17 22  2  0
 17 18  1  0
 18 19  1  0
 18 50  1  0
 18 51  1  0
 19 20  1  0
 20 22  1  0
 20 21  2  0
 22 52  1  0
 23 24  1  0
 23 53  1  0
 23 54  1  0
 24 25  1  0
 24 55  1  0
 24 56  1  0
 25 26  1  1
 26 57  1  0
 27 28  1  1
 27 29  1  0
 28 58  1  0
 28 59  1  0
 28 60  1  0
 29 30  1  0
 29 61  1  0
 29 62  1  0
 30 63  1  0
 30 64  1  0
M  END
>  <i_m_ct_stereo_status>  (37) 
1

>  <s_m_source_file>  (37) 
/var/tmp/pbs.5076255.sched01/tmppz0entnt/04_lepiep.sdf

>  <i_m_source_file_index>  (37) 
20

>  <i_lp_mmshare_version>  (37) 
48012

>  <i_f3d_flags>  (37) 
0

>  <s_epik_input>  (37) 
W0NIM11DKD1PKU9bQ0BASF0oW0NIMl1bQ0gyXTEpW0NIXT1DKFtDSDJdW0NIMl0yKVtDQF0xKFtDSDNdKVtDQEhdKFtDSDJdW0NIMl0zKVtDQEhdMltDQEBdKFtPSF0pKFtDQEBdMzRbQ0gzXSlbQ0gyXVtDSDJdW0NAQEhdNGM1W2NIXW9jKFtPSF0pW2NIXTU=

>  <s_epik_cmdline>  (37) 
J2VwaWtfcHl0aG9uJywgJy1waHQnLCAnMi4wJywgJy1waCcsICc3LjAnLCAnLXRuJywgJzgnLCAnLW1hJywgJzIwMCcsICctaW1hZScsICc8aW5maWxlLm1hZT4nLCAnLW9tYWUnLCAnPG91dGZpbGUubWFlPic=

>  <r_lp_tautomer_probability>  (37) 
1

>  <r_epik_Ionization_Penalty>  (37) 
2.82355e-07

>  <r_epik_Ionization_Penalty_Charging>  (37) 
0

>  <r_epik_Ionization_Penalty_Neutral>  (37) 
2.82355e-07

>  <r_epik_State_Penalty>  (37) 
-0

>  <r_epik_Charging_Adjusted_Penalty>  (37) 
0

>  <i_epik_Tot_Q>  (37) 
0

>  <i_epik_Tot_abs_Q>  (37) 
0

>  <s_epik_Chemistry_Notes>  (37) 
This compound has an ester and may undergo hydrolysis at high or low pH.

>  <s_lp_Force_Field>  (37) 
OPLS3e

>  <r_lp_Energy>  (37) 
23.4683

>  <b_lp_Chiralities_Consistent>  (37) 
1

>  <s_lp_Variant>  (37) 
17:0-1

>  <s_i_glide_gridfile>  (37) 
pfpi4k_grid

>  <i_i_glide_lignum>  (37) 
20

>  <i_i_glide_rotatable_bonds>  (37) 
4

>  <r_i_docking_score>  (37) 
-3.19921

>  <r_i_glide_ligand_efficiency>  (37) 
-0.10664

>  <r_i_glide_ligand_efficiency_sa>  (37) 
-0.331357

>  <r_i_glide_ligand_efficiency_ln>  (37) 
-0.726896

>  <r_i_glide_gscore>  (37) 
-3.19921

>  <r_i_glide_lipo>  (37) 
-0.408258

>  <r_i_glide_hbond>  (37) 
0

>  <r_i_glide_metal>  (37) 
-0

>  <r_i_glide_rewards>  (37) 
-0.820468

>  <r_i_glide_evdw>  (37) 
-36.8687

>  <r_i_glide_ecoul>  (37) 
-2.35174

>  <r_i_glide_erotb>  (37) 
0.229732

>  <r_i_glide_esite>  (37) 
-0.00402109

>  <r_i_glide_emodel>  (37) 
-45.4331

>  <r_i_glide_energy>  (37) 
-39.2205

>  <r_i_glide_einternal>  (37) 
2.95535

>  <r_i_glide_intrahb_reward>  (37) 
-0

>  <i_i_glide_confnum>  (37) 
2

>  <i_i_glide_posenum>  (37) 
10

>  <r_i_glide_eff_state_penalty>  (37) 
0

>  <ligand_id>  (37) 
17

>  <original_smiles>  (37) 
CC(=O)OC1C=C2CCC3C(CCC4(C)C(c5coc(O)c5)CCC34O)C2(C)CC1

>  <smiles>  (37) 
[H]OC12C([H])([H])C([H])([H])C([H])(C3=C([H])C(=O)OC3([H])[H])C1(C([H])([H])[H])C([H])([H])C([H])([H])C1([H])C2([H])C([H])([H])C([H])([H])C2=C([H])C([H])(OC(=O)C([H])([H])[H])C([H])([H])C([H])([H])C21C([H])([H])[H]

$$$$
17:0:2
     RDKit          3D

 64 68  0  0  1  0  0  0  0  0999 V2000
    2.8812   -2.6170   -3.3675 C   0  0  0  0  0  0  0  0  0  0  0  0
    4.1132   -3.0199   -2.5638 C   0  0  0  0  0  0  0  0  0  0  0  0
    5.2248   -3.0784   -3.0910 O   0  0  0  0  0  0  0  0  0  0  0  0
    3.8284   -3.2875   -1.2702 O   0  0  0  0  0  0  0  0  0  0  0  0
    4.8366   -3.7470   -0.3727 C   0  0  2  0  0  0  0  0  0  0  0  0
    4.8214   -5.2587   -0.2876 C   0  0  0  0  0  0  0  0  0  0  0  0
    4.9310   -5.9738    0.8534 C   0  0  0  0  0  0  0  0  0  0  0  0
    4.6742   -7.4663    0.8623 C   0  0  0  0  0  0  0  0  0  0  0  0
    3.4126   -7.7495    1.6827 C   0  0  0  0  0  0  0  0  0  0  0  0
    3.5019   -7.1771    3.1197 C   0  0  1  0  0  0  0  0  0  0  0  0
    3.8941   -5.6639    3.1101 C   0  0  1  0  0  0  0  0  0  0  0  0
    3.9713   -5.1540    4.5670 C   0  0  0  0  0  0  0  0  0  0  0  0
    2.6416   -5.3673    5.3058 C   0  0  0  0  0  0  0  0  0  0  0  0
    2.2183   -6.8573    5.3931 C   0  0  1  0  0  0  0  0  0  0  0  0
    3.1534   -7.6063    6.3766 C   0  0  0  0  0  0  0  0  0  0  0  0
    0.7232   -6.9854    5.8005 C   0  0  1  0  0  0  0  0  0  0  0  0
    0.2728   -6.1970    7.0315 C   0  0  0  0  0  0  0  0  0  0  0  0
    0.6101   -6.6546    8.4237 C   0  0  0  0  0  0  0  0  0  0  0  0
   -0.0763   -5.7164    9.2374 O   0  0  0  0  0  0  0  0  0  0  0  0
   -0.7250   -4.7963    8.4994 C   0  0  0  0  0  0  0  0  0  0  0  0
   -1.3848   -3.8580    8.9400 O   0  0  0  0  0  0  0  0  0  0  0  0
   -0.5173   -5.1235    7.0927 C   0  0  0  0  0  0  0  0  0  0  0  0
   -0.0634   -6.6987    4.5063 C   0  0  0  0  0  0  0  0  0  0  0  0
    0.8844   -7.0256    3.3390 C   0  0  0  0  0  0  0  0  0  0  0  0
    2.2204   -7.4809    3.9633 C   0  0  1  0  0  0  0  0  0  0  0  0
    2.1263   -8.8897    4.0898 O   0  0  0  0  0  0  0  0  0  0  0  0
    5.1661   -5.3498    2.2366 C   0  0  1  0  0  0  0  0  0  0  0  0
    6.4485   -5.9548    2.8685 C   0  0  0  0  0  0  0  0  0  0  0  0
    5.4397   -3.8194    2.0763 C   0  0  0  0  0  0  0  0  0  0  0  0
    4.5720   -3.1328    1.0104 C   0  0  0  0  0  0  0  0  0  0  0  0
    2.3094   -1.8538   -2.8379 H   0  0  0  0  0  0  0  0  0  0  0  0
    2.2379   -3.4828   -3.5264 H   0  0  0  0  0  0  0  0  0  0  0  0
    3.1639   -2.2175   -4.3419 H   0  0  0  0  0  0  0  0  0  0  0  0
    5.8294   -3.4447   -0.7112 H   0  0  0  0  0  0  0  0  0  0  0  0
    4.6262   -5.7713   -1.2133 H   0  0  0  0  0  0  0  0  0  0  0  0
    4.5487   -7.8341   -0.1561 H   0  0  0  0  0  0  0  0  0  0  0  0
    5.5312   -7.9957    1.2754 H   0  0  0  0  0  0  0  0  0  0  0  0
    2.5611   -7.3058    1.1625 H   0  0  0  0  0  0  0  0  0  0  0  0
    3.2422   -8.8264    1.6987 H   0  0  0  0  0  0  0  0  0  0  0  0
    4.3162   -7.7096    3.6094 H   0  0  0  0  0  0  0  0  0  0  0  0
    3.0762   -5.1236    2.6357 H   0  0  0  0  0  0  0  0  0  0  0  0
    4.7752   -5.6538    5.1096 H   0  0  0  0  0  0  0  0  0  0  0  0
    4.1925   -4.0887    4.6034 H   0  0  0  0  0  0  0  0  0  0  0  0
    2.7138   -4.9422    6.3068 H   0  0  0  0  0  0  0  0  0  0  0  0
    1.8739   -4.7879    4.7928 H   0  0  0  0  0  0  0  0  0  0  0  0
    2.7572   -8.5852    6.6499 H   0  0  0  0  0  0  0  0  0  0  0  0
    3.3035   -7.0452    7.2974 H   0  0  0  0  0  0  0  0  0  0  0  0
    4.1402   -7.7715    5.9458 H   0  0  0  0  0  0  0  0  0  0  0  0
    0.5260   -8.0298    6.0428 H   0  0  0  0  0  0  0  0  0  0  0  0
    1.6779   -6.6192    8.6178 H   0  0  0  0  0  0  0  0  0  0  0  0
    0.2405   -7.6605    8.6143 H   0  0  0  0  0  0  0  0  0  0  0  0
   -0.9648   -4.5753    6.2798 H   0  0  0  0  0  0  0  0  0  0  0  0
   -0.9755   -7.2961    4.4614 H   0  0  0  0  0  0  0  0  0  0  0  0
   -0.3567   -5.6512    4.4336 H   0  0  0  0  0  0  0  0  0  0  0  0
    0.4664   -7.7797    2.6693 H   0  0  0  0  0  0  0  0  0  0  0  0
    1.0270   -6.1251    2.7445 H   0  0  0  0  0  0  0  0  0  0  0  0
    2.1146   -9.2685    3.2240 H   0  0  0  0  0  0  0  0  0  0  0  0
    6.7181   -5.4465    3.7934 H   0  0  0  0  0  0  0  0  0  0  0  0
    7.3002   -5.8635    2.1908 H   0  0  0  0  0  0  0  0  0  0  0  0
    6.3511   -7.0124    3.1066 H   0  0  0  0  0  0  0  0  0  0  0  0
    5.3575   -3.2889    3.0206 H   0  0  0  0  0  0  0  0  0  0  0  0
    6.4782   -3.6761    1.7699 H   0  0  0  0  0  0  0  0  0  0  0  0
    4.7832   -2.0629    0.9830 H   0  0  0  0  0  0  0  0  0  0  0  0
    3.5180   -3.2324    1.2743 H   0  0  0  0  0  0  0  0  0  0  0  0
  1  2  1  0
  1 31  1  0
  1 32  1  0
  1 33  1  0
  2  3  2  0
  2  4  1  0
  4  5  1  0
  5 30  1  0
  5  6  1  0
  5 34  1  6
  6  7  2  0
  6 35  1  0
  7 27  1  0
  7  8  1  0
  8  9  1  0
  8 36  1  0
  8 37  1  0
  9 10  1  0
  9 38  1  0
  9 39  1  0
 10 25  1  0
 10 11  1  0
 10 40  1  1
 11 12  1  0
 11 27  1  0
 11 41  1  6
 12 13  1  0
 12 42  1  0
 12 43  1  0
 13 14  1  0
 13 44  1  0
 13 45  1  0
 14 25  1  0
 14 15  1  1
 14 16  1  0
 15 46  1  0
 15 47  1  0
 15 48  1  0
 16 23  1  0
 16 49  1  1
 16 17  1  0
 17 22  2  0
 17 18  1  0
 18 19  1  0
 18 50  1  0
 18 51  1  0
 19 20  1  0
 20 22  1  0
 20 21  2  0
 22 52  1  0
 23 24  1  0
 23 53  1  0
 23 54  1  0
 24 25  1  0
 24 55  1  0
 24 56  1  0
 25 26  1  1
 26 57  1  0
 27 28  1  1
 27 29  1  0
 28 58  1  0
 28 59  1  0
 28 60  1  0
 29 30  1  0
 29 61  1  0
 29 62  1  0
 30 63  1  0
 30 64  1  0
M  END
>  <i_m_ct_stereo_status>  (38) 
1

>  <s_m_source_file>  (38) 
/var/tmp/pbs.5076255.sched01/tmppz0entnt/04_lepiep.sdf

>  <i_m_source_file_index>  (38) 
20

>  <i_lp_mmshare_version>  (38) 
48012

>  <i_f3d_flags>  (38) 
0

>  <s_epik_input>  (38) 
W0NIM11DKD1PKU9bQ0BASF0oW0NIMl1bQ0gyXTEpW0NIXT1DKFtDSDJdW0NIMl0yKVtDQF0xKFtDSDNdKVtDQEhdKFtDSDJdW0NIMl0zKVtDQEhdMltDQEBdKFtPSF0pKFtDQEBdMzRbQ0gzXSlbQ0gyXVtDSDJdW0NAQEhdNGM1W2NIXW9jKFtPSF0pW2NIXTU=

>  <s_epik_cmdline>  (38) 
J2VwaWtfcHl0aG9uJywgJy1waHQnLCAnMi4wJywgJy1waCcsICc3LjAnLCAnLXRuJywgJzgnLCAnLW1hJywgJzIwMCcsICctaW1hZScsICc8aW5maWxlLm1hZT4nLCAnLW9tYWUnLCAnPG91dGZpbGUubWFlPic=

>  <r_lp_tautomer_probability>  (38) 
1

>  <r_epik_Ionization_Penalty>  (38) 
2.82355e-07

>  <r_epik_Ionization_Penalty_Charging>  (38) 
0

>  <r_epik_Ionization_Penalty_Neutral>  (38) 
2.82355e-07

>  <r_epik_State_Penalty>  (38) 
-0

>  <r_epik_Charging_Adjusted_Penalty>  (38) 
0

>  <i_epik_Tot_Q>  (38) 
0

>  <i_epik_Tot_abs_Q>  (38) 
0

>  <s_epik_Chemistry_Notes>  (38) 
This compound has an ester and may undergo hydrolysis at high or low pH.

>  <s_lp_Force_Field>  (38) 
OPLS3e

>  <r_lp_Energy>  (38) 
23.4683

>  <b_lp_Chiralities_Consistent>  (38) 
1

>  <s_lp_Variant>  (38) 
17:0-1

>  <s_i_glide_gridfile>  (38) 
pfpi4k_grid

>  <i_i_glide_lignum>  (38) 
20

>  <i_i_glide_rotatable_bonds>  (38) 
4

>  <r_i_docking_score>  (38) 
-3.07057

>  <r_i_glide_ligand_efficiency>  (38) 
-0.102352

>  <r_i_glide_ligand_efficiency_sa>  (38) 
-0.318033

>  <r_i_glide_ligand_efficiency_ln>  (38) 
-0.697668

>  <r_i_glide_gscore>  (38) 
-3.07057

>  <r_i_glide_lipo>  (38) 
-0.520241

>  <r_i_glide_hbond>  (38) 
-0.197622

>  <r_i_glide_metal>  (38) 
-0

>  <r_i_glide_rewards>  (38) 
-0.58272

>  <r_i_glide_evdw>  (38) 
-30.2373

>  <r_i_glide_ecoul>  (38) 
-3.13089

>  <r_i_glide_erotb>  (38) 
0.229732

>  <r_i_glide_esite>  (38) 
-0.0182246

>  <r_i_glide_emodel>  (38) 
-40.6822

>  <r_i_glide_energy>  (38) 
-33.3682

>  <r_i_glide_einternal>  (38) 
0.797684

>  <r_i_glide_intrahb_reward>  (38) 
-0

>  <i_i_glide_confnum>  (38) 
1

>  <i_i_glide_posenum>  (38) 
11

>  <r_i_glide_eff_state_penalty>  (38) 
0

>  <ligand_id>  (38) 
17

>  <original_smiles>  (38) 
CC(=O)OC1C=C2CCC3C(CCC4(C)C(c5coc(O)c5)CCC34O)C2(C)CC1

>  <smiles>  (38) 
[H]OC12C([H])([H])C([H])([H])C([H])(C3=C([H])C(=O)OC3([H])[H])C1(C([H])([H])[H])C([H])([H])C([H])([H])C1([H])C2([H])C([H])([H])C([H])([H])C2=C([H])C([H])(OC(=O)C([H])([H])[H])C([H])([H])C([H])([H])C21C([H])([H])[H]

$$$$
18:0:0
     RDKit          3D

 56 60  0  0  1  0  0  0  0  0999 V2000
    4.7025   -0.9495   -2.3070 C   0  0  0  0  0  0  0  0  0  0  0  0
    4.5393   -1.6819   -1.1929 C   0  0  0  0  0  0  0  0  0  0  0  0
    3.9637   -3.1258   -1.2828 C   0  0  1  0  0  0  0  0  0  0  0  0
    4.5611   -3.8527   -2.3466 O   0  0  0  0  0  0  0  0  0  0  0  0
    4.2413   -3.8927    0.0356 C   0  0  2  0  0  0  0  0  0  0  0  0
    5.5198   -3.5504    0.5117 O   0  0  0  0  0  0  0  0  0  0  0  0
    5.4456   -2.3226    1.1936 C   0  0  1  0  0  0  0  0  0  0  0  0
    5.0101   -1.1771    0.2136 C   0  0  1  0  0  0  0  0  0  0  0  0
    6.1014   -0.2798    0.0844 O   0  0  0  0  0  0  0  0  0  0  0  0
    3.9278   -0.4251    1.0169 C   0  0  0  0  0  0  0  0  0  0  0  0
    4.1367   -0.8539    2.4903 C   0  0  1  0  0  0  0  0  0  0  0  0
    3.0784   -0.3453    3.4906 C   0  0  0  0  0  0  0  0  0  0  0  0
    4.4672   -2.3758    2.4336 C   0  0  2  0  0  0  0  0  0  0  0  0
    5.2881   -2.6923    3.5419 O   0  0  0  0  0  0  0  0  0  0  0  0
    3.2225   -3.4182    2.3723 C   0  0  2  0  0  0  0  0  0  0  0  0
    2.0701   -2.6793    1.9990 O   0  0  0  0  0  0  0  0  0  0  0  0
    2.8158   -4.0099    3.7882 C   0  0  2  0  0  0  0  0  0  0  0  0
    3.4794   -5.3531    4.1628 C   0  0  2  0  0  0  0  0  0  0  0  0
    3.5777   -6.3552    3.0037 C   0  0  0  0  0  0  0  0  0  0  0  0
    4.2608   -5.7302    1.7812 C   0  0  1  0  0  0  0  0  0  0  0  0
    4.5917   -6.8171    0.7396 C   0  0  0  0  0  0  0  0  0  0  0  0
    3.4423   -4.5227    1.2215 C   0  0  2  0  0  0  0  0  0  0  0  0
    2.2222   -5.0541    0.7130 O   0  0  0  0  0  0  0  0  0  0  0  0
    2.6190   -5.8974    5.1506 O   0  0  0  0  0  0  0  0  0  0  0  0
    1.4003   -5.3790    5.1477 C   0  0  0  0  0  0  0  0  0  0  0  0
    0.4596   -5.7121    5.8639 O   0  0  0  0  0  0  0  0  0  0  0  0
    1.3261   -4.2594    4.1212 C   0  0  1  0  0  0  0  0  0  0  0  0
    0.5753   -3.0481    4.7215 C   0  0  0  0  0  0  0  0  0  0  0  0
    5.1239    0.0431   -2.2861 H   0  0  0  0  0  0  0  0  0  0  0  0
    4.4146   -1.3430   -3.2710 H   0  0  0  0  0  0  0  0  0  0  0  0
    2.8957   -3.0611   -1.5355 H   0  0  0  0  0  0  0  0  0  0  0  0
    4.0957   -4.6771   -2.4575 H   0  0  0  0  0  0  0  0  0  0  0  0
    3.5444   -3.1059    0.2467 H   0  0  0  0  0  0  0  0  0  0  0  0
    6.4528   -2.1076    1.5516 H   0  0  0  0  0  0  0  0  0  0  0  0
    5.7747    0.5714   -0.2022 H   0  0  0  0  0  0  0  0  0  0  0  0
    3.9908    0.6578    0.8983 H   0  0  0  0  0  0  0  0  0  0  0  0
    2.9344   -0.7056    0.6682 H   0  0  0  0  0  0  0  0  0  0  0  0
    5.0636   -0.3693    2.8024 H   0  0  0  0  0  0  0  0  0  0  0  0
    2.0569   -0.5382    3.1704 H   0  0  0  0  0  0  0  0  0  0  0  0
    3.1576    0.7351    3.6107 H   0  0  0  0  0  0  0  0  0  0  0  0
    3.2176   -0.7964    4.4734 H   0  0  0  0  0  0  0  0  0  0  0  0
    5.5926   -3.5828    3.4405 H   0  0  0  0  0  0  0  0  0  0  0  0
    2.2261   -2.2483    1.1715 H   0  0  0  0  0  0  0  0  0  0  0  0
    3.1239   -3.2885    4.5434 H   0  0  0  0  0  0  0  0  0  0  0  0
    4.4722   -5.1874    4.5831 H   0  0  0  0  0  0  0  0  0  0  0  0
    4.1449   -7.2247    3.3411 H   0  0  0  0  0  0  0  0  0  0  0  0
    2.5914   -6.7309    2.7253 H   0  0  0  0  0  0  0  0  0  0  0  0
    5.2260   -5.3583    2.1286 H   0  0  0  0  0  0  0  0  0  0  0  0
    3.6863   -7.2930    0.3715 H   0  0  0  0  0  0  0  0  0  0  0  0
    5.2033   -7.6047    1.1847 H   0  0  0  0  0  0  0  0  0  0  0  0
    5.1455   -6.4174   -0.1127 H   0  0  0  0  0  0  0  0  0  0  0  0
    2.4439   -5.5808   -0.0445 H   0  0  0  0  0  0  0  0  0  0  0  0
    0.7928   -4.6474    3.2546 H   0  0  0  0  0  0  0  0  0  0  0  0
   -0.4441   -3.3145    5.0081 H   0  0  0  0  0  0  0  0  0  0  0  0
    0.4999   -2.2317    4.0058 H   0  0  0  0  0  0  0  0  0  0  0  0
    1.0723   -2.6645    5.6176 H   0  0  0  0  0  0  0  0  0  0  0  0
  1  2  2  0
  1 29  1  0
  1 30  1  0
  2  8  1  0
  2  3  1  0
  3  4  1  0
  3  5  1  0
  3 31  1  6
  4 32  1  0
  5 22  1  0
  5  6  1  0
  5 33  1  6
  6  7  1  0
  7 13  1  0
  7  8  1  0
  7 34  1  1
  8  9  1  6
  8 10  1  0
  9 35  1  0
 10 11  1  0
 10 36  1  0
 10 37  1  0
 11 12  1  0
 11 13  1  0
 11 38  1  1
 12 39  1  0
 12 40  1  0
 12 41  1  0
 13 14  1  1
 13 15  1  0
 14 42  1  0
 15 22  1  0
 15 16  1  6
 15 17  1  0
 16 43  1  0
 17 27  1  0
 17 18  1  0
 17 44  1  1
 18 19  1  0
 18 24  1  0
 18 45  1  1
 19 20  1  0
 19 46  1  0
 19 47  1  0
 20 21  1  0
 20 22  1  0
 20 48  1  1
 21 49  1  0
 21 50  1  0
 21 51  1  0
 22 23  1  6
 23 52  1  0
 24 25  1  0
 25 26  2  0
 25 27  1  0
 27 28  1  0
 27 53  1  6
 28 54  1  0
 28 55  1  0
 28 56  1  0
M  END
>  <i_m_ct_stereo_status>  (39) 
1

>  <s_m_source_file>  (39) 
/var/tmp/pbs.5076255.sched01/tmppz0entnt/04_lepiep.sdf

>  <i_m_source_file_index>  (39) 
21

>  <i_lp_mmshare_version>  (39) 
48012

>  <i_f3d_flags>  (39) 
0

>  <s_epik_input>  (39) 
W0NIMl09QzFbQ0BASF0oW09IXSlbQ0BIXShPMilbQ0BAXTMoW09IXSlbQ0BIXShbQ0gzXSlbQ0gyXVtDQEhdKE9DKD1PKVtDQEhdNFtDSDNdKVtDQEhdNFtDQEBdMyhbT0hdKVtDQF0oW09IXSkoW0NAQEhdKFtDSDJdNSlbQ0gzXSlbQ0BASF0yW0NAQF0xNVtPSF0=

>  <s_epik_cmdline>  (39) 
J2VwaWtfcHl0aG9uJywgJy1waHQnLCAnMi4wJywgJy1waCcsICc3LjAnLCAnLXRuJywgJzgnLCAnLW1hJywgJzIwMCcsICctaW1hZScsICc8aW5maWxlLm1hZT4nLCAnLW9tYWUnLCAnPG91dGZpbGUubWFlPic=

>  <r_lp_tautomer_probability>  (39) 
1

>  <r_epik_Ionization_Penalty>  (39) 
7.08544e-07

>  <r_epik_Ionization_Penalty_Charging>  (39) 
0

>  <r_epik_Ionization_Penalty_Neutral>  (39) 
7.08544e-07

>  <r_epik_State_Penalty>  (39) 
-0

>  <r_epik_Charging_Adjusted_Penalty>  (39) 
0

>  <i_epik_Tot_Q>  (39) 
0

>  <i_epik_Tot_abs_Q>  (39) 
0

>  <s_epik_Chemistry_Notes>  (39) 
This compound has an ester and may undergo hydrolysis at high or low pH.

>  <s_lp_Force_Field>  (39) 
OPLS3e

>  <r_lp_Energy>  (39) 
106.182

>  <b_lp_Chiralities_Consistent>  (39) 
1

>  <s_lp_Variant>  (39) 
18:0-1

>  <s_i_glide_gridfile>  (39) 
pfpi4k_grid

>  <i_i_glide_lignum>  (39) 
21

>  <i_i_glide_rotatable_bonds>  (39) 
5

>  <r_i_docking_score>  (39) 
-3.74093

>  <r_i_glide_ligand_efficiency>  (39) 
-0.133605

>  <r_i_glide_ligand_efficiency_sa>  (39) 
-0.405702

>  <r_i_glide_ligand_efficiency_ln>  (39) 
-0.863516

>  <r_i_glide_gscore>  (39) 
-3.74093

>  <r_i_glide_lipo>  (39) 
-0.384838

>  <r_i_glide_hbond>  (39) 
0

>  <r_i_glide_metal>  (39) 
-0

>  <r_i_glide_rewards>  (39) 
-0.706149

>  <r_i_glide_evdw>  (39) 
-23.2747

>  <r_i_glide_ecoul>  (39) 
-9.90249

>  <r_i_glide_erotb>  (39) 
0

>  <r_i_glide_esite>  (39) 
-0.00083376

>  <r_i_glide_emodel>  (39) 
-41.361

>  <r_i_glide_energy>  (39) 
-33.1772

>  <r_i_glide_einternal>  (39) 
0.678882

>  <r_i_glide_intrahb_reward>  (39) 
-0

>  <i_i_glide_confnum>  (39) 
2

>  <i_i_glide_posenum>  (39) 
10

>  <r_i_glide_eff_state_penalty>  (39) 
0

>  <ligand_id>  (39) 
18

>  <original_smiles>  (39) 
C=C1C(O)C2OC3C1(O)CC(C)C3(O)C1(O)C3C(CC(C)C21O)OC(=O)C3C

>  <smiles>  (39) 
[H]OC1([H])C(=C([H])[H])C2(O[H])C([H])([H])C([H])(C([H])([H])[H])C3(O[H])C2([H])OC1([H])C1(O[H])C([H])(C([H])([H])[H])C([H])([H])C2([H])OC(=O)C([H])(C([H])([H])[H])C2([H])C13O[H]

$$$$
18:0:1
     RDKit          3D

 56 60  0  0  1  0  0  0  0  0999 V2000
    2.1970   -3.7881    5.7930 C   0  0  0  0  0  0  0  0  0  0  0  0
    2.7497   -3.6899    4.5760 C   0  0  0  0  0  0  0  0  0  0  0  0
    3.3085   -2.3323    4.0649 C   0  0  1  0  0  0  0  0  0  0  0  0
    4.0414   -1.6806    5.0780 O   0  0  0  0  0  0  0  0  0  0  0  0
    4.2462   -2.5548    2.8511 C   0  0  2  0  0  0  0  0  0  0  0  0
    5.0032   -3.7146    3.0879 O   0  0  0  0  0  0  0  0  0  0  0  0
    4.2454   -4.8481    2.7371 C   0  0  1  0  0  0  0  0  0  0  0  0
    2.9981   -4.9455    3.6819 C   0  0  1  0  0  0  0  0  0  0  0  0
    3.1193   -6.1102    4.4761 O   0  0  0  0  0  0  0  0  0  0  0  0
    1.8349   -5.2339    2.7159 C   0  0  0  0  0  0  0  0  0  0  0  0
    2.5170   -5.7294    1.4293 C   0  0  1  0  0  0  0  0  0  0  0  0
    1.5712   -5.9497    0.2701 C   0  0  0  0  0  0  0  0  0  0  0  0
    3.7773   -4.8368    1.2241 C   0  0  2  0  0  0  0  0  0  0  0  0
    4.7535   -5.6115    0.5442 O   0  0  0  0  0  0  0  0  0  0  0  0
    3.5878   -3.4007    0.4884 C   0  0  2  0  0  0  0  0  0  0  0  0
    2.2131   -3.0434    0.5085 O   0  0  0  0  0  0  0  0  0  0  0  0
    3.9450   -3.4304   -1.0530 C   0  0  2  0  0  0  0  0  0  0  0  0
    5.4003   -3.0644   -1.3995 C   0  0  2  0  0  0  0  0  0  0  0  0
    5.9597   -1.8871   -0.5983 C   0  0  0  0  0  0  0  0  0  0  0  0
    5.7907   -2.1517    0.8999 C   0  0  1  0  0  0  0  0  0  0  0  0
    6.5456   -1.0757    1.6746 C   0  0  0  0  0  0  0  0  0  0  0  0
    4.3039   -2.2501    1.3165 C   0  0  2  0  0  0  0  0  0  0  0  0
    3.7296   -0.9890    1.0219 O   0  0  0  0  0  0  0  0  0  0  0  0
    5.3379   -2.6855   -2.7574 O   0  0  0  0  0  0  0  0  0  0  0  0
    4.1412   -2.3322   -3.1644 C   0  0  0  0  0  0  0  0  0  0  0  0
    3.8180   -1.8975   -4.2719 O   0  0  0  0  0  0  0  0  0  0  0  0
    3.1471   -2.5668   -2.0498 C   0  0  1  0  0  0  0  0  0  0  0  0
    1.8800   -3.2547   -2.5967 C   0  0  0  0  0  0  0  0  0  0  0  0
    1.8325   -4.7286    6.1841 H   0  0  0  0  0  0  0  0  0  0  0  0
    2.0824   -2.9116    6.4163 H   0  0  0  0  0  0  0  0  0  0  0  0
    2.4673   -1.6652    3.8326 H   0  0  0  0  0  0  0  0  0  0  0  0
    4.8133   -2.1978    5.2733 H   0  0  0  0  0  0  0  0  0  0  0  0
    3.2517   -2.8217    2.5570 H   0  0  0  0  0  0  0  0  0  0  0  0
    4.8700   -5.7299    2.9043 H   0  0  0  0  0  0  0  0  0  0  0  0
    3.9401   -6.0632    4.9442 H   0  0  0  0  0  0  0  0  0  0  0  0
    1.1236   -5.9660    3.1069 H   0  0  0  0  0  0  0  0  0  0  0  0
    1.2824   -4.3174    2.5083 H   0  0  0  0  0  0  0  0  0  0  0  0
    2.8955   -6.7296    1.6751 H   0  0  0  0  0  0  0  0  0  0  0  0
    1.0346   -5.0938   -0.1056 H   0  0  0  0  0  0  0  0  0  0  0  0
    0.8849   -6.7762    0.4299 H   0  0  0  0  0  0  0  0  0  0  0  0
    2.2305   -6.2446   -0.5227 H   0  0  0  0  0  0  0  0  0  0  0  0
    4.4652   -5.7450   -0.3519 H   0  0  0  0  0  0  0  0  0  0  0  0
    2.0681   -2.2976   -0.0695 H   0  0  0  0  0  0  0  0  0  0  0  0
    3.8057   -4.4440   -1.4089 H   0  0  0  0  0  0  0  0  0  0  0  0
    6.0692   -3.9157   -1.2905 H   0  0  0  0  0  0  0  0  0  0  0  0
    7.0120   -1.7729   -0.8399 H   0  0  0  0  0  0  0  0  0  0  0  0
    5.4684   -0.9505   -0.8769 H   0  0  0  0  0  0  0  0  0  0  0  0
    6.2902   -3.0946    1.1076 H   0  0  0  0  0  0  0  0  0  0  0  0
    6.0917   -0.1053    1.5088 H   0  0  0  0  0  0  0  0  0  0  0  0
    7.5790   -1.0503    1.3406 H   0  0  0  0  0  0  0  0  0  0  0  0
    6.5475   -1.2632    2.7479 H   0  0  0  0  0  0  0  0  0  0  0  0
    2.7872   -1.0457    1.1356 H   0  0  0  0  0  0  0  0  0  0  0  0
    2.8765   -1.6002   -1.6197 H   0  0  0  0  0  0  0  0  0  0  0  0
    1.4062   -2.6437   -3.3629 H   0  0  0  0  0  0  0  0  0  0  0  0
    1.1316   -3.4621   -1.8306 H   0  0  0  0  0  0  0  0  0  0  0  0
    2.1120   -4.2083   -3.0898 H   0  0  0  0  0  0  0  0  0  0  0  0
  1  2  2  0
  1 29  1  0
  1 30  1  0
  2  8  1  0
  2  3  1  0
  3  4  1  0
  3  5  1  0
  3 31  1  6
  4 32  1  0
  5 22  1  0
  5  6  1  0
  5 33  1  1
  6  7  1  0
  7 13  1  0
  7  8  1  0
  7 34  1  6
  8  9  1  1
  8 10  1  0
  9 35  1  0
 10 11  1  0
 10 36  1  0
 10 37  1  0
 11 12  1  0
 11 13  1  0
 11 38  1  1
 12 39  1  0
 12 40  1  0
 12 41  1  0
 13 14  1  6
 13 15  1  0
 14 42  1  0
 15 22  1  0
 15 16  1  6
 15 17  1  0
 16 43  1  0
 17 27  1  0
 17 18  1  0
 17 44  1  6
 18 19  1  0
 18 24  1  0
 18 45  1  6
 19 20  1  0
 19 46  1  0
 19 47  1  0
 20 21  1  0
 20 22  1  0
 20 48  1  6
 21 49  1  0
 21 50  1  0
 21 51  1  0
 22 23  1  1
 23 52  1  0
 24 25  1  0
 25 26  2  0
 25 27  1  0
 27 28  1  0
 27 53  1  1
 28 54  1  0
 28 55  1  0
 28 56  1  0
M  END
>  <i_m_ct_stereo_status>  (40) 
1

>  <s_m_source_file>  (40) 
/var/tmp/pbs.5076255.sched01/tmppz0entnt/04_lepiep.sdf

>  <i_m_source_file_index>  (40) 
21

>  <i_lp_mmshare_version>  (40) 
48012

>  <i_f3d_flags>  (40) 
0

>  <s_epik_input>  (40) 
W0NIMl09QzFbQ0BASF0oW09IXSlbQ0BIXShPMilbQ0BAXTMoW09IXSlbQ0BIXShbQ0gzXSlbQ0gyXVtDQEhdKE9DKD1PKVtDQEhdNFtDSDNdKVtDQEhdNFtDQEBdMyhbT0hdKVtDQF0oW09IXSkoW0NAQEhdKFtDSDJdNSlbQ0gzXSlbQ0BASF0yW0NAQF0xNVtPSF0=

>  <s_epik_cmdline>  (40) 
J2VwaWtfcHl0aG9uJywgJy1waHQnLCAnMi4wJywgJy1waCcsICc3LjAnLCAnLXRuJywgJzgnLCAnLW1hJywgJzIwMCcsICctaW1hZScsICc8aW5maWxlLm1hZT4nLCAnLW9tYWUnLCAnPG91dGZpbGUubWFlPic=

>  <r_lp_tautomer_probability>  (40) 
1

>  <r_epik_Ionization_Penalty>  (40) 
7.08544e-07

>  <r_epik_Ionization_Penalty_Charging>  (40) 
0

>  <r_epik_Ionization_Penalty_Neutral>  (40) 
7.08544e-07

>  <r_epik_State_Penalty>  (40) 
-0

>  <r_epik_Charging_Adjusted_Penalty>  (40) 
0

>  <i_epik_Tot_Q>  (40) 
0

>  <i_epik_Tot_abs_Q>  (40) 
0

>  <s_epik_Chemistry_Notes>  (40) 
This compound has an ester and may undergo hydrolysis at high or low pH.

>  <s_lp_Force_Field>  (40) 
OPLS3e

>  <r_lp_Energy>  (40) 
106.182

>  <b_lp_Chiralities_Consistent>  (40) 
1

>  <s_lp_Variant>  (40) 
18:0-1

>  <s_i_glide_gridfile>  (40) 
pfpi4k_grid

>  <i_i_glide_lignum>  (40) 
21

>  <i_i_glide_rotatable_bonds>  (40) 
5

>  <r_i_docking_score>  (40) 
-3.66121

>  <r_i_glide_ligand_efficiency>  (40) 
-0.130758

>  <r_i_glide_ligand_efficiency_sa>  (40) 
-0.397057

>  <r_i_glide_ligand_efficiency_ln>  (40) 
-0.845116

>  <r_i_glide_gscore>  (40) 
-3.66121

>  <r_i_glide_lipo>  (40) 
-0.408958

>  <r_i_glide_hbond>  (40) 
-0.305518

>  <r_i_glide_metal>  (40) 
-0

>  <r_i_glide_rewards>  (40) 
-0.927909

>  <r_i_glide_evdw>  (40) 
-20.9938

>  <r_i_glide_ecoul>  (40) 
-6.46092

>  <r_i_glide_erotb>  (40) 
0

>  <r_i_glide_esite>  (40) 
0

>  <r_i_glide_emodel>  (40) 
-34.9334

>  <r_i_glide_energy>  (40) 
-27.4547

>  <r_i_glide_einternal>  (40) 
0.498594

>  <r_i_glide_intrahb_reward>  (40) 
-0

>  <i_i_glide_confnum>  (40) 
2

>  <i_i_glide_posenum>  (40) 
22

>  <r_i_glide_eff_state_penalty>  (40) 
0

>  <ligand_id>  (40) 
18

>  <original_smiles>  (40) 
C=C1C(O)C2OC3C1(O)CC(C)C3(O)C1(O)C3C(CC(C)C21O)OC(=O)C3C

>  <smiles>  (40) 
[H]OC1([H])C(=C([H])[H])C2(O[H])C([H])([H])C([H])(C([H])([H])[H])C3(O[H])C2([H])OC1([H])C1(O[H])C([H])(C([H])([H])[H])C([H])([H])C2([H])OC(=O)C([H])(C([H])([H])[H])C2([H])C13O[H]

$$$$
18:0:2
     RDKit          3D

 56 60  0  0  1  0  0  0  0  0999 V2000
    4.6019   -0.9537   -2.2216 C   0  0  0  0  0  0  0  0  0  0  0  0
    4.4191   -1.6745   -1.0998 C   0  0  0  0  0  0  0  0  0  0  0  0
    3.8327   -3.1106   -1.1839 C   0  0  1  0  0  0  0  0  0  0  0  0
    4.4157   -3.8322   -2.2555 O   0  0  0  0  0  0  0  0  0  0  0  0
    4.1114   -3.8874    0.1315 C   0  0  2  0  0  0  0  0  0  0  0  0
    5.3890   -3.5451    0.6040 O   0  0  0  0  0  0  0  0  0  0  0  0
    5.3228   -2.3168    1.2872 C   0  0  1  0  0  0  0  0  0  0  0  0
    4.8922   -1.1740    0.3027 C   0  0  1  0  0  0  0  0  0  0  0  0
    5.9891   -0.2883    0.1615 O   0  0  0  0  0  0  0  0  0  0  0  0
    3.8142   -0.4085    1.1023 C   0  0  0  0  0  0  0  0  0  0  0  0
    4.0215   -0.8327    2.5781 C   0  0  1  0  0  0  0  0  0  0  0  0
    2.9652   -0.3138    3.5767 C   0  0  0  0  0  0  0  0  0  0  0  0
    4.3451   -2.3570    2.5292 C   0  0  2  0  0  0  0  0  0  0  0  0
    5.1688   -2.6491    3.6417 O   0  0  0  0  0  0  0  0  0  0  0  0
    3.0981   -3.3970    2.4737 C   0  0  2  0  0  0  0  0  0  0  0  0
    1.9477   -2.6576    2.0930 O   0  0  0  0  0  0  0  0  0  0  0  0
    2.6851   -3.9784    3.8934 C   0  0  2  0  0  0  0  0  0  0  0  0
    3.3438   -5.3221    4.2685 C   0  0  2  0  0  0  0  0  0  0  0  0
    3.4408   -6.3316    3.1167 C   0  0  0  0  0  0  0  0  0  0  0  0
    4.1279   -5.7156    1.8925 C   0  0  1  0  0  0  0  0  0  0  0  0
    4.4438   -6.8109    0.8541 C   0  0  0  0  0  0  0  0  0  0  0  0
    3.3222   -4.5056    1.3302 C   0  0  2  0  0  0  0  0  0  0  0  0
    2.1076   -5.0578    0.8346 O   0  0  0  0  0  0  0  0  0  0  0  0
    2.4829   -5.8590    5.2602 O   0  0  0  0  0  0  0  0  0  0  0  0
    1.2661   -5.3407    5.2594 C   0  0  0  0  0  0  0  0  0  0  0  0
    0.3234   -5.6584    5.9811 O   0  0  0  0  0  0  0  0  0  0  0  0
    1.1922   -4.2218    4.2295 C   0  0  1  0  0  0  0  0  0  0  0  0
    0.4485   -3.0016    4.8237 C   0  0  0  0  0  0  0  0  0  0  0  0
    5.0255    0.0377   -2.2079 H   0  0  0  0  0  0  0  0  0  0  0  0
    4.3070   -1.3461   -3.1835 H   0  0  0  0  0  0  0  0  0  0  0  0
    2.7653   -3.0420   -1.4353 H   0  0  0  0  0  0  0  0  0  0  0  0
    3.8853   -4.5996   -2.4321 H   0  0  0  0  0  0  0  0  0  0  0  0
    3.4163   -3.1002    0.3442 H   0  0  0  0  0  0  0  0  0  0  0  0
    6.3327   -2.1084    1.6423 H   0  0  0  0  0  0  0  0  0  0  0  0
    5.6725    0.5560   -0.1574 H   0  0  0  0  0  0  0  0  0  0  0  0
    3.8818    0.6731    0.9767 H   0  0  0  0  0  0  0  0  0  0  0  0
    2.8195   -0.6868    0.7563 H   0  0  0  0  0  0  0  0  0  0  0  0
    4.9481   -0.3404    2.8824 H   0  0  0  0  0  0  0  0  0  0  0  0
    1.9433   -0.5043    3.2567 H   0  0  0  0  0  0  0  0  0  0  0  0
    3.0483    0.7668    3.6926 H   0  0  0  0  0  0  0  0  0  0  0  0
    3.0990   -0.7583    4.5629 H   0  0  0  0  0  0  0  0  0  0  0  0
    4.7064   -2.4022    4.4276 H   0  0  0  0  0  0  0  0  0  0  0  0
    2.1197   -2.2020    1.2831 H   0  0  0  0  0  0  0  0  0  0  0  0
    2.9934   -3.2583    4.6487 H   0  0  0  0  0  0  0  0  0  0  0  0
    4.3350   -5.1588    4.6922 H   0  0  0  0  0  0  0  0  0  0  0  0
    4.0015   -7.2018    3.4617 H   0  0  0  0  0  0  0  0  0  0  0  0
    2.4515   -6.7049    2.8432 H   0  0  0  0  0  0  0  0  0  0  0  0
    5.0929   -5.3443    2.2432 H   0  0  0  0  0  0  0  0  0  0  0  0
    3.5343   -7.2824    0.4822 H   0  0  0  0  0  0  0  0  0  0  0  0
    5.0483   -7.6012    1.3008 H   0  0  0  0  0  0  0  0  0  0  0  0
    5.0040   -6.4218    0.0021 H   0  0  0  0  0  0  0  0  0  0  0  0
    2.3353   -5.6646    0.1519 H   0  0  0  0  0  0  0  0  0  0  0  0
    0.6571   -4.6043    3.3623 H   0  0  0  0  0  0  0  0  0  0  0  0
   -0.5734   -3.2587    5.1122 H   0  0  0  0  0  0  0  0  0  0  0  0
    0.3760   -2.1852    4.1049 H   0  0  0  0  0  0  0  0  0  0  0  0
    0.9471   -2.6139    5.7179 H   0  0  0  0  0  0  0  0  0  0  0  0
  1  2  2  0
  1 29  1  0
  1 30  1  0
  2  8  1  0
  2  3  1  0
  3  4  1  0
  3  5  1  0
  3 31  1  6
  4 32  1  0
  5 22  1  0
  5  6  1  0
  5 33  1  6
  6  7  1  0
  7 13  1  0
  7  8  1  0
  7 34  1  1
  8  9  1  6
  8 10  1  0
  9 35  1  0
 10 11  1  0
 10 36  1  0
 10 37  1  0
 11 12  1  0
 11 13  1  0
 11 38  1  1
 12 39  1  0
 12 40  1  0
 12 41  1  0
 13 14  1  1
 13 15  1  0
 14 42  1  0
 15 22  1  0
 15 16  1  6
 15 17  1  0
 16 43  1  0
 17 27  1  0
 17 18  1  0
 17 44  1  1
 18 19  1  0
 18 24  1  0
 18 45  1  1
 19 20  1  0
 19 46  1  0
 19 47  1  0
 20 21  1  0
 20 22  1  0
 20 48  1  1
 21 49  1  0
 21 50  1  0
 21 51  1  0
 22 23  1  6
 23 52  1  0
 24 25  1  0
 25 26  2  0
 25 27  1  0
 27 28  1  0
 27 53  1  6
 28 54  1  0
 28 55  1  0
 28 56  1  0
M  END
>  <i_m_ct_stereo_status>  (41) 
1

>  <s_m_source_file>  (41) 
/var/tmp/pbs.5076255.sched01/tmppz0entnt/04_lepiep.sdf

>  <i_m_source_file_index>  (41) 
21

>  <i_lp_mmshare_version>  (41) 
48012

>  <i_f3d_flags>  (41) 
0

>  <s_epik_input>  (41) 
W0NIMl09QzFbQ0BASF0oW09IXSlbQ0BIXShPMilbQ0BAXTMoW09IXSlbQ0BIXShbQ0gzXSlbQ0gyXVtDQEhdKE9DKD1PKVtDQEhdNFtDSDNdKVtDQEhdNFtDQEBdMyhbT0hdKVtDQF0oW09IXSkoW0NAQEhdKFtDSDJdNSlbQ0gzXSlbQ0BASF0yW0NAQF0xNVtPSF0=

>  <s_epik_cmdline>  (41) 
J2VwaWtfcHl0aG9uJywgJy1waHQnLCAnMi4wJywgJy1waCcsICc3LjAnLCAnLXRuJywgJzgnLCAnLW1hJywgJzIwMCcsICctaW1hZScsICc8aW5maWxlLm1hZT4nLCAnLW9tYWUnLCAnPG91dGZpbGUubWFlPic=

>  <r_lp_tautomer_probability>  (41) 
1

>  <r_epik_Ionization_Penalty>  (41) 
7.08544e-07

>  <r_epik_Ionization_Penalty_Charging>  (41) 
0

>  <r_epik_Ionization_Penalty_Neutral>  (41) 
7.08544e-07

>  <r_epik_State_Penalty>  (41) 
-0

>  <r_epik_Charging_Adjusted_Penalty>  (41) 
0

>  <i_epik_Tot_Q>  (41) 
0

>  <i_epik_Tot_abs_Q>  (41) 
0

>  <s_epik_Chemistry_Notes>  (41) 
This compound has an ester and may undergo hydrolysis at high or low pH.

>  <s_lp_Force_Field>  (41) 
OPLS3e

>  <r_lp_Energy>  (41) 
106.182

>  <b_lp_Chiralities_Consistent>  (41) 
1

>  <s_lp_Variant>  (41) 
18:0-1

>  <s_i_glide_gridfile>  (41) 
pfpi4k_grid

>  <i_i_glide_lignum>  (41) 
21

>  <i_i_glide_rotatable_bonds>  (41) 
5

>  <r_i_docking_score>  (41) 
-3.64972

>  <r_i_glide_ligand_efficiency>  (41) 
-0.130347

>  <r_i_glide_ligand_efficiency_sa>  (41) 
-0.39581

>  <r_i_glide_ligand_efficiency_ln>  (41) 
-0.842461

>  <r_i_glide_gscore>  (41) 
-3.64972

>  <r_i_glide_lipo>  (41) 
-0.329761

>  <r_i_glide_hbond>  (41) 
0

>  <r_i_glide_metal>  (41) 
-0

>  <r_i_glide_rewards>  (41) 
-0.706149

>  <r_i_glide_evdw>  (41) 
-22.7528

>  <r_i_glide_ecoul>  (41) 
-9.83783

>  <r_i_glide_erotb>  (41) 
0

>  <r_i_glide_esite>  (41) 
-0.000492427

>  <r_i_glide_emodel>  (41) 
-40.5342

>  <r_i_glide_energy>  (41) 
-32.5906

>  <r_i_glide_einternal>  (41) 
0.789596

>  <r_i_glide_intrahb_reward>  (41) 
-0

>  <i_i_glide_confnum>  (41) 
2

>  <i_i_glide_posenum>  (41) 
39

>  <r_i_glide_eff_state_penalty>  (41) 
0

>  <ligand_id>  (41) 
18

>  <original_smiles>  (41) 
C=C1C(O)C2OC3C1(O)CC(C)C3(O)C1(O)C3C(CC(C)C21O)OC(=O)C3C

>  <smiles>  (41) 
[H]OC1([H])C(=C([H])[H])C2(O[H])C([H])([H])C([H])(C([H])([H])[H])C3(O[H])C2([H])OC1([H])C1(O[H])C([H])(C([H])([H])[H])C([H])([H])C2([H])OC(=O)C([H])(C([H])([H])[H])C2([H])C13O[H]

$$$$
19:0:0
     RDKit          3D

 92 97  0  0  1  0  0  0  0  0999 V2000
    4.6162   -8.5461    4.2764 C   0  0  0  0  0  0  0  0  0  0  0  0
    4.7089   -6.9885    4.2601 C   0  0  1  0  0  0  0  0  0  0  0  0
    5.8500   -6.5556    5.2174 C   0  0  0  0  0  0  0  0  0  0  0  0
    7.2482   -6.9044    4.6985 C   0  0  0  0  0  0  0  0  0  0  0  0
    7.4867   -6.3660    3.2829 C   0  0  1  0  0  0  0  0  0  0  0  0
    8.7840   -6.7388    2.8811 O   0  0  0  0  0  0  0  0  0  0  0  0
    6.3992   -6.7486    2.2345 C   0  0  0  0  0  0  0  0  0  0  0  0
    6.7831   -6.0710    0.8865 C   0  0  0  0  0  0  0  0  0  0  0  0
    6.5127   -8.2677    1.8867 C   0  0  0  0  0  0  0  0  0  0  0  0
    4.9303   -6.3859    2.7963 C   0  0  2  0  0  0  0  0  0  0  0  0
    4.3285   -4.8909    2.5466 C   0  0  2  0  0  0  0  0  0  0  0  0
    4.0893   -4.7183    1.0068 C   0  0  0  0  0  0  0  0  0  0  0  0
    5.2959   -3.7410    2.9886 C   0  0  0  0  0  0  0  0  0  0  0  0
    4.7768   -2.2936    2.7710 C   0  0  0  0  0  0  0  0  0  0  0  0
    3.4961   -2.0056    3.5857 C   0  0  2  0  0  0  0  0  0  0  0  0
    3.8953   -1.9288    5.0953 C   0  0  0  0  0  0  0  0  0  0  0  0
    2.4937   -3.1327    3.2207 C   0  0  2  0  0  0  0  0  0  0  0  0
    1.1672   -2.6517    3.8071 C   0  0  0  0  0  0  0  0  0  0  0  0
    1.1760   -1.1180    3.5832 C   0  0  1  0  0  0  0  0  0  0  0  0
    0.5421   -0.3503    4.7768 C   0  0  2  0  0  0  0  0  0  0  0  0
   -0.9872   -0.5134    4.8549 C   0  0  1  0  0  0  0  0  0  0  0  0
   -1.3990   -1.5942    5.6750 O   0  0  0  0  0  0  0  0  0  0  0  0
   -1.5448    0.8492    5.2919 C   0  0  1  0  0  0  0  0  0  0  0  0
   -1.5255    0.9648    6.7085 O   0  0  0  0  0  0  0  0  0  0  0  0
   -0.6045    1.8705    4.6118 C   0  0  0  0  0  0  0  0  0  0  0  0
   -1.0253    2.0257    3.1285 C   0  0  0  0  0  0  0  0  0  0  0  0
   -0.6415    3.2716    5.2606 C   0  0  0  0  0  0  0  0  0  0  0  0
    0.7733    1.1817    4.7761 C   0  0  2  0  0  0  0  0  0  0  0  0
    1.9290    1.6644    3.8798 C   0  0  0  0  0  0  0  0  0  0  0  0
    3.0594    0.6279    3.8820 C   0  0  0  0  0  0  0  0  0  0  0  0
    2.6470   -0.7176    3.2005 C   0  0  1  0  0  0  0  0  0  0  0  0
    2.7043   -0.4239    1.6684 C   0  0  0  0  0  0  0  0  0  0  0  0
    2.9334   -4.6516    3.2920 C   0  0  1  0  0  0  0  0  0  0  0  0
    1.7971   -5.4740    2.6126 C   0  0  0  0  0  0  0  0  0  0  0  0
    3.0122   -5.1226    4.7564 C   0  0  0  0  0  0  0  0  0  0  0  0
    3.3451   -6.5981    4.8715 C   0  0  0  0  0  0  0  0  0  0  0  0
    4.1185   -8.9080    5.1752 H   0  0  0  0  0  0  0  0  0  0  0  0
    5.5729   -9.0536    4.2930 H   0  0  0  0  0  0  0  0  0  0  0  0
    4.0450   -8.9294    3.4308 H   0  0  0  0  0  0  0  0  0  0  0  0
    5.8123   -5.4872    5.3955 H   0  0  0  0  0  0  0  0  0  0  0  0
    5.7079   -7.0096    6.1955 H   0  0  0  0  0  0  0  0  0  0  0  0
    7.9871   -6.4713    5.3700 H   0  0  0  0  0  0  0  0  0  0  0  0
    7.4189   -7.9784    4.7451 H   0  0  0  0  0  0  0  0  0  0  0  0
    7.5218   -5.2875    3.3548 H   0  0  0  0  0  0  0  0  0  0  0  0
    8.7947   -7.6494    2.6196 H   0  0  0  0  0  0  0  0  0  0  0  0
    6.0484   -6.2605    0.1063 H   0  0  0  0  0  0  0  0  0  0  0  0
    7.7369   -6.4405    0.5087 H   0  0  0  0  0  0  0  0  0  0  0  0
    6.9382   -5.0003    0.9649 H   0  0  0  0  0  0  0  0  0  0  0  0
    5.5627   -8.6934    1.5634 H   0  0  0  0  0  0  0  0  0  0  0  0
    6.8910   -8.8666    2.7104 H   0  0  0  0  0  0  0  0  0  0  0  0
    7.2167   -8.4695    1.0804 H   0  0  0  0  0  0  0  0  0  0  0  0
    4.2677   -6.9934    2.1821 H   0  0  0  0  0  0  0  0  0  0  0  0
    3.2980   -4.0258    0.7399 H   0  0  0  0  0  0  0  0  0  0  0  0
    3.8275   -5.6558    0.5143 H   0  0  0  0  0  0  0  0  0  0  0  0
    4.9538   -4.3038    0.4934 H   0  0  0  0  0  0  0  0  0  0  0  0
    5.5846   -3.8703    4.0251 H   0  0  0  0  0  0  0  0  0  0  0  0
    6.2296   -3.7912    2.4513 H   0  0  0  0  0  0  0  0  0  0  0  0
    5.5544   -1.5778    3.0392 H   0  0  0  0  0  0  0  0  0  0  0  0
    4.6086   -2.1566    1.7048 H   0  0  0  0  0  0  0  0  0  0  0  0
    3.0339   -1.8197    5.7511 H   0  0  0  0  0  0  0  0  0  0  0  0
    4.5651   -1.0915    5.2799 H   0  0  0  0  0  0  0  0  0  0  0  0
    4.4827   -2.7560    5.4653 H   0  0  0  0  0  0  0  0  0  0  0  0
    2.2928   -3.0015    2.1687 H   0  0  0  0  0  0  0  0  0  0  0  0
    0.3164   -3.1136    3.3113 H   0  0  0  0  0  0  0  0  0  0  0  0
    1.1083   -2.8984    4.8661 H   0  0  0  0  0  0  0  0  0  0  0  0
    0.5621   -0.9094    2.7085 H   0  0  0  0  0  0  0  0  0  0  0  0
    0.9862   -0.7233    5.7023 H   0  0  0  0  0  0  0  0  0  0  0  0
   -1.3795   -0.7106    3.8580 H   0  0  0  0  0  0  0  0  0  0  0  0
   -0.9936   -2.3742    5.3327 H   0  0  0  0  0  0  0  0  0  0  0  0
   -2.5643    0.9847    4.9563 H   0  0  0  0  0  0  0  0  0  0  0  0
   -1.6812    1.8693    6.9285 H   0  0  0  0  0  0  0  0  0  0  0  0
   -0.4393    2.7963    2.6188 H   0  0  0  0  0  0  0  0  0  0  0  0
   -2.0682    2.3278    3.0498 H   0  0  0  0  0  0  0  0  0  0  0  0
   -0.9085    1.1057    2.5567 H   0  0  0  0  0  0  0  0  0  0  0  0
    0.0192    3.9583    4.7258 H   0  0  0  0  0  0  0  0  0  0  0  0
   -0.3116    3.2624    6.3002 H   0  0  0  0  0  0  0  0  0  0  0  0
   -1.6460    3.6937    5.2289 H   0  0  0  0  0  0  0  0  0  0  0  0
    1.1000    1.4080    5.7924 H   0  0  0  0  0  0  0  0  0  0  0  0
    1.6044    1.8759    2.8691 H   0  0  0  0  0  0  0  0  0  0  0  0
    2.3095    2.6101    4.2698 H   0  0  0  0  0  0  0  0  0  0  0  0
    3.9438    1.0431    3.3972 H   0  0  0  0  0  0  0  0  0  0  0  0
    3.3249    0.5278    4.9292 H   0  0  0  0  0  0  0  0  0  0  0  0
    2.0116    0.3635    1.3744 H   0  0  0  0  0  0  0  0  0  0  0  0
    2.4368   -1.2731    1.0451 H   0  0  0  0  0  0  0  0  0  0  0  0
    3.6937   -0.0946    1.3539 H   0  0  0  0  0  0  0  0  0  0  0  0
    0.9151   -5.5298    3.2539 H   0  0  0  0  0  0  0  0  0  0  0  0
    2.0977   -6.4961    2.3898 H   0  0  0  0  0  0  0  0  0  0  0  0
    1.4729   -5.0422    1.6681 H   0  0  0  0  0  0  0  0  0  0  0  0
    3.7649   -4.5996    5.3209 H   0  0  0  0  0  0  0  0  0  0  0  0
    2.0736   -4.9334    5.2751 H   0  0  0  0  0  0  0  0  0  0  0  0
    2.5437   -7.1945    4.4338 H   0  0  0  0  0  0  0  0  0  0  0  0
    3.3337   -6.8618    5.9297 H   0  0  0  0  0  0  0  0  0  0  0  0
  2  1  1  6
  1 37  1  0
  1 38  1  0
  1 39  1  0
  2 10  1  0
  2 36  1  0
  2  3  1  0
  3  4  1  0
  3 40  1  0
  3 41  1  0
  4  5  1  0
  4 42  1  0
  4 43  1  0
  5  6  1  0
  5  7  1  0
  5 44  1  1
  6 45  1  0
  7  8  1  0
  7  9  1  0
  7 10  1  0
  8 46  1  0
  8 47  1  0
  8 48  1  0
  9 49  1  0
  9 50  1  0
  9 51  1  0
 10 11  1  0
 10 52  1  6
 11 33  1  0
 11 12  1  6
 11 13  1  0
 12 53  1  0
 12 54  1  0
 12 55  1  0
 13 14  1  0
 13 56  1  0
 13 57  1  0
 14 15  1  0
 14 58  1  0
 14 59  1  0
 15 31  1  0
 15 16  1  1
 15 17  1  0
 16 60  1  0
 16 61  1  0
 16 62  1  0
 17 18  1  0
 17 33  1  0
 17 63  1  6
 18 19  1  0
 18 64  1  0
 18 65  1  0
 19 31  1  0
 19 20  1  0
 19 66  1  6
 20 28  1  0
 20 21  1  0
 20 67  1  1
 21 22  1  0
 21 23  1  0
 21 68  1  6
 22 69  1  0
 23 24  1  0
 23 25  1  0
 23 70  1  6
 24 71  1  0
 25 26  1  0
 25 27  1  0
 25 28  1  0
 26 72  1  0
 26 73  1  0
 26 74  1  0
 27 75  1  0
 27 76  1  0
 27 77  1  0
 28 29  1  0
 28 78  1  1
 29 30  1  0
 29 79  1  0
 29 80  1  0
 30 31  1  0
 30 81  1  0
 30 82  1  0
 31 32  1  6
 32 83  1  0
 32 84  1  0
 32 85  1  0
 33 34  1  6
 33 35  1  0
 34 86  1  0
 34 87  1  0
 34 88  1  0
 35 36  1  0
 35 89  1  0
 35 90  1  0
 36 91  1  0
 36 92  1  0
M  END
>  <i_m_ct_stereo_status>  (42) 
1

>  <s_m_source_file>  (42) 
/var/tmp/pbs.5076255.sched01/tmppz0entnt/04_lepiep.sdf

>  <i_m_source_file_index>  (42) 
22

>  <i_lp_mmshare_version>  (42) 
48012

>  <i_f3d_flags>  (42) 
0

>  <s_epik_input>  (42) 
W0NIMl0xW0NIMl1bQ0BASF0oW09IXSlDKFtDSDNdKShbQ0gzXSlbQ0BASF0oW0NAQF0xMltDSDNdKVtDQEBdMyhbQ0gzXSlbQ0BAXShbQ0gzXSkoW0NIMl1bQ0gyXTIpW0NAQEhdNFtDQEBdKFtDSDNdKShbQ0gyXVtDSDJdMylbQ0BAXTUoW0NIM10pW0NAQEhdKFtDSDJdNClbQ0BIXTZbQ0BASF0oW0NIMl1bQ0gyXTUpQyhbQ0gzXSkoW0NIM10pW0NASF0oW09IXSlbQ0BASF02W09IXQ==

>  <s_epik_cmdline>  (42) 
J2VwaWtfcHl0aG9uJywgJy1waHQnLCAnMi4wJywgJy1waCcsICc3LjAnLCAnLXRuJywgJzgnLCAnLW1hJywgJzIwMCcsICctaW1hZScsICc8aW5maWxlLm1hZT4nLCAnLW9tYWUnLCAnPG91dGZpbGUubWFlPic=

>  <r_lp_tautomer_probability>  (42) 
1

>  <r_epik_Ionization_Penalty>  (42) 
5.09977e-06

>  <r_epik_Ionization_Penalty_Charging>  (42) 
0

>  <r_epik_Ionization_Penalty_Neutral>  (42) 
5.09977e-06

>  <r_epik_State_Penalty>  (42) 
-0

>  <r_epik_Charging_Adjusted_Penalty>  (42) 
0

>  <i_epik_Tot_Q>  (42) 
0

>  <i_epik_Tot_abs_Q>  (42) 
0

>  <s_lp_Force_Field>  (42) 
OPLS3e

>  <r_lp_Energy>  (42) 
138.783

>  <b_lp_Chiralities_Consistent>  (42) 
1

>  <s_lp_Variant>  (42) 
19:0-1

>  <s_i_glide_gridfile>  (42) 
pfpi4k_grid

>  <i_i_glide_lignum>  (42) 
22

>  <i_i_glide_rotatable_bonds>  (42) 
3

>  <r_i_docking_score>  (42) 
-2.60064

>  <r_i_glide_ligand_efficiency>  (42) 
-0.0722401

>  <r_i_glide_ligand_efficiency_sa>  (42) 
-0.238531

>  <r_i_glide_ligand_efficiency_ln>  (42) 
-0.56739

>  <r_i_glide_gscore>  (42) 
-2.60064

>  <r_i_glide_lipo>  (42) 
-0.349362

>  <r_i_glide_hbond>  (42) 
0

>  <r_i_glide_metal>  (42) 
-0

>  <r_i_glide_rewards>  (42) 
0

>  <r_i_glide_evdw>  (42) 
-29.4296

>  <r_i_glide_ecoul>  (42) 
-5.19869

>  <r_i_glide_erotb>  (42) 
0

>  <r_i_glide_esite>  (42) 
0

>  <r_i_glide_emodel>  (42) 
-39.9186

>  <r_i_glide_energy>  (42) 
-34.6282

>  <r_i_glide_einternal>  (42) 
1.01284

>  <r_i_glide_intrahb_reward>  (42) 
-0

>  <i_i_glide_confnum>  (42) 
2

>  <i_i_glide_posenum>  (42) 
21

>  <r_i_glide_eff_state_penalty>  (42) 
0

>  <ligand_id>  (42) 
19

>  <original_smiles>  (42) 
CC12CCC(O)C(C)(C)C1C1(C)CCC3(C)C(CC4C5C(O)C(O)C(C)(C)C5CCC43C)C1(C)CC2

>  <smiles>  (42) 
[H]OC1([H])C([H])(O[H])C(C([H])([H])[H])(C([H])([H])[H])C2([H])C([H])([H])C([H])([H])C3(C([H])([H])[H])C([H])(C([H])([H])C4([H])C3(C([H])([H])[H])C([H])([H])C([H])([H])C3(C([H])([H])[H])C5([H])C(C([H])([H])[H])(C([H])([H])C([H])([H])C([H])(O[H])C5(C([H])([H])[H])C([H])([H])[H])C([H])([H])C([H])([H])C43C([H])([H])[H])C12[H]

$$$$
19:0:1
     RDKit          3D

 92 97  0  0  1  0  0  0  0  0999 V2000
    7.5456   -3.7440   -0.0912 C   0  0  0  0  0  0  0  0  0  0  0  0
    6.2670   -3.7056    0.8085 C   0  0  1  0  0  0  0  0  0  0  0  0
    6.1448   -2.2667    1.3950 C   0  0  0  0  0  0  0  0  0  0  0  0
    5.7704   -1.2225    0.3739 C   0  0  0  0  0  0  0  0  0  0  0  0
    4.4914   -1.5975   -0.3643 C   0  0  1  0  0  0  0  0  0  0  0  0
    4.4012   -0.6671   -1.4172 O   0  0  0  0  0  0  0  0  0  0  0  0
    4.4758   -3.0186   -0.9884 C   0  0  0  0  0  0  0  0  0  0  0  0
    3.0676   -3.1873   -1.6024 C   0  0  0  0  0  0  0  0  0  0  0  0
    5.4137   -3.0650   -2.2364 C   0  0  0  0  0  0  0  0  0  0  0  0
    4.9058   -4.1187    0.1032 C   0  0  2  0  0  0  0  0  0  0  0  0
    3.7839   -4.7469    1.0999 C   0  0  2  0  0  0  0  0  0  0  0  0
    2.8188   -5.5908    0.2385 C   0  0  0  0  0  0  0  0  0  0  0  0
    2.9069   -3.6788    1.8338 C   0  0  0  0  0  0  0  0  0  0  0  0
    1.8185   -4.2561    2.7780 C   0  0  0  0  0  0  0  0  0  0  0  0
    2.4147   -5.0854    3.9316 C   0  0  2  0  0  0  0  0  0  0  0  0
    3.1329   -4.1009    4.8990 C   0  0  0  0  0  0  0  0  0  0  0  0
    3.3206   -6.1555    3.2719 C   0  0  2  0  0  0  0  0  0  0  0  0
    3.6552   -7.1199    4.4049 C   0  0  0  0  0  0  0  0  0  0  0  0
    2.3490   -7.2040    5.2276 C   0  0  1  0  0  0  0  0  0  0  0  0
    2.6283   -7.2931    6.7575 C   0  0  2  0  0  0  0  0  0  0  0  0
    3.1855   -8.6681    7.1786 C   0  0  1  0  0  0  0  0  0  0  0  0
    4.5955   -8.6866    7.2030 O   0  0  0  0  0  0  0  0  0  0  0  0
    2.5454   -8.9966    8.5405 C   0  0  1  0  0  0  0  0  0  0  0  0
    3.2671   -8.3609    9.5795 O   0  0  0  0  0  0  0  0  0  0  0  0
    1.1253   -8.3992    8.4252 C   0  0  0  0  0  0  0  0  0  0  0  0
    0.2336   -9.3702    7.6185 C   0  0  0  0  0  0  0  0  0  0  0  0
    0.4464   -8.1655    9.7900 C   0  0  0  0  0  0  0  0  0  0  0  0
    1.4003   -7.0708    7.6724 C   0  0  2  0  0  0  0  0  0  0  0  0
    0.2162   -6.3863    6.9802 C   0  0  0  0  0  0  0  0  0  0  0  0
    0.7018   -5.3577    5.9612 C   0  0  0  0  0  0  0  0  0  0  0  0
    1.4326   -6.0200    4.7549 C   0  0  1  0  0  0  0  0  0  0  0  0
    0.2959   -6.6190    3.8586 C   0  0  0  0  0  0  0  0  0  0  0  0
    4.4016   -5.7336    2.2039 C   0  0  1  0  0  0  0  0  0  0  0  0
    4.9251   -7.0462    1.5558 C   0  0  0  0  0  0  0  0  0  0  0  0
    5.6019   -5.0626    2.8802 C   0  0  0  0  0  0  0  0  0  0  0  0
    6.6703   -4.7530    1.8631 C   0  0  0  0  0  0  0  0  0  0  0  0
    8.4645   -3.7104    0.5317 H   0  0  0  0  0  0  0  0  0  0  0  0
    7.6707   -2.9013   -0.7646 H   0  0  0  0  0  0  0  0  0  0  0  0
    7.5659   -4.6395   -0.6900 H   0  0  0  0  0  0  0  0  0  0  0  0
    5.4669   -2.2152    2.2329 H   0  0  0  0  0  0  0  0  0  0  0  0
    7.1137   -1.9315    1.7145 H   0  0  0  0  0  0  0  0  0  0  0  0
    5.6552   -0.2560    0.8677 H   0  0  0  0  0  0  0  0  0  0  0  0
    6.5836   -1.0784   -0.3333 H   0  0  0  0  0  0  0  0  0  0  0  0
    3.6653   -1.4645    0.3387 H   0  0  0  0  0  0  0  0  0  0  0  0
    4.3994    0.1968   -1.0292 H   0  0  0  0  0  0  0  0  0  0  0  0
    2.9563   -4.1766   -2.0303 H   0  0  0  0  0  0  0  0  0  0  0  0
    2.8887   -2.4784   -2.4143 H   0  0  0  0  0  0  0  0  0  0  0  0
    2.2531   -3.0091   -0.9131 H   0  0  0  0  0  0  0  0  0  0  0  0
    5.7976   -4.0630   -2.4341 H   0  0  0  0  0  0  0  0  0  0  0  0
    6.2486   -2.3801   -2.1729 H   0  0  0  0  0  0  0  0  0  0  0  0
    4.8985   -2.7514   -3.1451 H   0  0  0  0  0  0  0  0  0  0  0  0
    5.2084   -4.9708   -0.5199 H   0  0  0  0  0  0  0  0  0  0  0  0
    2.3408   -6.4230    0.7427 H   0  0  0  0  0  0  0  0  0  0  0  0
    3.3869   -6.0460   -0.5618 H   0  0  0  0  0  0  0  0  0  0  0  0
    1.9917   -5.0224   -0.1801 H   0  0  0  0  0  0  0  0  0  0  0  0
    3.5338   -2.9907    2.3813 H   0  0  0  0  0  0  0  0  0  0  0  0
    2.3795   -3.0485    1.1262 H   0  0  0  0  0  0  0  0  0  0  0  0
    1.2182   -3.4383    3.1807 H   0  0  0  0  0  0  0  0  0  0  0  0
    1.1477   -4.8735    2.1858 H   0  0  0  0  0  0  0  0  0  0  0  0
    3.6582   -4.6152    5.7011 H   0  0  0  0  0  0  0  0  0  0  0  0
    2.4192   -3.4108    5.3452 H   0  0  0  0  0  0  0  0  0  0  0  0
    3.8268   -3.4205    4.4318 H   0  0  0  0  0  0  0  0  0  0  0  0
    2.6641   -6.7823    2.6856 H   0  0  0  0  0  0  0  0  0  0  0  0
    3.9530   -8.0994    4.0287 H   0  0  0  0  0  0  0  0  0  0  0  0
    4.4748   -6.7315    5.0051 H   0  0  0  0  0  0  0  0  0  0  0  0
    1.8367   -8.1236    4.9449 H   0  0  0  0  0  0  0  0  0  0  0  0
    3.3439   -6.5133    7.0220 H   0  0  0  0  0  0  0  0  0  0  0  0
    2.8648   -9.4291    6.4616 H   0  0  0  0  0  0  0  0  0  0  0  0
    4.8676   -9.5807    7.3727 H   0  0  0  0  0  0  0  0  0  0  0  0
    2.5495  -10.0721    8.7383 H   0  0  0  0  0  0  0  0  0  0  0  0
    2.9064   -8.6673   10.4035 H   0  0  0  0  0  0  0  0  0  0  0  0
   -0.8005   -9.0423    7.5724 H   0  0  0  0  0  0  0  0  0  0  0  0
    0.2197  -10.3422    8.0999 H   0  0  0  0  0  0  0  0  0  0  0  0
    0.5873   -9.5228    6.5998 H   0  0  0  0  0  0  0  0  0  0  0  0
   -0.5829   -7.8012    9.6390 H   0  0  0  0  0  0  0  0  0  0  0  0
    0.9714   -7.4320   10.3998 H   0  0  0  0  0  0  0  0  0  0  0  0
    0.3783   -9.0869   10.3615 H   0  0  0  0  0  0  0  0  0  0  0  0
    1.7365   -6.3518    8.4307 H   0  0  0  0  0  0  0  0  0  0  0  0
   -0.4412   -7.1006    6.4873 H   0  0  0  0  0  0  0  0  0  0  0  0
   -0.3871   -5.8838    7.7199 H   0  0  0  0  0  0  0  0  0  0  0  0
   -0.1429   -4.7733    5.6103 H   0  0  0  0  0  0  0  0  0  0  0  0
    1.3139   -4.6678    6.5464 H   0  0  0  0  0  0  0  0  0  0  0  0
   -0.2908   -7.3725    4.3794 H   0  0  0  0  0  0  0  0  0  0  0  0
    0.6535   -7.1206    2.9618 H   0  0  0  0  0  0  0  0  0  0  0  0
   -0.4021   -5.8535    3.5450 H   0  0  0  0  0  0  0  0  0  0  0  0
    5.5849   -7.5750    2.2451 H   0  0  0  0  0  0  0  0  0  0  0  0
    5.4943   -6.8643    0.6474 H   0  0  0  0  0  0  0  0  0  0  0  0
    4.1318   -7.7379    1.2792 H   0  0  0  0  0  0  0  0  0  0  0  0
    5.3497   -4.1370    3.3639 H   0  0  0  0  0  0  0  0  0  0  0  0
    6.0172   -5.7028    3.6614 H   0  0  0  0  0  0  0  0  0  0  0  0
    7.0496   -5.6596    1.3852 H   0  0  0  0  0  0  0  0  0  0  0  0
    7.5366   -4.4047    2.3908 H   0  0  0  0  0  0  0  0  0  0  0  0
  2  1  1  6
  1 37  1  0
  1 38  1  0
  1 39  1  0
  2 10  1  0
  2 36  1  0
  2  3  1  0
  3  4  1  0
  3 40  1  0
  3 41  1  0
  4  5  1  0
  4 42  1  0
  4 43  1  0
  5  6  1  0
  5  7  1  0
  5 44  1  1
  6 45  1  0
  7  8  1  0
  7  9  1  0
  7 10  1  0
  8 46  1  0
  8 47  1  0
  8 48  1  0
  9 49  1  0
  9 50  1  0
  9 51  1  0
 10 11  1  0
 10 52  1  6
 11 33  1  0
 11 12  1  6
 11 13  1  0
 12 53  1  0
 12 54  1  0
 12 55  1  0
 13 14  1  0
 13 56  1  0
 13 57  1  0
 14 15  1  0
 14 58  1  0
 14 59  1  0
 15 31  1  0
 15 16  1  1
 15 17  1  0
 16 60  1  0
 16 61  1  0
 16 62  1  0
 17 18  1  0
 17 33  1  0
 17 63  1  6
 18 19  1  0
 18 64  1  0
 18 65  1  0
 19 31  1  0
 19 20  1  0
 19 66  1  6
 20 28  1  0
 20 21  1  0
 20 67  1  1
 21 22  1  0
 21 23  1  0
 21 68  1  6
 22 69  1  0
 23 24  1  0
 23 25  1  0
 23 70  1  1
 24 71  1  0
 25 26  1  0
 25 27  1  0
 25 28  1  0
 26 72  1  0
 26 73  1  0
 26 74  1  0
 27 75  1  0
 27 76  1  0
 27 77  1  0
 28 29  1  0
 28 78  1  1
 29 30  1  0
 29 79  1  0
 29 80  1  0
 30 31  1  0
 30 81  1  0
 30 82  1  0
 31 32  1  6
 32 83  1  0
 32 84  1  0
 32 85  1  0
 33 34  1  6
 33 35  1  0
 34 86  1  0
 34 87  1  0
 34 88  1  0
 35 36  1  0
 35 89  1  0
 35 90  1  0
 36 91  1  0
 36 92  1  0
M  END
>  <i_m_ct_stereo_status>  (43) 
1

>  <s_m_source_file>  (43) 
/var/tmp/pbs.5076255.sched01/tmppz0entnt/04_lepiep.sdf

>  <i_m_source_file_index>  (43) 
22

>  <i_lp_mmshare_version>  (43) 
48012

>  <i_f3d_flags>  (43) 
0

>  <s_epik_input>  (43) 
W0NIMl0xW0NIMl1bQ0BASF0oW09IXSlDKFtDSDNdKShbQ0gzXSlbQ0BASF0oW0NAQF0xMltDSDNdKVtDQEBdMyhbQ0gzXSlbQ0BAXShbQ0gzXSkoW0NIMl1bQ0gyXTIpW0NAQEhdNFtDQEBdKFtDSDNdKShbQ0gyXVtDSDJdMylbQ0BAXTUoW0NIM10pW0NAQEhdKFtDSDJdNClbQ0BIXTZbQ0BASF0oW0NIMl1bQ0gyXTUpQyhbQ0gzXSkoW0NIM10pW0NASF0oW09IXSlbQ0BASF02W09IXQ==

>  <s_epik_cmdline>  (43) 
J2VwaWtfcHl0aG9uJywgJy1waHQnLCAnMi4wJywgJy1waCcsICc3LjAnLCAnLXRuJywgJzgnLCAnLW1hJywgJzIwMCcsICctaW1hZScsICc8aW5maWxlLm1hZT4nLCAnLW9tYWUnLCAnPG91dGZpbGUubWFlPic=

>  <r_lp_tautomer_probability>  (43) 
1

>  <r_epik_Ionization_Penalty>  (43) 
5.09977e-06

>  <r_epik_Ionization_Penalty_Charging>  (43) 
0

>  <r_epik_Ionization_Penalty_Neutral>  (43) 
5.09977e-06

>  <r_epik_State_Penalty>  (43) 
-0

>  <r_epik_Charging_Adjusted_Penalty>  (43) 
0

>  <i_epik_Tot_Q>  (43) 
0

>  <i_epik_Tot_abs_Q>  (43) 
0

>  <s_lp_Force_Field>  (43) 
OPLS3e

>  <r_lp_Energy>  (43) 
138.783

>  <b_lp_Chiralities_Consistent>  (43) 
1

>  <s_lp_Variant>  (43) 
19:0-1

>  <s_i_glide_gridfile>  (43) 
pfpi4k_grid

>  <i_i_glide_lignum>  (43) 
22

>  <i_i_glide_rotatable_bonds>  (43) 
3

>  <r_i_docking_score>  (43) 
-2.28731

>  <r_i_glide_ligand_efficiency>  (43) 
-0.0635364

>  <r_i_glide_ligand_efficiency_sa>  (43) 
-0.209793

>  <r_i_glide_ligand_efficiency_ln>  (43) 
-0.49903

>  <r_i_glide_gscore>  (43) 
-2.28731

>  <r_i_glide_lipo>  (43) 
-0.891107

>  <r_i_glide_hbond>  (43) 
-0.198331

>  <r_i_glide_metal>  (43) 
-0

>  <r_i_glide_rewards>  (43) 
0

>  <r_i_glide_evdw>  (43) 
-21.0952

>  <r_i_glide_ecoul>  (43) 
-0.954078

>  <r_i_glide_erotb>  (43) 
0

>  <r_i_glide_esite>  (43) 
0

>  <r_i_glide_emodel>  (43) 
-26.2103

>  <r_i_glide_energy>  (43) 
-22.0493

>  <r_i_glide_einternal>  (43) 
1.18613

>  <r_i_glide_intrahb_reward>  (43) 
-0

>  <i_i_glide_confnum>  (43) 
1

>  <i_i_glide_posenum>  (43) 
38

>  <r_i_glide_eff_state_penalty>  (43) 
0

>  <ligand_id>  (43) 
19

>  <original_smiles>  (43) 
CC12CCC(O)C(C)(C)C1C1(C)CCC3(C)C(CC4C5C(O)C(O)C(C)(C)C5CCC43C)C1(C)CC2

>  <smiles>  (43) 
[H]OC1([H])C([H])(O[H])C(C([H])([H])[H])(C([H])([H])[H])C2([H])C([H])([H])C([H])([H])C3(C([H])([H])[H])C([H])(C([H])([H])C4([H])C3(C([H])([H])[H])C([H])([H])C([H])([H])C3(C([H])([H])[H])C5([H])C(C([H])([H])[H])(C([H])([H])C([H])([H])C([H])(O[H])C5(C([H])([H])[H])C([H])([H])[H])C([H])([H])C([H])([H])C43C([H])([H])[H])C12[H]

$$$$
19:0:2
     RDKit          3D

 92 97  0  0  1  0  0  0  0  0999 V2000
    0.7997   -9.7622    6.2940 C   0  0  0  0  0  0  0  0  0  0  0  0
    1.7461   -8.6141    5.8509 C   0  0  1  0  0  0  0  0  0  0  0  0
    3.2123   -9.0337    6.1325 C   0  0  0  0  0  0  0  0  0  0  0  0
    3.7257  -10.1448    5.2096 C   0  0  0  0  0  0  0  0  0  0  0  0
    3.5407   -9.8101    3.7225 C   0  0  1  0  0  0  0  0  0  0  0  0
    3.9775  -10.9454    2.9936 O   0  0  0  0  0  0  0  0  0  0  0  0
    2.0897   -9.3803    3.3380 C   0  0  0  0  0  0  0  0  0  0  0  0
    2.1000   -9.0259    1.8280 C   0  0  0  0  0  0  0  0  0  0  0  0
    1.1398  -10.6170    3.4002 C   0  0  0  0  0  0  0  0  0  0  0  0
    1.5644   -8.2088    4.3172 C   0  0  2  0  0  0  0  0  0  0  0  0
    1.8886   -6.6590    3.9496 C   0  0  2  0  0  0  0  0  0  0  0  0
    1.1039   -6.3011    2.6417 C   0  0  0  0  0  0  0  0  0  0  0  0
    3.4070   -6.3858    3.6660 C   0  0  0  0  0  0  0  0  0  0  0  0
    3.7672   -4.9174    3.3058 C   0  0  0  0  0  0  0  0  0  0  0  0
    3.4403   -3.9361    4.4566 C   0  0  2  0  0  0  0  0  0  0  0  0
    4.4561   -4.1974    5.6121 C   0  0  0  0  0  0  0  0  0  0  0  0
    1.9491   -4.1772    4.8178 C   0  0  2  0  0  0  0  0  0  0  0  0
    1.5938   -3.0064    5.7319 C   0  0  0  0  0  0  0  0  0  0  0  0
    2.3629   -1.8015    5.1363 C   0  0  1  0  0  0  0  0  0  0  0  0
    2.9214   -0.8606    6.2431 C   0  0  2  0  0  0  0  0  0  0  0  0
    1.8212   -0.0398    6.9464 C   0  0  1  0  0  0  0  0  0  0  0  0
    1.3134   -0.6624    8.1105 O   0  0  0  0  0  0  0  0  0  0  0  0
    2.4198    1.3568    7.2057 C   0  0  1  0  0  0  0  0  0  0  0  0
    3.1657    1.3524    8.4086 O   0  0  0  0  0  0  0  0  0  0  0  0
    3.3273    1.5972    5.9770 C   0  0  0  0  0  0  0  0  0  0  0  0
    2.4516    2.0524    4.7876 C   0  0  0  0  0  0  0  0  0  0  0  0
    4.4068    2.6806    6.2072 C   0  0  0  0  0  0  0  0  0  0  0  0
    3.9491    0.1932    5.7578 C   0  0  2  0  0  0  0  0  0  0  0  0
    4.5974   -0.1047    4.3953 C   0  0  0  0  0  0  0  0  0  0  0  0
    4.7720   -1.6176    4.2129 C   0  0  0  0  0  0  0  0  0  0  0  0
    3.4108   -2.3811    4.1169 C   0  0  1  0  0  0  0  0  0  0  0  0
    2.9002   -2.1132    2.6659 C   0  0  0  0  0  0  0  0  0  0  0  0
    1.4213   -5.6435    5.0983 C   0  0  1  0  0  0  0  0  0  0  0  0
   -0.1292   -5.5531    5.1657 C   0  0  0  0  0  0  0  0  0  0  0  0
    1.8915   -6.1319    6.4824 C   0  0  0  0  0  0  0  0  0  0  0  0
    1.3300   -7.4941    6.8295 C   0  0  0  0  0  0  0  0  0  0  0  0
    0.6837   -9.7983    7.3766 H   0  0  0  0  0  0  0  0  0  0  0  0
    1.1736  -10.7484    6.0634 H   0  0  0  0  0  0  0  0  0  0  0  0
   -0.2002   -9.6689    5.8709 H   0  0  0  0  0  0  0  0  0  0  0  0
    3.8795   -8.1864    6.0423 H   0  0  0  0  0  0  0  0  0  0  0  0
    3.3085   -9.3631    7.1659 H   0  0  0  0  0  0  0  0  0  0  0  0
    4.7825  -10.3092    5.4087 H   0  0  0  0  0  0  0  0  0  0  0  0
    3.2456  -11.0915    5.4492 H   0  0  0  0  0  0  0  0  0  0  0  0
    4.2321   -9.0088    3.4815 H   0  0  0  0  0  0  0  0  0  0  0  0
    3.8143  -10.8399    2.0634 H   0  0  0  0  0  0  0  0  0  0  0  0
    1.1192   -8.6927    1.4872 H   0  0  0  0  0  0  0  0  0  0  0  0
    2.3490   -9.8884    1.2087 H   0  0  0  0  0  0  0  0  0  0  0  0
    2.8457   -8.2885    1.5527 H   0  0  0  0  0  0  0  0  0  0  0  0
    0.1014  -10.3448    3.5947 H   0  0  0  0  0  0  0  0  0  0  0  0
    1.4416  -11.3574    4.1338 H   0  0  0  0  0  0  0  0  0  0  0  0
    1.1231  -11.1893    2.4835 H   0  0  0  0  0  0  0  0  0  0  0  0
    0.4831   -8.2454    4.1881 H   0  0  0  0  0  0  0  0  0  0  0  0
    0.8385   -5.2546    2.5437 H   0  0  0  0  0  0  0  0  0  0  0  0
    0.1650   -6.8493    2.5540 H   0  0  0  0  0  0  0  0  0  0  0  0
    1.6850   -6.4902    1.7434 H   0  0  0  0  0  0  0  0  0  0  0  0
    4.0064   -6.7131    4.5047 H   0  0  0  0  0  0  0  0  0  0  0  0
    3.7671   -6.9808    2.8402 H   0  0  0  0  0  0  0  0  0  0  0  0
    4.8260   -4.8517    3.0571 H   0  0  0  0  0  0  0  0  0  0  0  0
    3.2345   -4.6557    2.3947 H   0  0  0  0  0  0  0  0  0  0  0  0
    4.2389   -3.6088    6.5004 H   0  0  0  0  0  0  0  0  0  0  0  0
    5.4717   -3.9694    5.2969 H   0  0  0  0  0  0  0  0  0  0  0  0
    4.5556   -5.2271    5.9213 H   0  0  0  0  0  0  0  0  0  0  0  0
    1.3955   -3.9004    3.9348 H   0  0  0  0  0  0  0  0  0  0  0  0
    0.5217   -2.8178    5.7500 H   0  0  0  0  0  0  0  0  0  0  0  0
    1.9078   -3.2087    6.7551 H   0  0  0  0  0  0  0  0  0  0  0  0
    1.6571   -1.2124    4.5528 H   0  0  0  0  0  0  0  0  0  0  0  0
    3.4384   -1.4701    6.9861 H   0  0  0  0  0  0  0  0  0  0  0  0
    0.9741    0.0888    6.2733 H   0  0  0  0  0  0  0  0  0  0  0  0
    0.9421    0.0123    8.6606 H   0  0  0  0  0  0  0  0  0  0  0  0
    1.6448    2.1168    7.3033 H   0  0  0  0  0  0  0  0  0  0  0  0
    3.4932    2.2281    8.5532 H   0  0  0  0  0  0  0  0  0  0  0  0
    3.0529    2.3117    3.9156 H   0  0  0  0  0  0  0  0  0  0  0  0
    1.8791    2.9415    5.0501 H   0  0  0  0  0  0  0  0  0  0  0  0
    1.7419    1.2861    4.4763 H   0  0  0  0  0  0  0  0  0  0  0  0
    4.9970    2.8293    5.3016 H   0  0  0  0  0  0  0  0  0  0  0  0
    5.1069    2.4137    7.0003 H   0  0  0  0  0  0  0  0  0  0  0  0
    3.9552    3.6391    6.4655 H   0  0  0  0  0  0  0  0  0  0  0  0
    4.7734    0.1178    6.4723 H   0  0  0  0  0  0  0  0  0  0  0  0
    4.0224    0.3100    3.5729 H   0  0  0  0  0  0  0  0  0  0  0  0
    5.5741    0.3774    4.3461 H   0  0  0  0  0  0  0  0  0  0  0  0
    5.3839   -1.8187    3.3346 H   0  0  0  0  0  0  0  0  0  0  0  0
    5.3836   -1.9128    5.0617 H   0  0  0  0  0  0  0  0  0  0  0  0
    2.7468   -1.0537    2.4765 H   0  0  0  0  0  0  0  0  0  0  0  0
    1.9452   -2.5818    2.4399 H   0  0  0  0  0  0  0  0  0  0  0  0
    3.6117   -2.4587    1.9175 H   0  0  0  0  0  0  0  0  0  0  0  0
   -0.4573   -5.0803    6.0915 H   0  0  0  0  0  0  0  0  0  0  0  0
   -0.6104   -6.5272    5.1066 H   0  0  0  0  0  0  0  0  0  0  0  0
   -0.5500   -4.9609    4.3555 H   0  0  0  0  0  0  0  0  0  0  0  0
    2.9622   -6.2184    6.5549 H   0  0  0  0  0  0  0  0  0  0  0  0
    1.6006   -5.4246    7.2587 H   0  0  0  0  0  0  0  0  0  0  0  0
    0.2441   -7.4446    6.9127 H   0  0  0  0  0  0  0  0  0  0  0  0
    1.6678   -7.7514    7.8340 H   0  0  0  0  0  0  0  0  0  0  0  0
  2  1  1  1
  1 37  1  0
  1 38  1  0
  1 39  1  0
  2 10  1  0
  2 36  1  0
  2  3  1  0
  3  4  1  0
  3 40  1  0
  3 41  1  0
  4  5  1  0
  4 42  1  0
  4 43  1  0
  5  6  1  0
  5  7  1  0
  5 44  1  6
  6 45  1  0
  7  8  1  0
  7  9  1  0
  7 10  1  0
  8 46  1  0
  8 47  1  0
  8 48  1  0
  9 49  1  0
  9 50  1  0
  9 51  1  0
 10 11  1  0
 10 52  1  6
 11 33  1  0
 11 12  1  6
 11 13  1  0
 12 53  1  0
 12 54  1  0
 12 55  1  0
 13 14  1  0
 13 56  1  0
 13 57  1  0
 14 15  1  0
 14 58  1  0
 14 59  1  0
 15 31  1  0
 15 16  1  1
 15 17  1  0
 16 60  1  0
 16 61  1  0
 16 62  1  0
 17 18  1  0
 17 33  1  0
 17 63  1  6
 18 19  1  0
 18 64  1  0
 18 65  1  0
 19 31  1  0
 19 20  1  0
 19 66  1  6
 20 28  1  0
 20 21  1  0
 20 67  1  1
 21 22  1  0
 21 23  1  0
 21 68  1  6
 22 69  1  0
 23 24  1  0
 23 25  1  0
 23 70  1  1
 24 71  1  0
 25 26  1  0
 25 27  1  0
 25 28  1  0
 26 72  1  0
 26 73  1  0
 26 74  1  0
 27 75  1  0
 27 76  1  0
 27 77  1  0
 28 29  1  0
 28 78  1  1
 29 30  1  0
 29 79  1  0
 29 80  1  0
 30 31  1  0
 30 81  1  0
 30 82  1  0
 31 32  1  6
 32 83  1  0
 32 84  1  0
 32 85  1  0
 33 34  1  1
 33 35  1  0
 34 86  1  0
 34 87  1  0
 34 88  1  0
 35 36  1  0
 35 89  1  0
 35 90  1  0
 36 91  1  0
 36 92  1  0
M  END
>  <i_m_ct_stereo_status>  (44) 
1

>  <s_m_source_file>  (44) 
/var/tmp/pbs.5076255.sched01/tmppz0entnt/04_lepiep.sdf

>  <i_m_source_file_index>  (44) 
22

>  <i_lp_mmshare_version>  (44) 
48012

>  <i_f3d_flags>  (44) 
0

>  <s_epik_input>  (44) 
W0NIMl0xW0NIMl1bQ0BASF0oW09IXSlDKFtDSDNdKShbQ0gzXSlbQ0BASF0oW0NAQF0xMltDSDNdKVtDQEBdMyhbQ0gzXSlbQ0BAXShbQ0gzXSkoW0NIMl1bQ0gyXTIpW0NAQEhdNFtDQEBdKFtDSDNdKShbQ0gyXVtDSDJdMylbQ0BAXTUoW0NIM10pW0NAQEhdKFtDSDJdNClbQ0BIXTZbQ0BASF0oW0NIMl1bQ0gyXTUpQyhbQ0gzXSkoW0NIM10pW0NASF0oW09IXSlbQ0BASF02W09IXQ==

>  <s_epik_cmdline>  (44) 
J2VwaWtfcHl0aG9uJywgJy1waHQnLCAnMi4wJywgJy1waCcsICc3LjAnLCAnLXRuJywgJzgnLCAnLW1hJywgJzIwMCcsICctaW1hZScsICc8aW5maWxlLm1hZT4nLCAnLW9tYWUnLCAnPG91dGZpbGUubWFlPic=

>  <r_lp_tautomer_probability>  (44) 
1

>  <r_epik_Ionization_Penalty>  (44) 
5.09977e-06

>  <r_epik_Ionization_Penalty_Charging>  (44) 
0

>  <r_epik_Ionization_Penalty_Neutral>  (44) 
5.09977e-06

>  <r_epik_State_Penalty>  (44) 
-0

>  <r_epik_Charging_Adjusted_Penalty>  (44) 
0

>  <i_epik_Tot_Q>  (44) 
0

>  <i_epik_Tot_abs_Q>  (44) 
0

>  <s_lp_Force_Field>  (44) 
OPLS3e

>  <r_lp_Energy>  (44) 
138.783

>  <b_lp_Chiralities_Consistent>  (44) 
1

>  <s_lp_Variant>  (44) 
19:0-1

>  <s_i_glide_gridfile>  (44) 
pfpi4k_grid

>  <i_i_glide_lignum>  (44) 
22

>  <i_i_glide_rotatable_bonds>  (44) 
3

>  <r_i_docking_score>  (44) 
-1.80377

>  <r_i_glide_ligand_efficiency>  (44) 
-0.0501046

>  <r_i_glide_ligand_efficiency_sa>  (44) 
-0.165442

>  <r_i_glide_ligand_efficiency_ln>  (44) 
-0.393533

>  <r_i_glide_gscore>  (44) 
-1.80377

>  <r_i_glide_lipo>  (44) 
-0.308164

>  <r_i_glide_hbond>  (44) 
-0.0681048

>  <r_i_glide_metal>  (44) 
-0

>  <r_i_glide_rewards>  (44) 
0

>  <r_i_glide_evdw>  (44) 
-23.7317

>  <r_i_glide_ecoul>  (44) 
-1.60609

>  <r_i_glide_erotb>  (44) 
0

>  <r_i_glide_esite>  (44) 
0

>  <r_i_glide_emodel>  (44) 
-28.4275

>  <r_i_glide_energy>  (44) 
-25.3378

>  <r_i_glide_einternal>  (44) 
1.49624

>  <r_i_glide_intrahb_reward>  (44) 
-0

>  <i_i_glide_confnum>  (44) 
2

>  <i_i_glide_posenum>  (44) 
23

>  <r_i_glide_eff_state_penalty>  (44) 
0

>  <ligand_id>  (44) 
19

>  <original_smiles>  (44) 
CC12CCC(O)C(C)(C)C1C1(C)CCC3(C)C(CC4C5C(O)C(O)C(C)(C)C5CCC43C)C1(C)CC2

>  <smiles>  (44) 
[H]OC1([H])C([H])(O[H])C(C([H])([H])[H])(C([H])([H])[H])C2([H])C([H])([H])C([H])([H])C3(C([H])([H])[H])C([H])(C([H])([H])C4([H])C3(C([H])([H])[H])C([H])([H])C([H])([H])C3(C([H])([H])[H])C5([H])C(C([H])([H])[H])(C([H])([H])C([H])([H])C([H])(O[H])C5(C([H])([H])[H])C([H])([H])[H])C([H])([H])C([H])([H])C43C([H])([H])[H])C12[H]

$$$$
21:0:0
     RDKit          3D

 60 64  0  0  1  0  0  0  0  0999 V2000
    3.5817   -3.1719   -3.8967 C   0  0  0  0  0  0  0  0  0  0  0  0
    4.1794   -2.7562   -2.5589 C   0  0  0  0  0  0  0  0  0  0  0  0
    4.3292   -1.4793   -2.2103 C   0  0  0  0  0  0  0  0  0  0  0  0
    4.9358   -1.1161   -0.8722 C   0  0  1  0  0  0  0  0  0  0  0  0
    3.8877   -1.1057    0.2844 C   0  0  0  0  0  0  0  0  0  0  0  0
    3.5595   -2.4605    0.9890 C   0  0  1  0  0  0  0  0  0  0  0  0
    2.4126   -3.0238    0.3807 O   0  0  0  0  0  0  0  0  0  0  0  0
    4.7667   -3.4510    1.0036 C   0  0  1  0  0  0  0  0  0  0  0  0
    4.7555   -4.8411    1.7921 C   0  0  1  0  0  0  0  0  0  0  0  0
    4.0473   -4.4546    3.1413 C   0  0  0  0  0  0  0  0  0  0  0  0
    3.8931   -5.9708    1.1558 C   0  0  1  0  0  0  0  0  0  0  0  0
    4.3340   -6.3531   -0.1200 O   0  0  0  0  0  0  0  0  0  0  0  0
    3.9125   -7.2835    1.9538 C   0  0  0  0  0  0  0  0  0  0  0  0
    5.3380   -7.7881    2.1925 C   0  0  0  0  0  0  0  0  0  0  0  0
    6.2711   -6.7738    2.8805 C   0  0  0  0  0  0  0  0  0  0  0  0
    5.8950   -6.6342    4.3917 C   0  0  0  0  0  0  0  0  0  0  0  0
    7.6792   -7.4358    2.9263 C   0  0  0  0  0  0  0  0  0  0  0  0
    6.2358   -5.3733    2.1035 C   0  0  1  0  0  0  0  0  0  0  0  0
    7.2221   -5.3685    0.8765 C   0  0  0  0  0  0  0  0  0  0  0  0
    7.7506   -4.0082    0.3206 C   0  0  1  0  0  0  0  0  0  0  0  0
    8.9704   -4.2216   -0.3634 O   0  0  0  0  0  0  0  0  0  0  0  0
    6.8421   -3.3427   -0.6955 C   0  0  2  0  0  0  0  0  0  0  0  0
    6.1093   -1.9905   -0.5088 C   0  0  1  0  0  0  0  0  0  0  0  0
    6.8123   -1.3556    0.5647 O   0  0  0  0  0  0  0  0  0  0  0  0
    5.4312   -3.3609   -0.3713 C   0  0  2  0  0  0  0  0  0  0  0  0
    4.5699   -3.8535   -1.5768 C   0  0  0  0  0  0  0  0  0  0  0  0
    2.7075   -3.8075   -3.7371 H   0  0  0  0  0  0  0  0  0  0  0  0
    4.3071   -3.7211   -4.4946 H   0  0  0  0  0  0  0  0  0  0  0  0
    3.2548   -2.2933   -4.4657 H   0  0  0  0  0  0  0  0  0  0  0  0
    4.0260   -0.6668   -2.8643 H   0  0  0  0  0  0  0  0  0  0  0  0
    5.3126   -0.1233   -0.9998 H   0  0  0  0  0  0  0  0  0  0  0  0
    4.2782   -0.4262    1.0427 H   0  0  0  0  0  0  0  0  0  0  0  0
    2.9561   -0.6247   -0.0404 H   0  0  0  0  0  0  0  0  0  0  0  0
    3.2702   -2.1981    2.0017 H   0  0  0  0  0  0  0  0  0  0  0  0
    1.9042   -2.3173    0.0225 H   0  0  0  0  0  0  0  0  0  0  0  0
    5.4430   -2.9323    1.6766 H   0  0  0  0  0  0  0  0  0  0  0  0
    3.8676   -5.2874    3.8040 H   0  0  0  0  0  0  0  0  0  0  0  0
    3.0481   -4.0648    2.9775 H   0  0  0  0  0  0  0  0  0  0  0  0
    4.6164   -3.7144    3.7074 H   0  0  0  0  0  0  0  0  0  0  0  0
    2.8584   -5.6281    1.0639 H   0  0  0  0  0  0  0  0  0  0  0  0
    3.8763   -5.8542   -0.7826 H   0  0  0  0  0  0  0  0  0  0  0  0
    3.3847   -7.1743    2.8971 H   0  0  0  0  0  0  0  0  0  0  0  0
    3.3503   -8.0404    1.4084 H   0  0  0  0  0  0  0  0  0  0  0  0
    5.3030   -8.7149    2.7646 H   0  0  0  0  0  0  0  0  0  0  0  0
    5.7721   -8.0633    1.2252 H   0  0  0  0  0  0  0  0  0  0  0  0
    6.0062   -5.6116    4.7588 H   0  0  0  0  0  0  0  0  0  0  0  0
    6.5015   -7.2564    5.0451 H   0  0  0  0  0  0  0  0  0  0  0  0
    4.8716   -6.9597    4.5923 H   0  0  0  0  0  0  0  0  0  0  0  0
    8.4462   -6.7513    3.2921 H   0  0  0  0  0  0  0  0  0  0  0  0
    7.9889   -7.8141    1.9522 H   0  0  0  0  0  0  0  0  0  0  0  0
    7.6904   -8.3132    3.5759 H   0  0  0  0  0  0  0  0  0  0  0  0
    6.6788   -4.6562    2.7858 H   0  0  0  0  0  0  0  0  0  0  0  0
    8.1499   -5.8421    1.1665 H   0  0  0  0  0  0  0  0  0  0  0  0
    6.8385   -5.9912    0.0740 H   0  0  0  0  0  0  0  0  0  0  0  0
    7.9685   -3.3646    1.1658 H   0  0  0  0  0  0  0  0  0  0  0  0
    9.2130   -3.4323   -0.8325 H   0  0  0  0  0  0  0  0  0  0  0  0
    7.1097   -3.5271   -1.7401 H   0  0  0  0  0  0  0  0  0  0  0  0
    6.2261   -1.2307    1.2766 H   0  0  0  0  0  0  0  0  0  0  0  0
    3.6331   -4.2838   -1.2525 H   0  0  0  0  0  0  0  0  0  0  0  0
    5.1098   -4.6335   -2.1154 H   0  0  0  0  0  0  0  0  0  0  0  0
  1  2  1  0
  1 27  1  0
  1 28  1  0
  1 29  1  0
  2 26  1  0
  2  3  2  0
  3  4  1  0
  3 30  1  0
  4 23  1  0
  4  5  1  0
  4 31  1  6
  5  6  1  0
  5 32  1  0
  5 33  1  0
  6  7  1  0
  6  8  1  0
  6 34  1  1
  7 35  1  0
  8 25  1  0
  8  9  1  0
  8 36  1  1
  9 18  1  0
  9 10  1  1
  9 11  1  0
 10 37  1  0
 10 38  1  0
 10 39  1  0
 11 12  1  0
 11 13  1  0
 11 40  1  6
 12 41  1  0
 13 14  1  0
 13 42  1  0
 13 43  1  0
 14 15  1  0
 14 44  1  0
 14 45  1  0
 15 16  1  0
 15 17  1  0
 15 18  1  0
 16 46  1  0
 16 47  1  0
 16 48  1  0
 17 49  1  0
 17 50  1  0
 17 51  1  0
 18 19  1  0
 18 52  1  1
 19 20  1  0
 19 53  1  0
 19 54  1  0
 20 21  1  0
 20 22  1  0
 20 55  1  1
 21 56  1  0
 22 25  1  0
 22 23  1  0
 22 57  1  6
 23 24  1  6
 23 25  1  0
 24 58  1  0
 25 26  1  6
 26 59  1  0
 26 60  1  0
M  END
>  <i_m_ct_stereo_status>  (45) 
1

>  <s_m_source_file>  (45) 
/var/tmp/pbs.5076255.sched01/tmppz0entnt/04_lepiep.sdf

>  <i_m_source_file_index>  (45) 
24

>  <i_lp_mmshare_version>  (45) 
48012

>  <i_f3d_flags>  (45) 
0

>  <s_epik_input>  (45) 
W0NIM11DKFtDSDJdMSk9W0NIXVtDQEBIXShbQ0gyXVtDQEhdMltPSF0pW0NAXTMoW09IXSlbQ0BIXTRbQ0BIXShbT0hdKVtDSDJdW0NAQEhdKFtDQF01KFtDQEhdMltDQEBdMTM0KVtDSDNdKUMoW0NIM10pKFtDSDNdKVtDSDJdW0NIMl1bQ0BASF01W09IXQ==

>  <s_epik_cmdline>  (45) 
J2VwaWtfcHl0aG9uJywgJy1waHQnLCAnMi4wJywgJy1waCcsICc3LjAnLCAnLXRuJywgJzgnLCAnLW1hJywgJzIwMCcsICctaW1hZScsICc8aW5maWxlLm1hZT4nLCAnLW9tYWUnLCAnPG91dGZpbGUubWFlPic=

>  <r_lp_tautomer_probability>  (45) 
1

>  <r_epik_Ionization_Penalty>  (45) 
6.99485e-06

>  <r_epik_Ionization_Penalty_Charging>  (45) 
0

>  <r_epik_Ionization_Penalty_Neutral>  (45) 
6.99485e-06

>  <r_epik_State_Penalty>  (45) 
-0

>  <r_epik_Charging_Adjusted_Penalty>  (45) 
0

>  <i_epik_Tot_Q>  (45) 
0

>  <i_epik_Tot_abs_Q>  (45) 
0

>  <s_lp_Force_Field>  (45) 
OPLS3e

>  <r_lp_Energy>  (45) 
107.566

>  <b_lp_Chiralities_Consistent>  (45) 
1

>  <s_lp_Variant>  (45) 
21:0-1

>  <s_i_glide_gridfile>  (45) 
pfpi4k_grid

>  <i_i_glide_lignum>  (45) 
24

>  <i_i_glide_rotatable_bonds>  (45) 
4

>  <r_i_docking_score>  (45) 
-4.71961

>  <r_i_glide_ligand_efficiency>  (45) 
-0.181523

>  <r_i_glide_ligand_efficiency_sa>  (45) 
-0.537763

>  <r_i_glide_ligand_efficiency_ln>  (45) 
-1.10838

>  <r_i_glide_gscore>  (45) 
-4.71961

>  <r_i_glide_lipo>  (45) 
-0.819072

>  <r_i_glide_hbond>  (45) 
-0.495892

>  <r_i_glide_metal>  (45) 
-0

>  <r_i_glide_rewards>  (45) 
-0.93748

>  <r_i_glide_evdw>  (45) 
-28.4821

>  <r_i_glide_ecoul>  (45) 
-6.95373

>  <r_i_glide_erotb>  (45) 
0

>  <r_i_glide_esite>  (45) 
0

>  <r_i_glide_emodel>  (45) 
-44.8013

>  <r_i_glide_energy>  (45) 
-35.4359

>  <r_i_glide_einternal>  (45) 
2.72225

>  <r_i_glide_intrahb_reward>  (45) 
-0

>  <i_i_glide_confnum>  (45) 
2

>  <i_i_glide_posenum>  (45) 
1

>  <r_i_glide_eff_state_penalty>  (45) 
0

>  <ligand_id>  (45) 
21

>  <original_smiles>  (45) 
CC1=CC2CC(O)C3C4(C)C(O)CCC(C)(C)C4CC(O)C4C2(O)C34C1

>  <smiles>  (45) 
[H]OC1([H])C([H])([H])C2([H])C(C([H])([H])[H])(C([H])([H])[H])C([H])([H])C([H])([H])C([H])(O[H])C2(C([H])([H])[H])C2([H])C([H])(O[H])C([H])([H])C3([H])C([H])=C(C([H])([H])[H])C([H])([H])C24C1([H])C34O[H]

$$$$
21:0:1
     RDKit          3D

 60 64  0  0  1  0  0  0  0  0999 V2000
    3.3155   -3.1751   -3.6420 C   0  0  0  0  0  0  0  0  0  0  0  0
    4.0188   -2.7646   -2.3578 C   0  0  0  0  0  0  0  0  0  0  0  0
    4.2286   -1.4808   -2.0383 C   0  0  0  0  0  0  0  0  0  0  0  0
    4.9371   -1.1207   -0.7715 C   0  0  1  0  0  0  0  0  0  0  0  0
    3.9957   -1.0836    0.4748 C   0  0  0  0  0  0  0  0  0  0  0  0
    3.7103   -2.4209    1.2291 C   0  0  1  0  0  0  0  0  0  0  0  0
    2.5185   -2.9832    0.7426 O   0  0  0  0  0  0  0  0  0  0  0  0
    4.8953   -3.4344    1.1485 C   0  0  1  0  0  0  0  0  0  0  0  0
    4.9377   -4.8257    1.9382 C   0  0  1  0  0  0  0  0  0  0  0  0
    4.3555   -4.4112    3.3370 C   0  0  0  0  0  0  0  0  0  0  0  0
    4.0020   -5.9455    1.3981 C   0  0  1  0  0  0  0  0  0  0  0  0
    4.3305   -6.3484    0.1015 O   0  0  0  0  0  0  0  0  0  0  0  0
    4.0690   -7.2465    2.2034 C   0  0  0  0  0  0  0  0  0  0  0  0
    5.5015   -7.7790    2.3288 C   0  0  0  0  0  0  0  0  0  0  0  0
    6.5003   -6.7641    2.9204 C   0  0  0  0  0  0  0  0  0  0  0  0
    6.2633   -6.6060    4.4574 C   0  0  0  0  0  0  0  0  0  0  0  0
    7.8976   -7.4478    2.8680 C   0  0  0  0  0  0  0  0  0  0  0  0
    6.4292   -5.3797    2.1289 C   0  0  1  0  0  0  0  0  0  0  0  0
    7.3087   -5.3905    0.8221 C   0  0  0  0  0  0  0  0  0  0  0  0
    7.8194   -4.0391    0.2371 C   0  0  1  0  0  0  0  0  0  0  0  0
    8.9856   -4.2516   -0.5455 O   0  0  0  0  0  0  0  0  0  0  0  0
    6.8345   -3.3729   -0.7122 C   0  0  2  0  0  0  0  0  0  0  0  0
    6.1205   -2.0063   -0.4847 C   0  0  1  0  0  0  0  0  0  0  0  0
    6.9261   -1.3890    0.4930 O   0  0  0  0  0  0  0  0  0  0  0  0
    5.4479   -3.3700   -0.2744 C   0  0  2  0  0  0  0  0  0  0  0  0
    4.4862   -3.8535   -1.3939 C   0  0  0  0  0  0  0  0  0  0  0  0
    2.4494   -3.7997   -3.4079 H   0  0  0  0  0  0  0  0  0  0  0  0
    3.9811   -3.7451   -4.2935 H   0  0  0  0  0  0  0  0  0  0  0  0
    2.9555   -2.3039   -4.1961 H   0  0  0  0  0  0  0  0  0  0  0  0
    3.8867   -0.6731   -2.6758 H   0  0  0  0  0  0  0  0  0  0  0  0
    5.3349   -0.1361   -0.9336 H   0  0  0  0  0  0  0  0  0  0  0  0
    4.4510   -0.3955    1.1845 H   0  0  0  0  0  0  0  0  0  0  0  0
    3.0448   -0.5882    0.2203 H   0  0  0  0  0  0  0  0  0  0  0  0
    3.5203   -2.1434    2.2608 H   0  0  0  0  0  0  0  0  0  0  0  0
    2.0180   -2.2937    0.3297 H   0  0  0  0  0  0  0  0  0  0  0  0
    5.6389   -2.9241    1.7553 H   0  0  0  0  0  0  0  0  0  0  0  0
    4.2104   -5.2323    4.0318 H   0  0  0  0  0  0  0  0  0  0  0  0
    3.3461   -4.0047    3.2630 H   0  0  0  0  0  0  0  0  0  0  0  0
    4.9760   -3.6734    3.8565 H   0  0  0  0  0  0  0  0  0  0  0  0
    2.9725   -5.5773    1.3870 H   0  0  0  0  0  0  0  0  0  0  0  0
    5.2286   -6.6172    0.0897 H   0  0  0  0  0  0  0  0  0  0  0  0
    3.6265   -7.1200    3.1881 H   0  0  0  0  0  0  0  0  0  0  0  0
    3.4498   -8.0025    1.7218 H   0  0  0  0  0  0  0  0  0  0  0  0
    5.5001   -8.6930    2.9227 H   0  0  0  0  0  0  0  0  0  0  0  0
    5.8535   -8.0749    1.3423 H   0  0  0  0  0  0  0  0  0  0  0  0
    6.4160   -5.5817    4.8067 H   0  0  0  0  0  0  0  0  0  0  0  0
    6.9125   -7.2303    5.0729 H   0  0  0  0  0  0  0  0  0  0  0  0
    5.2561   -6.9129    4.7524 H   0  0  0  0  0  0  0  0  0  0  0  0
    8.7067   -6.7743    3.1604 H   0  0  0  0  0  0  0  0  0  0  0  0
    8.1245   -7.8399    1.8733 H   0  0  0  0  0  0  0  0  0  0  0  0
    7.9526   -8.3222    3.5211 H   0  0  0  0  0  0  0  0  0  0  0  0
    6.9434   -4.6602    2.7601 H   0  0  0  0  0  0  0  0  0  0  0  0
    8.2554   -5.8752    1.0494 H   0  0  0  0  0  0  0  0  0  0  0  0
    6.8625   -6.0136    0.0623 H   0  0  0  0  0  0  0  0  0  0  0  0
    8.0945   -3.3904    1.0552 H   0  0  0  0  0  0  0  0  0  0  0  0
    9.2286   -3.4557   -0.9896 H   0  0  0  0  0  0  0  0  0  0  0  0
    6.9990   -3.5766   -1.7695 H   0  0  0  0  0  0  0  0  0  0  0  0
    6.4051   -1.2035    1.2617 H   0  0  0  0  0  0  0  0  0  0  0  0
    3.5752   -4.2913   -0.9939 H   0  0  0  0  0  0  0  0  0  0  0  0
    4.9751   -4.6391   -1.9749 H   0  0  0  0  0  0  0  0  0  0  0  0
  1  2  1  0
  1 27  1  0
  1 28  1  0
  1 29  1  0
  2 26  1  0
  2  3  2  0
  3  4  1  0
  3 30  1  0
  4 23  1  0
  4  5  1  0
  4 31  1  6
  5  6  1  0
  5 32  1  0
  5 33  1  0
  6  7  1  0
  6  8  1  0
  6 34  1  1
  7 35  1  0
  8 25  1  0
  8  9  1  0
  8 36  1  1
  9 18  1  0
  9 10  1  1
  9 11  1  0
 10 37  1  0
 10 38  1  0
 10 39  1  0
 11 12  1  0
 11 13  1  0
 11 40  1  6
 12 41  1  0
 13 14  1  0
 13 42  1  0
 13 43  1  0
 14 15  1  0
 14 44  1  0
 14 45  1  0
 15 16  1  0
 15 17  1  0
 15 18  1  0
 16 46  1  0
 16 47  1  0
 16 48  1  0
 17 49  1  0
 17 50  1  0
 17 51  1  0
 18 19  1  0
 18 52  1  1
 19 20  1  0
 19 53  1  0
 19 54  1  0
 20 21  1  0
 20 22  1  0
 20 55  1  1
 21 56  1  0
 22 25  1  0
 22 23  1  0
 22 57  1  6
 23 24  1  6
 23 25  1  0
 24 58  1  0
 25 26  1  6
 26 59  1  0
 26 60  1  0
M  END
>  <i_m_ct_stereo_status>  (46) 
1

>  <s_m_source_file>  (46) 
/var/tmp/pbs.5076255.sched01/tmppz0entnt/04_lepiep.sdf

>  <i_m_source_file_index>  (46) 
24

>  <i_lp_mmshare_version>  (46) 
48012

>  <i_f3d_flags>  (46) 
0

>  <s_epik_input>  (46) 
W0NIM11DKFtDSDJdMSk9W0NIXVtDQEBIXShbQ0gyXVtDQEhdMltPSF0pW0NAXTMoW09IXSlbQ0BIXTRbQ0BIXShbT0hdKVtDSDJdW0NAQEhdKFtDQF01KFtDQEhdMltDQEBdMTM0KVtDSDNdKUMoW0NIM10pKFtDSDNdKVtDSDJdW0NIMl1bQ0BASF01W09IXQ==

>  <s_epik_cmdline>  (46) 
J2VwaWtfcHl0aG9uJywgJy1waHQnLCAnMi4wJywgJy1waCcsICc3LjAnLCAnLXRuJywgJzgnLCAnLW1hJywgJzIwMCcsICctaW1hZScsICc8aW5maWxlLm1hZT4nLCAnLW9tYWUnLCAnPG91dGZpbGUubWFlPic=

>  <r_lp_tautomer_probability>  (46) 
1

>  <r_epik_Ionization_Penalty>  (46) 
6.99485e-06

>  <r_epik_Ionization_Penalty_Charging>  (46) 
0

>  <r_epik_Ionization_Penalty_Neutral>  (46) 
6.99485e-06

>  <r_epik_State_Penalty>  (46) 
-0

>  <r_epik_Charging_Adjusted_Penalty>  (46) 
0

>  <i_epik_Tot_Q>  (46) 
0

>  <i_epik_Tot_abs_Q>  (46) 
0

>  <s_lp_Force_Field>  (46) 
OPLS3e

>  <r_lp_Energy>  (46) 
107.566

>  <b_lp_Chiralities_Consistent>  (46) 
1

>  <s_lp_Variant>  (46) 
21:0-1

>  <s_i_glide_gridfile>  (46) 
pfpi4k_grid

>  <i_i_glide_lignum>  (46) 
24

>  <i_i_glide_rotatable_bonds>  (46) 
4

>  <r_i_docking_score>  (46) 
-4.05682

>  <r_i_glide_ligand_efficiency>  (46) 
-0.156031

>  <r_i_glide_ligand_efficiency_sa>  (46) 
-0.462242

>  <r_i_glide_ligand_efficiency_ln>  (46) 
-0.95273

>  <r_i_glide_gscore>  (46) 
-4.05682

>  <r_i_glide_lipo>  (46) 
-0.891557

>  <r_i_glide_hbond>  (46) 
-0.253293

>  <r_i_glide_metal>  (46) 
-0

>  <r_i_glide_rewards>  (46) 
-0.93748

>  <r_i_glide_evdw>  (46) 
-29.3994

>  <r_i_glide_ecoul>  (46) 
-3.36345

>  <r_i_glide_erotb>  (46) 
0

>  <r_i_glide_esite>  (46) 
0

>  <r_i_glide_emodel>  (46) 
-41.2287

>  <r_i_glide_energy>  (46) 
-32.7628

>  <r_i_glide_einternal>  (46) 
1.66971

>  <r_i_glide_intrahb_reward>  (46) 
-0

>  <i_i_glide_confnum>  (46) 
1

>  <i_i_glide_posenum>  (46) 
4

>  <r_i_glide_eff_state_penalty>  (46) 
0

>  <ligand_id>  (46) 
21

>  <original_smiles>  (46) 
CC1=CC2CC(O)C3C4(C)C(O)CCC(C)(C)C4CC(O)C4C2(O)C34C1

>  <smiles>  (46) 
[H]OC1([H])C([H])([H])C2([H])C(C([H])([H])[H])(C([H])([H])[H])C([H])([H])C([H])([H])C([H])(O[H])C2(C([H])([H])[H])C2([H])C([H])(O[H])C([H])([H])C3([H])C([H])=C(C([H])([H])[H])C([H])([H])C24C1([H])C34O[H]

$$$$
22:0:0
     RDKit          3D

 63 68  0  0  1  0  0  0  0  0999 V2000
    3.1726    1.9845    7.1079 C   0  0  0  0  0  0  0  0  0  0  0  0
    2.1736    2.1282    5.8718 C   0  0  1  0  0  0  0  0  0  0  0  0
    0.9823    1.0714    5.3509 C   0  0  0  0  0  0  0  0  0  0  0  0
    0.8218    0.0160    4.2130 C   0  0  2  0  0  0  0  0  0  0  0  0
   -0.3636   -0.9802    4.4727 C   0  0  0  0  0  0  0  0  0  0  0  0
   -1.7321   -0.2654    4.9176 C   0  0  1  0  0  0  0  0  0  0  0  0
   -2.0120   -0.7192    6.1082 F   0  0  0  0  0  0  0  0  0  0  0  0
   -1.7813    1.2881    4.8611 C   0  0  0  0  0  0  0  0  0  0  0  0
   -1.7274    1.7127    3.5744 C   0  0  0  0  0  0  0  0  0  0  0  0
   -0.9909    2.9080    3.0090 C   0  0  0  0  0  0  0  0  0  0  0  0
    0.2780    3.3824    3.8038 C   0  0  2  0  0  0  0  0  0  0  0  0
    0.4695    4.6837    3.2818 O   0  0  0  0  0  0  0  0  0  0  0  0
    1.8250    2.5773    3.4432 C   0  0  2  0  0  0  0  0  0  0  0  0
    1.9231    1.6624    2.1526 C   0  0  0  0  0  0  0  0  0  0  0  0
    2.4623    0.2402    2.4496 C   0  0  0  0  0  0  0  0  0  0  0  0
    3.6928   -0.0019    1.9671 F   0  0  0  0  0  0  0  0  0  0  0  0
    2.1719   -0.3153    3.6537 C   0  0  0  0  0  0  0  0  0  0  0  0
    3.0784    0.1505    4.7732 C   0  0  2  0  0  0  0  0  0  0  0  0
    2.7058   -0.7061    6.2184 C   0  0  0  0  0  0  0  0  0  0  0  0
    1.4727   -0.5814    7.4251 C   0  0  0  0  0  0  0  0  0  0  0  0
    0.6132    0.6888    8.1047 C   0  0  0  0  0  0  0  0  0  0  0  0
    0.9892    1.0459    9.2192 O   0  0  0  0  0  0  0  0  0  0  0  0
   -0.7708    1.4658    7.5422 C   0  0  0  0  0  0  0  0  0  0  0  0
   -1.3172    2.2347    6.0786 C   0  0  2  0  0  0  0  0  0  0  0  0
   -2.6726    2.8054    6.5732 C   0  0  0  0  0  0  0  0  0  0  0  0
   -0.4414    3.5135    5.3480 C   0  0  2  0  0  0  0  0  0  0  0  0
   -1.3691    4.4607    5.1461 F   0  0  0  0  0  0  0  0  0  0  0  0
    0.5435    4.2184    6.2740 C   0  0  1  0  0  0  0  0  0  0  0  0
    0.2046    4.2388    7.6495 O   0  0  0  0  0  0  0  0  0  0  0  0
    1.9406    3.6934    6.0282 C   0  0  0  0  0  0  0  0  0  0  0  0
    2.8342    1.8178    4.6055 C   0  0  2  0  0  0  0  0  0  0  0  0
    4.1079    2.4063    4.5079 O   0  0  0  0  0  0  0  0  0  0  0  0
    3.6513    1.0619    7.3753 H   0  0  0  0  0  0  0  0  0  0  0  0
    2.7246    2.3475    8.0299 H   0  0  0  0  0  0  0  0  0  0  0  0
    4.0433    2.6328    6.9772 H   0  0  0  0  0  0  0  0  0  0  0  0
    0.3338    0.5278    5.8919 H   0  0  0  0  0  0  0  0  0  0  0  0
    0.3860    1.5335    4.7875 H   0  0  0  0  0  0  0  0  0  0  0  0
    0.3297    0.4018    3.3264 H   0  0  0  0  0  0  0  0  0  0  0  0
   -0.5344   -1.5327    3.5594 H   0  0  0  0  0  0  0  0  0  0  0  0
   -0.0689   -1.7397    5.1964 H   0  0  0  0  0  0  0  0  0  0  0  0
   -2.5533   -0.6550    4.3183 H   0  0  0  0  0  0  0  0  0  0  0  0
   -1.9178    0.9938    2.7904 H   0  0  0  0  0  0  0  0  0  0  0  0
   -0.7275    2.6151    2.0017 H   0  0  0  0  0  0  0  0  0  0  0  0
   -1.7293    3.7048    2.8955 H   0  0  0  0  0  0  0  0  0  0  0  0
    0.4099    4.6107    2.3142 H   0  0  0  0  0  0  0  0  0  0  0  0
    2.4275    3.4355    3.1423 H   0  0  0  0  0  0  0  0  0  0  0  0
    0.9962    1.5856    1.5946 H   0  0  0  0  0  0  0  0  0  0  0  0
    2.6108    2.1282    1.4733 H   0  0  0  0  0  0  0  0  0  0  0  0
    4.0957   -0.1070    4.4825 H   0  0  0  0  0  0  0  0  0  0  0  0
    2.5570   -1.7231    5.8533 H   0  0  0  0  0  0  0  0  0  0  0  0
    3.6497   -0.8492    6.7425 H   0  0  0  0  0  0  0  0  0  0  0  0
    0.6953   -1.2798    7.1228 H   0  0  0  0  0  0  0  0  0  0  0  0
    1.9087   -1.0766    8.2931 H   0  0  0  0  0  0  0  0  0  0  0  0
   -1.5497    0.7594    7.8039 H   0  0  0  0  0  0  0  0  0  0  0  0
   -0.9204    2.2167    8.3147 H   0  0  0  0  0  0  0  0  0  0  0  0
   -2.5537    3.6026    7.3099 H   0  0  0  0  0  0  0  0  0  0  0  0
   -3.2923    2.0295    7.0226 H   0  0  0  0  0  0  0  0  0  0  0  0
   -3.2672    3.2062    5.7502 H   0  0  0  0  0  0  0  0  0  0  0  0
    0.5764    5.2745    5.9938 H   0  0  0  0  0  0  0  0  0  0  0  0
    0.2369    3.3558    7.9849 H   0  0  0  0  0  0  0  0  0  0  0  0
    2.5463    4.1499    6.8116 H   0  0  0  0  0  0  0  0  0  0  0  0
    2.3558    4.2425    5.1844 H   0  0  0  0  0  0  0  0  0  0  0  0
    4.3685    2.4211    3.5937 H   0  0  0  0  0  0  0  0  0  0  0  0
  2  1  1  1
  1 33  1  0
  1 34  1  0
  1 35  1  0
  2 30  1  0
  2 31  1  0
  2  3  1  0
  3  4  1  0
  3 36  1  0
  3 37  1  0
  4 17  1  0
  4  5  1  0
  4 38  1  6
  5  6  1  0
  5 39  1  0
  5 40  1  0
  6  7  1  0
  6  8  1  0
  6 41  1  6
  8 24  1  0
  8  9  2  0
  9 10  1  0
  9 42  1  0
 10 11  1  0
 10 43  1  0
 10 44  1  0
 11 26  1  0
 11 12  1  6
 11 13  1  0
 12 45  1  0
 13 31  1  0
 13 14  1  0
 13 46  1  6
 14 15  1  0
 14 47  1  0
 14 48  1  0
 15 16  1  0
 15 17  2  0
 17 18  1  0
 18 19  1  0
 18 31  1  0
 18 49  1  6
 19 20  1  0
 19 50  1  0
 19 51  1  0
 20 21  1  0
 20 52  1  0
 20 53  1  0
 21 22  2  0
 21 23  1  0
 23 24  1  0
 23 54  1  0
 23 55  1  0
 24 25  1  1
 24 26  1  0
 25 56  1  0
 25 57  1  0
 25 58  1  0
 26 27  1  6
 26 28  1  0
 28 29  1  0
 28 30  1  0
 28 59  1  6
 29 60  1  0
 30 61  1  0
 30 62  1  0
 31 32  1  1
 32 63  1  0
M  END
>  <i_m_ct_stereo_status>  (47) 
1

>  <s_m_source_file>  (47) 
/var/tmp/pbs.5076255.sched01/tmppz0entnt/04_lepiep.sdf

>  <i_m_source_file_index>  (47) 
25

>  <i_lp_mmshare_version>  (47) 
48012

>  <i_f3d_flags>  (47) 
1

>  <s_epik_input>  (47) 
W0NIM11bQ0BAXTEyW0NAXTMoW09IXSlbQ0BASF00W0NAXTUoW09IXSlbQ0BdKEYpKFtDQEBIXShbT0hdKVtDSDJdMilbQ0BAXTYoW0NIM10pQyg9W0NIXVtDSDJdNSlbQ0BIXShGKVtDSDJdW0NIXShbQ0gyXTEpQyg9QyhGKVtDSDJdNClbQ0BASF0zW0NIMl1bQ0gyXUMoPU8pW0NIMl02

>  <s_epik_cmdline>  (47) 
J2VwaWtfcHl0aG9uJywgJy1waHQnLCAnMi4wJywgJy1waCcsICc3LjAnLCAnLXRuJywgJzgnLCAnLW1hJywgJzIwMCcsICctaW1hZScsICc8aW5maWxlLm1hZT4nLCAnLW9tYWUnLCAnPG91dGZpbGUubWFlPic=

>  <r_lp_tautomer_probability>  (47) 
1

>  <r_epik_Ionization_Penalty>  (47) 
8.95451e-07

>  <r_epik_Ionization_Penalty_Charging>  (47) 
0

>  <r_epik_Ionization_Penalty_Neutral>  (47) 
8.95451e-07

>  <r_epik_State_Penalty>  (47) 
-0

>  <r_epik_Charging_Adjusted_Penalty>  (47) 
0

>  <i_epik_Tot_Q>  (47) 
0

>  <i_epik_Tot_abs_Q>  (47) 
0

>  <s_lp_Force_Field>  (47) 
OPLS3e

>  <r_lp_Energy>  (47) 
547.618

>  <b_lp_Chiralities_Consistent>  (47) 
1

>  <s_lp_Variant>  (47) 
22:0-1

>  <s_i_glide_gridfile>  (47) 
pfpi4k_grid

>  <i_i_glide_lignum>  (47) 
25

>  <i_i_glide_rotatable_bonds>  (47) 
3

>  <r_i_docking_score>  (47) 
-3.74932

>  <r_i_glide_ligand_efficiency>  (47) 
-0.117166

>  <r_i_glide_ligand_efficiency_sa>  (47) 
-0.37198

>  <r_i_glide_ligand_efficiency_ln>  (47) 
-0.839576

>  <r_i_glide_gscore>  (47) 
-3.74932

>  <r_i_glide_lipo>  (47) 
-0.18675

>  <r_i_glide_hbond>  (47) 
-0.456

>  <r_i_glide_metal>  (47) 
-0

>  <r_i_glide_rewards>  (47) 
-0.356668

>  <r_i_glide_evdw>  (47) 
-16.1627

>  <r_i_glide_ecoul>  (47) 
-11.9263

>  <r_i_glide_erotb>  (47) 
0

>  <r_i_glide_esite>  (47) 
-0.152824

>  <r_i_glide_emodel>  (47) 
-35.2343

>  <r_i_glide_energy>  (47) 
-28.089

>  <r_i_glide_einternal>  (47) 
0.664204

>  <r_i_glide_intrahb_reward>  (47) 
-0

>  <i_i_glide_confnum>  (47) 
1

>  <i_i_glide_posenum>  (47) 
24

>  <r_i_glide_eff_state_penalty>  (47) 
0

>  <ligand_id>  (47) 
22

>  <original_smiles>  (47) 
CC12CC3CC(F)C4=CCC5(O)C6CC(F)=C3C(CCC(=O)CC4(C)C5(F)C(O)C1)C62O

>  <smiles>  (47) 
[H]OC1([H])C([H])([H])C2(C([H])([H])[H])C([H])([H])C3([H])C4=C(F)C([H])([H])C5([H])C6(O[H])C([H])([H])C([H])=C(C([H])(F)C3([H])[H])C(C([H])([H])[H])(C([H])([H])C(=O)C([H])([H])C([H])([H])C4([H])C52O[H])C16F

$$$$
22:0:1
     RDKit          3D

 63 68  0  0  1  0  0  0  0  0999 V2000
    3.3471    3.8367    6.3744 C   0  0  0  0  0  0  0  0  0  0  0  0
    2.1354    3.2064    5.5452 C   0  0  1  0  0  0  0  0  0  0  0  0
    1.4542    1.6767    5.6664 C   0  0  0  0  0  0  0  0  0  0  0  0
    1.5200    0.3422    4.8550 C   0  0  2  0  0  0  0  0  0  0  0  0
    1.0095   -0.8957    5.6886 C   0  0  0  0  0  0  0  0  0  0  0  0
   -0.3594   -0.6369    6.5002 C   0  0  1  0  0  0  0  0  0  0  0  0
   -0.1232   -0.7443    7.8046 F   0  0  0  0  0  0  0  0  0  0  0  0
   -1.1420    0.6697    6.1406 C   0  0  0  0  0  0  0  0  0  0  0  0
   -1.5726    0.6560    4.8457 C   0  0  0  0  0  0  0  0  0  0  0  0
   -1.6045    1.8207    3.8393 C   0  0  0  0  0  0  0  0  0  0  0  0
   -0.5399    2.9636    4.0546 C   0  0  2  0  0  0  0  0  0  0  0  0
   -1.0519    4.0492    3.2836 O   0  0  0  0  0  0  0  0  0  0  0  0
    1.0827    2.7313    3.3448 C   0  0  2  0  0  0  0  0  0  0  0  0
    1.2790    1.5893    2.2664 C   0  0  0  0  0  0  0  0  0  0  0  0
    2.4245    0.6067    2.6269 C   0  0  0  0  0  0  0  0  0  0  0  0
    3.4718    0.6415    1.7870 F   0  0  0  0  0  0  0  0  0  0  0  0
    2.7038    0.3847    3.9373 C   0  0  0  0  0  0  0  0  0  0  0  0
    3.5453    1.4717    4.5796 C   0  0  2  0  0  0  0  0  0  0  0  0
    3.9446    1.0330    6.1941 C   0  0  0  0  0  0  0  0  0  0  0  0
    3.1104    1.0536    7.7047 C   0  0  0  0  0  0  0  0  0  0  0  0
    1.9591    2.0560    8.4018 C   0  0  0  0  0  0  0  0  0  0  0  0
    2.3871    2.8610    9.2266 O   0  0  0  0  0  0  0  0  0  0  0  0
    0.2834    2.0441    8.2195 C   0  0  0  0  0  0  0  0  0  0  0  0
   -0.8760    2.0586    6.9192 C   0  0  2  0  0  0  0  0  0  0  0  0
   -2.1864    2.2038    7.7389 C   0  0  0  0  0  0  0  0  0  0  0  0
   -0.8664    3.2813    5.7091 C   0  0  2  0  0  0  0  0  0  0  0  0
   -2.1371    3.7097    5.6766 F   0  0  0  0  0  0  0  0  0  0  0  0
   -0.1163    4.5484    6.1028 C   0  0  1  0  0  0  0  0  0  0  0  0
   -0.0991    4.8703    7.4799 O   0  0  0  0  0  0  0  0  0  0  0  0
    1.2671    4.5386    5.4916 C   0  0  0  0  0  0  0  0  0  0  0  0
    2.5609    2.7992    4.2115 C   0  0  2  0  0  0  0  0  0  0  0  0
    3.3987    3.7666    3.6067 O   0  0  0  0  0  0  0  0  0  0  0  0
    4.2388    3.2910    6.6158 H   0  0  0  0  0  0  0  0  0  0  0  0
    3.0127    4.2730    7.3115 H   0  0  0  0  0  0  0  0  0  0  0  0
    3.7740    4.6895    5.8422 H   0  0  0  0  0  0  0  0  0  0  0  0
    1.2738    1.1244    6.4845 H   0  0  0  0  0  0  0  0  0  0  0  0
    0.6035    1.6849    5.2627 H   0  0  0  0  0  0  0  0  0  0  0  0
    0.7174    0.2324    4.1299 H   0  0  0  0  0  0  0  0  0  0  0  0
    0.8463   -1.7232    4.9956 H   0  0  0  0  0  0  0  0  0  0  0  0
    1.7850   -1.2414    6.3712 H   0  0  0  0  0  0  0  0  0  0  0  0
   -1.0190   -1.4766    6.2814 H   0  0  0  0  0  0  0  0  0  0  0  0
   -1.6238   -0.3002    4.3426 H   0  0  0  0  0  0  0  0  0  0  0  0
   -1.5298    1.4048    2.8380 H   0  0  0  0  0  0  0  0  0  0  0  0
   -2.6200    2.2159    3.8788 H   0  0  0  0  0  0  0  0  0  0  0  0
   -0.6881    4.0184    2.3928 H   0  0  0  0  0  0  0  0  0  0  0  0
    1.1633    3.6214    2.7208 H   0  0  0  0  0  0  0  0  0  0  0  0
    0.3777    1.0155    2.0718 H   0  0  0  0  0  0  0  0  0  0  0  0
    1.5231    2.0468    1.3056 H   0  0  0  0  0  0  0  0  0  0  0  0
    4.4730    1.5251    4.0166 H   0  0  0  0  0  0  0  0  0  0  0  0
    4.1896   -0.0265    6.0891 H   0  0  0  0  0  0  0  0  0  0  0  0
    4.9459    1.4224    6.3761 H   0  0  0  0  0  0  0  0  0  0  0  0
    2.6814    0.0585    7.8204 H   0  0  0  0  0  0  0  0  0  0  0  0
    3.9125    1.0496    8.4460 H   0  0  0  0  0  0  0  0  0  0  0  0
   -0.0048    1.2163    8.8637 H   0  0  0  0  0  0  0  0  0  0  0  0
   -0.0025    2.8853    8.8486 H   0  0  0  0  0  0  0  0  0  0  0  0
   -2.2624    3.1724    8.2349 H   0  0  0  0  0  0  0  0  0  0  0  0
   -2.2592    1.4360    8.5102 H   0  0  0  0  0  0  0  0  0  0  0  0
   -3.0751    2.0859    7.1160 H   0  0  0  0  0  0  0  0  0  0  0  0
   -0.6242    5.3999    5.6472 H   0  0  0  0  0  0  0  0  0  0  0  0
    0.3816    4.2005    7.9461 H   0  0  0  0  0  0  0  0  0  0  0  0
    1.7634    5.4082    5.9260 H   0  0  0  0  0  0  0  0  0  0  0  0
    1.1841    4.9173    4.4750 H   0  0  0  0  0  0  0  0  0  0  0  0
    3.9013    3.3497    2.9128 H   0  0  0  0  0  0  0  0  0  0  0  0
  2  1  1  1
  1 33  1  0
  1 34  1  0
  1 35  1  0
  2 30  1  0
  2 31  1  0
  2  3  1  0
  3  4  1  0
  3 36  1  0
  3 37  1  0
  4 17  1  0
  4  5  1  0
  4 38  1  6
  5  6  1  0
  5 39  1  0
  5 40  1  0
  6  7  1  0
  6  8  1  0
  6 41  1  6
  8 24  1  0
  8  9  2  0
  9 10  1  0
  9 42  1  0
 10 11  1  0
 10 43  1  0
 10 44  1  0
 11 26  1  0
 11 12  1  6
 11 13  1  0
 12 45  1  0
 13 31  1  0
 13 14  1  0
 13 46  1  6
 14 15  1  0
 14 47  1  0
 14 48  1  0
 15 16  1  0
 15 17  2  0
 17 18  1  0
 18 19  1  0
 18 31  1  0
 18 49  1  6
 19 20  1  0
 19 50  1  0
 19 51  1  0
 20 21  1  0
 20 52  1  0
 20 53  1  0
 21 22  2  0
 21 23  1  0
 23 24  1  0
 23 54  1  0
 23 55  1  0
 24 25  1  1
 24 26  1  0
 25 56  1  0
 25 57  1  0
 25 58  1  0
 26 27  1  6
 26 28  1  0
 28 29  1  0
 28 30  1  0
 28 59  1  6
 29 60  1  0
 30 61  1  0
 30 62  1  0
 31 32  1  6
 32 63  1  0
M  END
>  <i_m_ct_stereo_status>  (48) 
1

>  <s_m_source_file>  (48) 
/var/tmp/pbs.5076255.sched01/tmppz0entnt/04_lepiep.sdf

>  <i_m_source_file_index>  (48) 
25

>  <i_lp_mmshare_version>  (48) 
48012

>  <i_f3d_flags>  (48) 
1

>  <s_epik_input>  (48) 
W0NIM11bQ0BAXTEyW0NAXTMoW09IXSlbQ0BASF00W0NAXTUoW09IXSlbQ0BdKEYpKFtDQEBIXShbT0hdKVtDSDJdMilbQ0BAXTYoW0NIM10pQyg9W0NIXVtDSDJdNSlbQ0BIXShGKVtDSDJdW0NIXShbQ0gyXTEpQyg9QyhGKVtDSDJdNClbQ0BASF0zW0NIMl1bQ0gyXUMoPU8pW0NIMl02

>  <s_epik_cmdline>  (48) 
J2VwaWtfcHl0aG9uJywgJy1waHQnLCAnMi4wJywgJy1waCcsICc3LjAnLCAnLXRuJywgJzgnLCAnLW1hJywgJzIwMCcsICctaW1hZScsICc8aW5maWxlLm1hZT4nLCAnLW9tYWUnLCAnPG91dGZpbGUubWFlPic=

>  <r_lp_tautomer_probability>  (48) 
1

>  <r_epik_Ionization_Penalty>  (48) 
8.95451e-07

>  <r_epik_Ionization_Penalty_Charging>  (48) 
0

>  <r_epik_Ionization_Penalty_Neutral>  (48) 
8.95451e-07

>  <r_epik_State_Penalty>  (48) 
-0

>  <r_epik_Charging_Adjusted_Penalty>  (48) 
0

>  <i_epik_Tot_Q>  (48) 
0

>  <i_epik_Tot_abs_Q>  (48) 
0

>  <s_lp_Force_Field>  (48) 
OPLS3e

>  <r_lp_Energy>  (48) 
547.618

>  <b_lp_Chiralities_Consistent>  (48) 
1

>  <s_lp_Variant>  (48) 
22:0-1

>  <s_i_glide_gridfile>  (48) 
pfpi4k_grid

>  <i_i_glide_lignum>  (48) 
25

>  <i_i_glide_rotatable_bonds>  (48) 
3

>  <r_i_docking_score>  (48) 
-3.45619

>  <r_i_glide_ligand_efficiency>  (48) 
-0.108006

>  <r_i_glide_ligand_efficiency_sa>  (48) 
-0.342897

>  <r_i_glide_ligand_efficiency_ln>  (48) 
-0.773934

>  <r_i_glide_gscore>  (48) 
-3.45619

>  <r_i_glide_lipo>  (48) 
0

>  <r_i_glide_hbond>  (48) 
-0.456

>  <r_i_glide_metal>  (48) 
-0

>  <r_i_glide_rewards>  (48) 
-0.445537

>  <r_i_glide_evdw>  (48) 
-22.1133

>  <r_i_glide_ecoul>  (48) 
-9.21715

>  <r_i_glide_erotb>  (48) 
0

>  <r_i_glide_esite>  (48) 
-0.0664125

>  <r_i_glide_emodel>  (48) 
-37.7693

>  <r_i_glide_energy>  (48) 
-31.3304

>  <r_i_glide_einternal>  (48) 
1.00656

>  <r_i_glide_intrahb_reward>  (48) 
-0

>  <i_i_glide_confnum>  (48) 
1

>  <i_i_glide_posenum>  (48) 
36

>  <r_i_glide_eff_state_penalty>  (48) 
0

>  <ligand_id>  (48) 
22

>  <original_smiles>  (48) 
CC12CC3CC(F)C4=CCC5(O)C6CC(F)=C3C(CCC(=O)CC4(C)C5(F)C(O)C1)C62O

>  <smiles>  (48) 
[H]OC1([H])C([H])([H])C2(C([H])([H])[H])C([H])([H])C3([H])C4=C(F)C([H])([H])C5([H])C6(O[H])C([H])([H])C([H])=C(C([H])(F)C3([H])[H])C(C([H])([H])[H])(C([H])([H])C(=O)C([H])([H])C([H])([H])C4([H])C52O[H])C16F

$$$$
22:0:2
     RDKit          3D

 63 68  0  0  1  0  0  0  0  0999 V2000
    3.2541    3.4347    6.5828 C   0  0  0  0  0  0  0  0  0  0  0  0
    2.0422    2.9933    5.6430 C   0  0  1  0  0  0  0  0  0  0  0  0
    1.2799    1.4993    5.5341 C   0  0  0  0  0  0  0  0  0  0  0  0
    1.3047    0.2860    4.5522 C   0  0  2  0  0  0  0  0  0  0  0  0
    0.6947   -1.0246    5.1829 C   0  0  0  0  0  0  0  0  0  0  0  0
   -0.6817   -0.8017    5.9867 C   0  0  1  0  0  0  0  0  0  0  0  0
   -0.4562   -1.0911    7.2624 F   0  0  0  0  0  0  0  0  0  0  0  0
   -1.3808    0.5864    5.7930 C   0  0  0  0  0  0  0  0  0  0  0  0
   -1.7632    0.7741    4.4976 C   0  0  0  0  0  0  0  0  0  0  0  0
   -1.7067    2.0644    3.6586 C   0  0  0  0  0  0  0  0  0  0  0  0
   -0.5922    3.0994    4.0649 C   0  0  2  0  0  0  0  0  0  0  0  0
   -1.0243    4.3019    3.4356 O   0  0  0  0  0  0  0  0  0  0  0  0
    1.0405    2.8761    3.3738 C   0  0  2  0  0  0  0  0  0  0  0  0
    1.2253    1.8767    2.1572 C   0  0  0  0  0  0  0  0  0  0  0  0
    2.3080    0.7973    2.4126 C   0  0  0  0  0  0  0  0  0  0  0  0
    3.3987    0.9104    1.6400 F   0  0  0  0  0  0  0  0  0  0  0  0
    2.5226    0.3852    3.6874 C   0  0  0  0  0  0  0  0  0  0  0  0
    3.3938    1.3297    4.4905 C   0  0  2  0  0  0  0  0  0  0  0  0
    3.7120    0.6533    6.0397 C   0  0  0  0  0  0  0  0  0  0  0  0
    2.8247    0.5153    7.5125 C   0  0  0  0  0  0  0  0  0  0  0  0
    1.7041    1.4770    8.3086 C   0  0  0  0  0  0  0  0  0  0  0  0
    2.1458    2.1152    9.2595 O   0  0  0  0  0  0  0  0  0  0  0  0
    0.0370    1.5858    8.0778 C   0  0  0  0  0  0  0  0  0  0  0  0
   -1.0726    1.8408    6.7602 C   0  0  2  0  0  0  0  0  0  0  0  0
   -2.4036    1.9566    7.5480 C   0  0  0  0  0  0  0  0  0  0  0  0
   -0.9568    3.2127    5.7314 C   0  0  2  0  0  0  0  0  0  0  0  0
   -2.1990    3.7169    5.7262 F   0  0  0  0  0  0  0  0  0  0  0  0
   -0.1598    4.3732    6.3119 C   0  0  1  0  0  0  0  0  0  0  0  0
   -0.1763    4.4824    7.7192 O   0  0  0  0  0  0  0  0  0  0  0  0
    1.2443    4.3654    5.7492 C   0  0  0  0  0  0  0  0  0  0  0  0
    2.4933    2.7463    4.2756 C   0  0  2  0  0  0  0  0  0  0  0  0
    3.3992    3.7295    3.8044 O   0  0  0  0  0  0  0  0  0  0  0  0
    4.1046    2.8103    6.7780 H   0  0  0  0  0  0  0  0  0  0  0  0
    2.9071    3.7546    7.5624 H   0  0  0  0  0  0  0  0  0  0  0  0
    3.7449    4.3251    6.1835 H   0  0  0  0  0  0  0  0  0  0  0  0
    1.0387    0.8530    6.2629 H   0  0  0  0  0  0  0  0  0  0  0  0
    0.4445    1.6105    5.1162 H   0  0  0  0  0  0  0  0  0  0  0  0
    0.5263    0.3201    3.7959 H   0  0  0  0  0  0  0  0  0  0  0  0
    0.5175   -1.7391    4.3779 H   0  0  0  0  0  0  0  0  0  0  0  0
    1.4278   -1.5026    5.8333 H   0  0  0  0  0  0  0  0  0  0  0  0
   -1.3850   -1.5620    5.6477 H   0  0  0  0  0  0  0  0  0  0  0  0
   -1.8417   -0.0984    3.8646 H   0  0  0  0  0  0  0  0  0  0  0  0
   -1.6106    1.7847    2.6136 H   0  0  0  0  0  0  0  0  0  0  0  0
   -2.7024    2.5050    3.7177 H   0  0  0  0  0  0  0  0  0  0  0  0
   -0.7091    4.2857    2.5339 H   0  0  0  0  0  0  0  0  0  0  0  0
    1.1782    3.8388    2.8809 H   0  0  0  0  0  0  0  0  0  0  0  0
    0.3033    1.3909    1.8492 H   0  0  0  0  0  0  0  0  0  0  0  0
    1.5359    2.4552    1.2889 H   0  0  0  0  0  0  0  0  0  0  0  0
    4.3417    1.4092    3.9621 H   0  0  0  0  0  0  0  0  0  0  0  0
    3.9026   -0.3936    5.7969 H   0  0  0  0  0  0  0  0  0  0  0  0
    4.7255    0.9542    6.3034 H   0  0  0  0  0  0  0  0  0  0  0  0
    2.3399   -0.4589    7.4788 H   0  0  0  0  0  0  0  0  0  0  0  0
    3.5974    0.3689    8.2688 H   0  0  0  0  0  0  0  0  0  0  0  0
   -0.3185    0.7010    8.5994 H   0  0  0  0  0  0  0  0  0  0  0  0
   -0.2178    2.3582    8.8003 H   0  0  0  0  0  0  0  0  0  0  0  0
   -2.4520    2.8470    8.1760 H   0  0  0  0  0  0  0  0  0  0  0  0
   -2.5420    1.0983    8.2012 H   0  0  0  0  0  0  0  0  0  0  0  0
   -3.2749    1.9700    6.8897 H   0  0  0  0  0  0  0  0  0  0  0  0
   -0.6044    5.3093    5.9666 H   0  0  0  0  0  0  0  0  0  0  0  0
   -1.0784    4.5147    8.0063 H   0  0  0  0  0  0  0  0  0  0  0  0
    1.7677    5.1376    6.3166 H   0  0  0  0  0  0  0  0  0  0  0  0
    1.2184    4.8826    4.7921 H   0  0  0  0  0  0  0  0  0  0  0  0
    3.8465    3.3903    3.0352 H   0  0  0  0  0  0  0  0  0  0  0  0
  2  1  1  1
  1 33  1  0
  1 34  1  0
  1 35  1  0
  2 30  1  0
  2 31  1  0
  2  3  1  0
  3  4  1  0
  3 36  1  0
  3 37  1  0
  4 17  1  0
  4  5  1  0
  4 38  1  6
  5  6  1  0
  5 39  1  0
  5 40  1  0
  6  7  1  0
  6  8  1  0
  6 41  1  6
  8 24  1  0
  8  9  2  0
  9 10  1  0
  9 42  1  0
 10 11  1  0
 10 43  1  0
 10 44  1  0
 11 26  1  0
 11 12  1  6
 11 13  1  0
 12 45  1  0
 13 31  1  0
 13 14  1  0
 13 46  1  6
 14 15  1  0
 14 47  1  0
 14 48  1  0
 15 16  1  0
 15 17  2  0
 17 18  1  0
 18 19  1  0
 18 31  1  0
 18 49  1  6
 19 20  1  0
 19 50  1  0
 19 51  1  0
 20 21  1  0
 20 52  1  0
 20 53  1  0
 21 22  2  0
 21 23  1  0
 23 24  1  0
 23 54  1  0
 23 55  1  0
 24 25  1  1
 24 26  1  0
 25 56  1  0
 25 57  1  0
 25 58  1  0
 26 27  1  6
 26 28  1  0
 28 29  1  0
 28 30  1  0
 28 59  1  6
 29 60  1  0
 30 61  1  0
 30 62  1  0
 31 32  1  6
 32 63  1  0
M  END
>  <i_m_ct_stereo_status>  (49) 
1

>  <s_m_source_file>  (49) 
/var/tmp/pbs.5076255.sched01/tmppz0entnt/04_lepiep.sdf

>  <i_m_source_file_index>  (49) 
25

>  <i_lp_mmshare_version>  (49) 
48012

>  <i_f3d_flags>  (49) 
1

>  <s_epik_input>  (49) 
W0NIM11bQ0BAXTEyW0NAXTMoW09IXSlbQ0BASF00W0NAXTUoW09IXSlbQ0BdKEYpKFtDQEBIXShbT0hdKVtDSDJdMilbQ0BAXTYoW0NIM10pQyg9W0NIXVtDSDJdNSlbQ0BIXShGKVtDSDJdW0NIXShbQ0gyXTEpQyg9QyhGKVtDSDJdNClbQ0BASF0zW0NIMl1bQ0gyXUMoPU8pW0NIMl02

>  <s_epik_cmdline>  (49) 
J2VwaWtfcHl0aG9uJywgJy1waHQnLCAnMi4wJywgJy1waCcsICc3LjAnLCAnLXRuJywgJzgnLCAnLW1hJywgJzIwMCcsICctaW1hZScsICc8aW5maWxlLm1hZT4nLCAnLW9tYWUnLCAnPG91dGZpbGUubWFlPic=

>  <r_lp_tautomer_probability>  (49) 
1

>  <r_epik_Ionization_Penalty>  (49) 
8.95451e-07

>  <r_epik_Ionization_Penalty_Charging>  (49) 
0

>  <r_epik_Ionization_Penalty_Neutral>  (49) 
8.95451e-07

>  <r_epik_State_Penalty>  (49) 
-0

>  <r_epik_Charging_Adjusted_Penalty>  (49) 
0

>  <i_epik_Tot_Q>  (49) 
0

>  <i_epik_Tot_abs_Q>  (49) 
0

>  <s_lp_Force_Field>  (49) 
OPLS3e

>  <r_lp_Energy>  (49) 
547.618

>  <b_lp_Chiralities_Consistent>  (49) 
1

>  <s_lp_Variant>  (49) 
22:0-1

>  <s_i_glide_gridfile>  (49) 
pfpi4k_grid

>  <i_i_glide_lignum>  (49) 
25

>  <i_i_glide_rotatable_bonds>  (49) 
3

>  <r_i_docking_score>  (49) 
-3.2617

>  <r_i_glide_ligand_efficiency>  (49) 
-0.101928

>  <r_i_glide_ligand_efficiency_sa>  (49) 
-0.323602

>  <r_i_glide_ligand_efficiency_ln>  (49) 
-0.730384

>  <r_i_glide_gscore>  (49) 
-3.2617

>  <r_i_glide_lipo>  (49) 
0

>  <r_i_glide_hbond>  (49) 
-0.456

>  <r_i_glide_metal>  (49) 
-0

>  <r_i_glide_rewards>  (49) 
-0.435417

>  <r_i_glide_evdw>  (49) 
-21.4897

>  <r_i_glide_ecoul>  (49) 
-8.13861

>  <r_i_glide_erotb>  (49) 
0

>  <r_i_glide_esite>  (49) 
-0.0750092

>  <r_i_glide_emodel>  (49) 
-35.8251

>  <r_i_glide_energy>  (49) 
-29.6283

>  <r_i_glide_einternal>  (49) 
0.9036

>  <r_i_glide_intrahb_reward>  (49) 
-0

>  <i_i_glide_confnum>  (49) 
2

>  <i_i_glide_posenum>  (49) 
7

>  <r_i_glide_eff_state_penalty>  (49) 
0

>  <ligand_id>  (49) 
22

>  <original_smiles>  (49) 
CC12CC3CC(F)C4=CCC5(O)C6CC(F)=C3C(CCC(=O)CC4(C)C5(F)C(O)C1)C62O

>  <smiles>  (49) 
[H]OC1([H])C([H])([H])C2(C([H])([H])[H])C([H])([H])C3([H])C4=C(F)C([H])([H])C5([H])C6(O[H])C([H])([H])C([H])=C(C([H])(F)C3([H])[H])C(C([H])([H])[H])(C([H])([H])C(=O)C([H])([H])C([H])([H])C4([H])C52O[H])C16F

$$$$
22:1:0
     RDKit          3D

 63 68  0  0  1  0  0  0  0  0999 V2000
    3.7791    1.9184    6.8829 C   0  0  0  0  0  0  0  0  0  0  0  0
    2.8023    1.5562    5.6367 C   0  0  1  0  0  0  0  0  0  0  0  0
    1.3377    0.5896    5.5364 C   0  0  0  0  0  0  0  0  0  0  0  0
    0.9698   -0.9400    5.5180 C   0  0  1  0  0  0  0  0  0  0  0  0
   -0.5504   -1.1654    5.0803 C   0  0  0  0  0  0  0  0  0  0  0  0
   -1.5926    0.0002    5.4103 C   0  0  1  0  0  0  0  0  0  0  0  0
   -1.7315    0.1454    6.7208 F   0  0  0  0  0  0  0  0  0  0  0  0
   -1.2141    1.3150    4.7040 C   0  0  0  0  0  0  0  0  0  0  0  0
   -1.0833    1.0780    3.3664 C   0  0  0  0  0  0  0  0  0  0  0  0
   -0.0179    1.5990    2.4193 C   0  0  0  0  0  0  0  0  0  0  0  0
    1.2940    2.0812    3.1135 C   0  0  2  0  0  0  0  0  0  0  0  0
    1.8234    2.9431    2.1071 O   0  0  0  0  0  0  0  0  0  0  0  0
    2.6245    0.9348    3.2660 C   0  0  2  0  0  0  0  0  0  0  0  0
    2.5374   -0.4514    2.5554 C   0  0  0  0  0  0  0  0  0  0  0  0
    2.0611   -1.5899    3.4614 C   0  0  0  0  0  0  0  0  0  0  0  0
    1.0835   -2.3502    2.9455 F   0  0  0  0  0  0  0  0  0  0  0  0
    2.1586   -1.5129    4.8117 C   0  0  0  0  0  0  0  0  0  0  0  0
    3.2898   -0.7773    5.5467 C   0  0  2  0  0  0  0  0  0  0  0  0
    2.9736   -0.7004    7.2368 C   0  0  0  0  0  0  0  0  0  0  0  0
    1.7617    0.1572    8.1556 C   0  0  0  0  0  0  0  0  0  0  0  0
    1.1362    1.7201    8.1090 C   0  0  0  0  0  0  0  0  0  0  0  0
    1.5832    2.4698    8.9707 O   0  0  0  0  0  0  0  0  0  0  0  0
   -0.0822    2.3942    7.1586 C   0  0  0  0  0  0  0  0  0  0  0  0
   -0.4622    2.5128    5.4595 C   0  0  2  0  0  0  0  0  0  0  0  0
   -1.6167    3.5544    5.5495 C   0  0  0  0  0  0  0  0  0  0  0  0
    0.6757    3.0486    4.3483 C   0  0  2  0  0  0  0  0  0  0  0  0
   -0.0105    3.9667    3.6598 F   0  0  0  0  0  0  0  0  0  0  0  0
    1.7846    3.9088    4.9180 C   0  0  1  0  0  0  0  0  0  0  0  0
    1.5036    4.5945    6.1225 O   0  0  0  0  0  0  0  0  0  0  0  0
    2.9906    3.0318    5.0302 C   0  0  0  0  0  0  0  0  0  0  0  0
    3.4220    0.6145    4.6962 C   0  0  2  0  0  0  0  0  0  0  0  0
    4.8066    0.8185    4.4797 O   0  0  0  0  0  0  0  0  0  0  0  0
    3.8911    1.3432    7.7810 H   0  0  0  0  0  0  0  0  0  0  0  0
    3.5031    2.8658    7.3484 H   0  0  0  0  0  0  0  0  0  0  0  0
    4.8155    2.0575    6.5714 H   0  0  0  0  0  0  0  0  0  0  0  0
    0.5755    0.5654    6.2170 H   0  0  0  0  0  0  0  0  0  0  0  0
    0.9140    0.5440    4.6032 H   0  0  0  0  0  0  0  0  0  0  0  0
    0.9169   -1.4634    6.4641 H   0  0  0  0  0  0  0  0  0  0  0  0
   -0.6173   -1.3755    4.0214 H   0  0  0  0  0  0  0  0  0  0  0  0
   -0.9000   -2.0847    5.5465 H   0  0  0  0  0  0  0  0  0  0  0  0
   -2.5771   -0.2972    5.0478 H   0  0  0  0  0  0  0  0  0  0  0  0
   -1.5846    0.2217    2.9432 H   0  0  0  0  0  0  0  0  0  0  0  0
    0.1882    0.8218    1.6872 H   0  0  0  0  0  0  0  0  0  0  0  0
   -0.5093    2.3890    1.8530 H   0  0  0  0  0  0  0  0  0  0  0  0
    1.1158    3.4791    1.7244 H   0  0  0  0  0  0  0  0  0  0  0  0
    3.3944    1.4027    2.6499 H   0  0  0  0  0  0  0  0  0  0  0  0
    1.9286   -0.4056    1.6533 H   0  0  0  0  0  0  0  0  0  0  0  0
    3.5328   -0.7302    2.2070 H   0  0  0  0  0  0  0  0  0  0  0  0
    4.1820   -1.3796    5.3825 H   0  0  0  0  0  0  0  0  0  0  0  0
    2.7749   -1.7407    7.4987 H   0  0  0  0  0  0  0  0  0  0  0  0
    3.9386   -0.6268    7.7358 H   0  0  0  0  0  0  0  0  0  0  0  0
    0.8787   -0.4751    8.2304 H   0  0  0  0  0  0  0  0  0  0  0  0
    2.1491    0.1010    9.1730 H   0  0  0  0  0  0  0  0  0  0  0  0
   -0.9856    2.0382    7.6482 H   0  0  0  0  0  0  0  0  0  0  0  0
   -0.0626    3.4262    7.5041 H   0  0  0  0  0  0  0  0  0  0  0  0
   -1.2644    4.5346    5.8726 H   0  0  0  0  0  0  0  0  0  0  0  0
   -2.3918    3.2353    6.2484 H   0  0  0  0  0  0  0  0  0  0  0  0
   -2.1313    3.6917    4.5956 H   0  0  0  0  0  0  0  0  0  0  0  0
    2.0418    4.6918    4.2004 H   0  0  0  0  0  0  0  0  0  0  0  0
    2.2260    5.1692    6.3210 H   0  0  0  0  0  0  0  0  0  0  0  0
    3.7551    3.6575    5.4944 H   0  0  0  0  0  0  0  0  0  0  0  0
    3.4803    3.0328    4.0613 H   0  0  0  0  0  0  0  0  0  0  0  0
    4.9121    1.5994    3.9577 H   0  0  0  0  0  0  0  0  0  0  0  0
  2  1  1  1
  1 33  1  0
  1 34  1  0
  1 35  1  0
  2 30  1  0
  2 31  1  0
  2  3  1  0
  3  4  1  0
  3 36  1  0
  3 37  1  0
  4 17  1  0
  4  5  1  0
  4 38  1  1
  5  6  1  0
  5 39  1  0
  5 40  1  0
  6  7  1  0
  6  8  1  0
  6 41  1  6
  8 24  1  0
  8  9  2  0
  9 10  1  0
  9 42  1  0
 10 11  1  0
 10 43  1  0
 10 44  1  0
 11 26  1  0
 11 12  1  6
 11 13  1  0
 12 45  1  0
 13 31  1  0
 13 14  1  0
 13 46  1  6
 14 15  1  0
 14 47  1  0
 14 48  1  0
 15 16  1  0
 15 17  2  0
 17 18  1  0
 18 19  1  0
 18 31  1  0
 18 49  1  1
 19 20  1  0
 19 50  1  0
 19 51  1  0
 20 21  1  0
 20 52  1  0
 20 53  1  0
 21 22  2  0
 21 23  1  0
 23 24  1  0
 23 54  1  0
 23 55  1  0
 24 25  1  1
 24 26  1  0
 25 56  1  0
 25 57  1  0
 25 58  1  0
 26 27  1  6
 26 28  1  0
 28 29  1  0
 28 30  1  0
 28 59  1  6
 29 60  1  0
 30 61  1  0
 30 62  1  0
 31 32  1  6
 32 63  1  0
M  END
>  <i_m_ct_stereo_status>  (50) 
1

>  <s_m_source_file>  (50) 
/var/tmp/pbs.5076255.sched01/tmppz0entnt/04_lepiep.sdf

>  <i_m_source_file_index>  (50) 
26

>  <i_lp_mmshare_version>  (50) 
48012

>  <i_f3d_flags>  (50) 
1

>  <s_epik_input>  (50) 
W0NIM11bQ0BAXTEyW0NAXTMoW09IXSlbQ0BASF00W0NAXTUoW09IXSlbQ0BdKEYpKFtDQEBIXShbT0hdKVtDSDJdMilbQ0BAXTYoW0NIM10pQyg9W0NIXVtDSDJdNSlbQ0BIXShGKVtDSDJdW0NIXShbQ0gyXTEpQyg9QyhGKVtDSDJdNClbQ0BASF0zW0NIMl1bQ0gyXUMoPU8pW0NIMl02

>  <s_epik_cmdline>  (50) 
J2VwaWtfcHl0aG9uJywgJy1waHQnLCAnMi4wJywgJy1waCcsICc3LjAnLCAnLXRuJywgJzgnLCAnLW1hJywgJzIwMCcsICctaW1hZScsICc8aW5maWxlLm1hZT4nLCAnLW9tYWUnLCAnPG91dGZpbGUubWFlPic=

>  <r_lp_tautomer_probability>  (50) 
1

>  <r_epik_Ionization_Penalty>  (50) 
8.95451e-07

>  <r_epik_Ionization_Penalty_Charging>  (50) 
0

>  <r_epik_Ionization_Penalty_Neutral>  (50) 
8.95451e-07

>  <r_epik_State_Penalty>  (50) 
-0

>  <r_epik_Charging_Adjusted_Penalty>  (50) 
0

>  <i_epik_Tot_Q>  (50) 
0

>  <i_epik_Tot_abs_Q>  (50) 
0

>  <s_lp_Force_Field>  (50) 
OPLS3e

>  <r_lp_Energy>  (50) 
535.856

>  <b_lp_Chiralities_Consistent>  (50) 
1

>  <s_lp_Variant>  (50) 
22:0-2

>  <s_i_glide_gridfile>  (50) 
pfpi4k_grid

>  <i_i_glide_lignum>  (50) 
26

>  <i_i_glide_rotatable_bonds>  (50) 
3

>  <r_i_docking_score>  (50) 
-2.95539

>  <r_i_glide_ligand_efficiency>  (50) 
-0.0923558

>  <r_i_glide_ligand_efficiency_sa>  (50) 
-0.293211

>  <r_i_glide_ligand_efficiency_ln>  (50) 
-0.661792

>  <r_i_glide_gscore>  (50) 
-2.95539

>  <r_i_glide_lipo>  (50) 
-0.00183719

>  <r_i_glide_hbond>  (50) 
-0.301714

>  <r_i_glide_metal>  (50) 
-0

>  <r_i_glide_rewards>  (50) 
-0.35953

>  <r_i_glide_evdw>  (50) 
-20.4315

>  <r_i_glide_ecoul>  (50) 
-7.1382

>  <r_i_glide_erotb>  (50) 
0

>  <r_i_glide_esite>  (50) 
-0.2

>  <r_i_glide_emodel>  (50) 
-33.332

>  <r_i_glide_energy>  (50) 
-27.5697

>  <r_i_glide_einternal>  (50) 
0.611284

>  <r_i_glide_intrahb_reward>  (50) 
-0

>  <i_i_glide_confnum>  (50) 
2

>  <i_i_glide_posenum>  (50) 
27

>  <r_i_glide_eff_state_penalty>  (50) 
0

>  <ligand_id>  (50) 
22

>  <original_smiles>  (50) 
CC12CC3CC(F)C4=CCC5(O)C6CC(F)=C3C(CCC(=O)CC4(C)C5(F)C(O)C1)C62O

>  <smiles>  (50) 
[H]OC1([H])C([H])([H])C2(C([H])([H])[H])C([H])([H])C3([H])C4=C(F)C([H])([H])C5([H])C6(O[H])C([H])([H])C([H])=C(C([H])(F)C3([H])[H])C(C([H])([H])[H])(C([H])([H])C(=O)C([H])([H])C([H])([H])C4([H])C52O[H])C16F

$$$$
22:1:1
     RDKit          3D

 63 68  0  0  1  0  0  0  0  0999 V2000
    2.4461    3.5404    7.7309 C   0  0  0  0  0  0  0  0  0  0  0  0
    2.0170    2.7900    6.3564 C   0  0  1  0  0  0  0  0  0  0  0  0
    0.9617    1.4200    6.0465 C   0  0  0  0  0  0  0  0  0  0  0  0
    1.0269   -0.1455    6.1999 C   0  0  1  0  0  0  0  0  0  0  0  0
   -0.1737   -0.8637    5.4281 C   0  0  0  0  0  0  0  0  0  0  0  0
   -1.5365   -0.0456    5.2818 C   0  0  1  0  0  0  0  0  0  0  0  0
   -2.0933    0.1473    6.4761 F   0  0  0  0  0  0  0  0  0  0  0  0
   -1.3232    1.2549    4.4707 C   0  0  0  0  0  0  0  0  0  0  0  0
   -0.7447    0.9485    3.2752 C   0  0  0  0  0  0  0  0  0  0  0  0
    0.3857    1.6751    2.5559 C   0  0  0  0  0  0  0  0  0  0  0  0
    1.2616    2.5999    3.4670 C   0  0  2  0  0  0  0  0  0  0  0  0
    1.8138    3.4776    2.4923 O   0  0  0  0  0  0  0  0  0  0  0  0
    2.7349    1.9265    4.1654 C   0  0  2  0  0  0  0  0  0  0  0  0
    3.2325    0.5174    3.7153 C   0  0  0  0  0  0  0  0  0  0  0  0
    2.8171   -0.6250    4.6478 C   0  0  0  0  0  0  0  0  0  0  0  0
    2.2770   -1.6891    4.0305 F   0  0  0  0  0  0  0  0  0  0  0  0
    2.4815   -0.3957    5.9426 C   0  0  0  0  0  0  0  0  0  0  0  0
    3.1052    0.7109    6.8076 C   0  0  2  0  0  0  0  0  0  0  0  0
    2.2870    0.8445    8.3143 C   0  0  0  0  0  0  0  0  0  0  0  0
    0.6718    1.3799    8.7213 C   0  0  0  0  0  0  0  0  0  0  0  0
   -0.2965    2.6661    8.2321 C   0  0  0  0  0  0  0  0  0  0  0  0
   -0.3345    3.6127    9.0161 O   0  0  0  0  0  0  0  0  0  0  0  0
   -1.3051    2.8493    6.8992 C   0  0  0  0  0  0  0  0  0  0  0  0
   -1.1702    2.6929    5.1690 C   0  0  2  0  0  0  0  0  0  0  0  0
   -2.5166    3.3448    4.7623 C   0  0  0  0  0  0  0  0  0  0  0  0
    0.0659    3.4401    4.3129 C   0  0  2  0  0  0  0  0  0  0  0  0
   -0.5929    4.0372    3.3143 F   0  0  0  0  0  0  0  0  0  0  0  0
    0.6818    4.6472    4.9956 C   0  0  1  0  0  0  0  0  0  0  0  0
   -0.1193    5.3365    5.9409 O   0  0  0  0  0  0  0  0  0  0  0  0
    1.9841    4.1915    5.5709 C   0  0  0  0  0  0  0  0  0  0  0  0
    3.1187    1.9929    5.7909 C   0  0  2  0  0  0  0  0  0  0  0  0
    4.3996    2.5857    5.9219 O   0  0  0  0  0  0  0  0  0  0  0  0
    2.4296    3.1112    8.7129 H   0  0  0  0  0  0  0  0  0  0  0  0
    1.8082    4.4021    7.9348 H   0  0  0  0  0  0  0  0  0  0  0  0
    3.4535    3.9562    7.6817 H   0  0  0  0  0  0  0  0  0  0  0  0
    0.0637    1.2271    6.4983 H   0  0  0  0  0  0  0  0  0  0  0  0
    0.8653    1.1613    5.0566 H   0  0  0  0  0  0  0  0  0  0  0  0
    0.8333   -0.5693    7.1770 H   0  0  0  0  0  0  0  0  0  0  0  0
    0.1337   -1.1719    4.4388 H   0  0  0  0  0  0  0  0  0  0  0  0
   -0.3903   -1.7968    5.9390 H   0  0  0  0  0  0  0  0  0  0  0  0
   -2.2528   -0.6505    4.7251 H   0  0  0  0  0  0  0  0  0  0  0  0
   -0.8404   -0.0543    2.8891 H   0  0  0  0  0  0  0  0  0  0  0  0
    1.0009    0.9329    2.0571 H   0  0  0  0  0  0  0  0  0  0  0  0
   -0.0959    2.2148    1.7417 H   0  0  0  0  0  0  0  0  0  0  0  0
    1.1178    3.7793    1.8937 H   0  0  0  0  0  0  0  0  0  0  0  0
    3.5018    2.5495    3.7020 H   0  0  0  0  0  0  0  0  0  0  0  0
    2.9322    0.2963    2.6928 H   0  0  0  0  0  0  0  0  0  0  0  0
    4.3224    0.5242    3.6979 H   0  0  0  0  0  0  0  0  0  0  0  0
    4.1307    0.3927    6.9901 H   0  0  0  0  0  0  0  0  0  0  0  0
    2.2979   -0.1770    8.6940 H   0  0  0  0  0  0  0  0  0  0  0  0
    3.0018    1.2524    9.0270 H   0  0  0  0  0  0  0  0  0  0  0  0
    0.0076    0.5182    8.6726 H   0  0  0  0  0  0  0  0  0  0  0  0
    0.7346    1.5344    9.7984 H   0  0  0  0  0  0  0  0  0  0  0  0
   -2.1827    2.2760    7.1828 H   0  0  0  0  0  0  0  0  0  0  0  0
   -1.6741    3.8596    7.0516 H   0  0  0  0  0  0  0  0  0  0  0  0
   -2.5212    4.4138    4.9657 H   0  0  0  0  0  0  0  0  0  0  0  0
   -3.3631    2.9179    5.2975 H   0  0  0  0  0  0  0  0  0  0  0  0
   -2.7421    3.2195    3.7010 H   0  0  0  0  0  0  0  0  0  0  0  0
    0.9318    5.4015    4.2449 H   0  0  0  0  0  0  0  0  0  0  0  0
   -0.2276    4.7819    6.6986 H   0  0  0  0  0  0  0  0  0  0  0  0
    2.3797    5.0575    6.1029 H   0  0  0  0  0  0  0  0  0  0  0  0
    2.7238    4.2500    4.7798 H   0  0  0  0  0  0  0  0  0  0  0  0
    4.3990    3.4051    5.4547 H   0  0  0  0  0  0  0  0  0  0  0  0
  2  1  1  1
  1 33  1  0
  1 34  1  0
  1 35  1  0
  2 30  1  0
  2 31  1  0
  2  3  1  0
  3  4  1  0
  3 36  1  0
  3 37  1  0
  4 17  1  0
  4  5  1  0
  4 38  1  1
  5  6  1  0
  5 39  1  0
  5 40  1  0
  6  7  1  0
  6  8  1  0
  6 41  1  6
  8 24  1  0
  8  9  2  0
  9 10  1  0
  9 42  1  0
 10 11  1  0
 10 43  1  0
 10 44  1  0
 11 26  1  0
 11 12  1  6
 11 13  1  0
 12 45  1  0
 13 31  1  0
 13 14  1  0
 13 46  1  6
 14 15  1  0
 14 47  1  0
 14 48  1  0
 15 16  1  0
 15 17  2  0
 17 18  1  0
 18 19  1  0
 18 31  1  0
 18 49  1  1
 19 20  1  0
 19 50  1  0
 19 51  1  0
 20 21  1  0
 20 52  1  0
 20 53  1  0
 21 22  2  0
 21 23  1  0
 23 24  1  0
 23 54  1  0
 23 55  1  0
 24 25  1  6
 24 26  1  0
 25 56  1  0
 25 57  1  0
 25 58  1  0
 26 27  1  6
 26 28  1  0
 28 29  1  0
 28 30  1  0
 28 59  1  6
 29 60  1  0
 30 61  1  0
 30 62  1  0
 31 32  1  6
 32 63  1  0
M  END
>  <i_m_ct_stereo_status>  (51) 
1

>  <s_m_source_file>  (51) 
/var/tmp/pbs.5076255.sched01/tmppz0entnt/04_lepiep.sdf

>  <i_m_source_file_index>  (51) 
26

>  <i_lp_mmshare_version>  (51) 
48012

>  <i_f3d_flags>  (51) 
1

>  <s_epik_input>  (51) 
W0NIM11bQ0BAXTEyW0NAXTMoW09IXSlbQ0BASF00W0NAXTUoW09IXSlbQ0BdKEYpKFtDQEBIXShbT0hdKVtDSDJdMilbQ0BAXTYoW0NIM10pQyg9W0NIXVtDSDJdNSlbQ0BIXShGKVtDSDJdW0NIXShbQ0gyXTEpQyg9QyhGKVtDSDJdNClbQ0BASF0zW0NIMl1bQ0gyXUMoPU8pW0NIMl02

>  <s_epik_cmdline>  (51) 
J2VwaWtfcHl0aG9uJywgJy1waHQnLCAnMi4wJywgJy1waCcsICc3LjAnLCAnLXRuJywgJzgnLCAnLW1hJywgJzIwMCcsICctaW1hZScsICc8aW5maWxlLm1hZT4nLCAnLW9tYWUnLCAnPG91dGZpbGUubWFlPic=

>  <r_lp_tautomer_probability>  (51) 
1

>  <r_epik_Ionization_Penalty>  (51) 
8.95451e-07

>  <r_epik_Ionization_Penalty_Charging>  (51) 
0

>  <r_epik_Ionization_Penalty_Neutral>  (51) 
8.95451e-07

>  <r_epik_State_Penalty>  (51) 
-0

>  <r_epik_Charging_Adjusted_Penalty>  (51) 
0

>  <i_epik_Tot_Q>  (51) 
0

>  <i_epik_Tot_abs_Q>  (51) 
0

>  <s_lp_Force_Field>  (51) 
OPLS3e

>  <r_lp_Energy>  (51) 
535.856

>  <b_lp_Chiralities_Consistent>  (51) 
1

>  <s_lp_Variant>  (51) 
22:0-2

>  <s_i_glide_gridfile>  (51) 
pfpi4k_grid

>  <i_i_glide_lignum>  (51) 
26

>  <i_i_glide_rotatable_bonds>  (51) 
3

>  <r_i_docking_score>  (51) 
-2.84539

>  <r_i_glide_ligand_efficiency>  (51) 
-0.0889185

>  <r_i_glide_ligand_efficiency_sa>  (51) 
-0.282299

>  <r_i_glide_ligand_efficiency_ln>  (51) 
-0.637161

>  <r_i_glide_gscore>  (51) 
-2.84539

>  <r_i_glide_lipo>  (51) 
-0.0227266

>  <r_i_glide_hbond>  (51) 
-0.16

>  <r_i_glide_metal>  (51) 
-0

>  <r_i_glide_rewards>  (51) 
-0.32382

>  <r_i_glide_evdw>  (51) 
-21.1921

>  <r_i_glide_ecoul>  (51) 
-7.19101

>  <r_i_glide_erotb>  (51) 
0

>  <r_i_glide_esite>  (51) 
-0.200589

>  <r_i_glide_emodel>  (51) 
-34.1798

>  <r_i_glide_energy>  (51) 
-28.3831

>  <r_i_glide_einternal>  (51) 
0.150447

>  <r_i_glide_intrahb_reward>  (51) 
-0

>  <i_i_glide_confnum>  (51) 
1

>  <i_i_glide_posenum>  (51) 
9

>  <r_i_glide_eff_state_penalty>  (51) 
0

>  <ligand_id>  (51) 
22

>  <original_smiles>  (51) 
CC12CC3CC(F)C4=CCC5(O)C6CC(F)=C3C(CCC(=O)CC4(C)C5(F)C(O)C1)C62O

>  <smiles>  (51) 
[H]OC1([H])C([H])([H])C2(C([H])([H])[H])C([H])([H])C3([H])C4=C(F)C([H])([H])C5([H])C6(O[H])C([H])([H])C([H])=C(C([H])(F)C3([H])[H])C(C([H])([H])[H])(C([H])([H])C(=O)C([H])([H])C([H])([H])C4([H])C52O[H])C16F

$$$$
22:1:2
     RDKit          3D

 63 68  0  0  1  0  0  0  0  0999 V2000
    2.9277    4.2485    6.8993 C   0  0  0  0  0  0  0  0  0  0  0  0
    1.9457    3.4856    5.8534 C   0  0  1  0  0  0  0  0  0  0  0  0
    1.3826    1.8230    5.7720 C   0  0  0  0  0  0  0  0  0  0  0  0
    1.9729    0.4311    5.3325 C   0  0  1  0  0  0  0  0  0  0  0  0
    0.8280   -0.6730    5.1964 C   0  0  0  0  0  0  0  0  0  0  0  0
   -0.4598   -0.5075    6.1270 C   0  0  1  0  0  0  0  0  0  0  0  0
   -0.1401   -0.6666    7.4100 F   0  0  0  0  0  0  0  0  0  0  0  0
   -1.2109    0.8114    5.8276 C   0  0  0  0  0  0  0  0  0  0  0  0
   -1.4908    0.8729    4.4936 C   0  0  0  0  0  0  0  0  0  0  0  0
   -1.3742    2.0696    3.5538 C   0  0  0  0  0  0  0  0  0  0  0  0
   -0.4150    3.2073    4.0426 C   0  0  2  0  0  0  0  0  0  0  0  0
   -0.9064    4.3153    3.2853 O   0  0  0  0  0  0  0  0  0  0  0  0
    1.2627    3.1727    3.5159 C   0  0  2  0  0  0  0  0  0  0  0  0
    1.7028    2.1451    2.4345 C   0  0  0  0  0  0  0  0  0  0  0  0
    2.3517    0.8733    2.9883 C   0  0  0  0  0  0  0  0  0  0  0  0
    1.8691   -0.2740    2.4827 F   0  0  0  0  0  0  0  0  0  0  0  0
    2.8960    0.8443    4.2301 C   0  0  0  0  0  0  0  0  0  0  0  0
    3.5860    2.0460    4.8936 C   0  0  2  0  0  0  0  0  0  0  0  0
    3.9587    1.7103    6.5390 C   0  0  0  0  0  0  0  0  0  0  0  0
    2.9386    1.4707    7.9371 C   0  0  0  0  0  0  0  0  0  0  0  0
    1.5777    2.2499    8.5467 C   0  0  0  0  0  0  0  0  0  0  0  0
    1.8035    3.0286    9.4742 O   0  0  0  0  0  0  0  0  0  0  0  0
   -0.0557    2.0814    8.1743 C   0  0  0  0  0  0  0  0  0  0  0  0
   -1.0495    2.1221    6.7410 C   0  0  2  0  0  0  0  0  0  0  0  0
   -2.4416    2.1701    7.4341 C   0  0  0  0  0  0  0  0  0  0  0  0
   -0.9480    3.3861    5.6352 C   0  0  2  0  0  0  0  0  0  0  0  0
   -2.2308    3.7193    5.4437 F   0  0  0  0  0  0  0  0  0  0  0  0
   -0.4025    4.6800    6.2025 C   0  0  1  0  0  0  0  0  0  0  0  0
   -0.5465    4.9025    7.5903 O   0  0  0  0  0  0  0  0  0  0  0  0
    1.0162    4.7901    5.7451 C   0  0  0  0  0  0  0  0  0  0  0  0
    2.5725    3.2827    4.5418 C   0  0  2  0  0  0  0  0  0  0  0  0
    3.3875    4.3584    4.1095 O   0  0  0  0  0  0  0  0  0  0  0  0
    3.6810    3.7847    7.5064 H   0  0  0  0  0  0  0  0  0  0  0  0
    2.3700    4.7351    7.7004 H   0  0  0  0  0  0  0  0  0  0  0  0
    3.4838    5.0586    6.4250 H   0  0  0  0  0  0  0  0  0  0  0  0
    1.1007    1.2325    6.5568 H   0  0  0  0  0  0  0  0  0  0  0  0
    0.7410    1.6250    4.9957 H   0  0  0  0  0  0  0  0  0  0  0  0
    2.5902   -0.1056    6.0413 H   0  0  0  0  0  0  0  0  0  0  0  0
    0.4846   -0.7514    4.1718 H   0  0  0  0  0  0  0  0  0  0  0  0
    1.2749   -1.6472    5.3972 H   0  0  0  0  0  0  0  0  0  0  0  0
   -1.1372   -1.3304    5.9043 H   0  0  0  0  0  0  0  0  0  0  0  0
   -1.5297   -0.0469    3.9292 H   0  0  0  0  0  0  0  0  0  0  0  0
   -1.0651    1.6960    2.5797 H   0  0  0  0  0  0  0  0  0  0  0  0
   -2.3946    2.4277    3.4004 H   0  0  0  0  0  0  0  0  0  0  0  0
   -0.5937    4.2380    2.3732 H   0  0  0  0  0  0  0  0  0  0  0  0
    1.3313    4.0904    2.9288 H   0  0  0  0  0  0  0  0  0  0  0  0
    0.8899    1.8909    1.7551 H   0  0  0  0  0  0  0  0  0  0  0  0
    2.4521    2.6178    1.8048 H   0  0  0  0  0  0  0  0  0  0  0  0
    4.5169    2.1771    4.3475 H   0  0  0  0  0  0  0  0  0  0  0  0
    4.5029    0.7662    6.4797 H   0  0  0  0  0  0  0  0  0  0  0  0
    4.8125    2.3342    6.8030 H   0  0  0  0  0  0  0  0  0  0  0  0
    2.6809    0.4130    7.9935 H   0  0  0  0  0  0  0  0  0  0  0  0
    3.6439    1.5584    8.7654 H   0  0  0  0  0  0  0  0  0  0  0  0
   -0.3196    1.1652    8.6992 H   0  0  0  0  0  0  0  0  0  0  0  0
   -0.4995    2.8217    8.8390 H   0  0  0  0  0  0  0  0  0  0  0  0
   -2.6167    3.1033    7.9707 H   0  0  0  0  0  0  0  0  0  0  0  0
   -2.5568    1.3532    8.1494 H   0  0  0  0  0  0  0  0  0  0  0  0
   -3.2638    2.0567    6.7277 H   0  0  0  0  0  0  0  0  0  0  0  0
   -0.9266    5.5181    5.7419 H   0  0  0  0  0  0  0  0  0  0  0  0
   -0.0531    4.2423    8.0588 H   0  0  0  0  0  0  0  0  0  0  0  0
    1.3897    5.7053    6.2108 H   0  0  0  0  0  0  0  0  0  0  0  0
    1.0037    5.2202    4.7484 H   0  0  0  0  0  0  0  0  0  0  0  0
    2.8308    5.0618    3.8045 H   0  0  0  0  0  0  0  0  0  0  0  0
  2  1  1  1
  1 33  1  0
  1 34  1  0
  1 35  1  0
  2 30  1  0
  2 31  1  0
  2  3  1  0
  3  4  1  0
  3 36  1  0
  3 37  1  0
  4 17  1  0
  4  5  1  0
  4 38  1  1
  5  6  1  0
  5 39  1  0
  5 40  1  0
  6  7  1  0
  6  8  1  0
  6 41  1  6
  8 24  1  0
  8  9  2  0
  9 10  1  0
  9 42  1  0
 10 11  1  0
 10 43  1  0
 10 44  1  0
 11 26  1  0
 11 12  1  6
 11 13  1  0
 12 45  1  0
 13 31  1  0
 13 14  1  0
 13 46  1  6
 14 15  1  0
 14 47  1  0
 14 48  1  0
 15 16  1  0
 15 17  2  0
 17 18  1  0
 18 19  1  0
 18 31  1  0
 18 49  1  6
 19 20  1  0
 19 50  1  0
 19 51  1  0
 20 21  1  0
 20 52  1  0
 20 53  1  0
 21 22  2  0
 21 23  1  0
 23 24  1  0
 23 54  1  0
 23 55  1  0
 24 25  1  1
 24 26  1  0
 25 56  1  0
 25 57  1  0
 25 58  1  0
 26 27  1  6
 26 28  1  0
 28 29  1  0
 28 30  1  0
 28 59  1  6
 29 60  1  0
 30 61  1  0
 30 62  1  0
 31 32  1  6
 32 63  1  0
M  END
>  <i_m_ct_stereo_status>  (52) 
1

>  <s_m_source_file>  (52) 
/var/tmp/pbs.5076255.sched01/tmppz0entnt/04_lepiep.sdf

>  <i_m_source_file_index>  (52) 
26

>  <i_lp_mmshare_version>  (52) 
48012

>  <i_f3d_flags>  (52) 
1

>  <s_epik_input>  (52) 
W0NIM11bQ0BAXTEyW0NAXTMoW09IXSlbQ0BASF00W0NAXTUoW09IXSlbQ0BdKEYpKFtDQEBIXShbT0hdKVtDSDJdMilbQ0BAXTYoW0NIM10pQyg9W0NIXVtDSDJdNSlbQ0BIXShGKVtDSDJdW0NIXShbQ0gyXTEpQyg9QyhGKVtDSDJdNClbQ0BASF0zW0NIMl1bQ0gyXUMoPU8pW0NIMl02

>  <s_epik_cmdline>  (52) 
J2VwaWtfcHl0aG9uJywgJy1waHQnLCAnMi4wJywgJy1waCcsICc3LjAnLCAnLXRuJywgJzgnLCAnLW1hJywgJzIwMCcsICctaW1hZScsICc8aW5maWxlLm1hZT4nLCAnLW9tYWUnLCAnPG91dGZpbGUubWFlPic=

>  <r_lp_tautomer_probability>  (52) 
1

>  <r_epik_Ionization_Penalty>  (52) 
8.95451e-07

>  <r_epik_Ionization_Penalty_Charging>  (52) 
0

>  <r_epik_Ionization_Penalty_Neutral>  (52) 
8.95451e-07

>  <r_epik_State_Penalty>  (52) 
-0

>  <r_epik_Charging_Adjusted_Penalty>  (52) 
0

>  <i_epik_Tot_Q>  (52) 
0

>  <i_epik_Tot_abs_Q>  (52) 
0

>  <s_lp_Force_Field>  (52) 
OPLS3e

>  <r_lp_Energy>  (52) 
535.856

>  <b_lp_Chiralities_Consistent>  (52) 
1

>  <s_lp_Variant>  (52) 
22:0-2

>  <s_i_glide_gridfile>  (52) 
pfpi4k_grid

>  <i_i_glide_lignum>  (52) 
26

>  <i_i_glide_rotatable_bonds>  (52) 
3

>  <r_i_docking_score>  (52) 
-2.69982

>  <r_i_glide_ligand_efficiency>  (52) 
-0.0843693

>  <r_i_glide_ligand_efficiency_sa>  (52) 
-0.267856

>  <r_i_glide_ligand_efficiency_ln>  (52) 
-0.604563

>  <r_i_glide_gscore>  (52) 
-2.69982

>  <r_i_glide_lipo>  (52) 
0

>  <r_i_glide_hbond>  (52) 
-0.16

>  <r_i_glide_metal>  (52) 
-0

>  <r_i_glide_rewards>  (52) 
-0.32382

>  <r_i_glide_evdw>  (52) 
-23.4171

>  <r_i_glide_ecoul>  (52) 
-6.26347

>  <r_i_glide_erotb>  (52) 
0

>  <r_i_glide_esite>  (52) 
-0.105622

>  <r_i_glide_emodel>  (52) 
-35.0199

>  <r_i_glide_energy>  (52) 
-29.6806

>  <r_i_glide_einternal>  (52) 
0.352743

>  <r_i_glide_intrahb_reward>  (52) 
-0

>  <i_i_glide_confnum>  (52) 
1

>  <i_i_glide_posenum>  (52) 
1

>  <r_i_glide_eff_state_penalty>  (52) 
0

>  <ligand_id>  (52) 
22

>  <original_smiles>  (52) 
CC12CC3CC(F)C4=CCC5(O)C6CC(F)=C3C(CCC(=O)CC4(C)C5(F)C(O)C1)C62O

>  <smiles>  (52) 
[H]OC1([H])C([H])([H])C2(C([H])([H])[H])C([H])([H])C3([H])C4=C(F)C([H])([H])C5([H])C6(O[H])C([H])([H])C([H])=C(C([H])(F)C3([H])[H])C(C([H])([H])[H])(C([H])([H])C(=O)C([H])([H])C([H])([H])C4([H])C52O[H])C16F

$$$$
26:0:0
     RDKit          3D

 68 72  0  0  1  0  0  0  0  0999 V2000
    0.9680   -6.0975    6.2135 C   0  0  0  0  0  0  0  0  0  0  0  0
    1.8017   -5.1091    5.3551 C   0  0  1  0  0  0  0  0  0  0  0  0
    0.8590   -4.0763    4.6783 C   0  0  0  0  0  0  0  0  0  0  0  0
    0.1107   -3.1766    5.6782 C   0  0  0  0  0  0  0  0  0  0  0  0
    1.1205   -2.4205    6.5668 C   0  0  1  0  0  0  0  0  0  0  0  0
    0.4752   -1.6241    7.5502 O   0  0  0  0  0  0  0  0  0  0  0  0
    0.1516   -0.3244    7.1641 C   0  0  2  0  0  0  0  0  0  0  0  0
    0.0431    0.5128    8.4394 C   0  0  0  0  0  0  0  0  0  0  0  0
   -0.2860    1.9629    8.0647 C   0  0  0  0  0  0  0  0  0  0  0  0
   -1.5543    1.9999    7.1960 C   0  0  0  0  0  0  0  0  0  0  0  0
   -1.3918    1.0408    6.0101 C   0  0  0  0  0  0  0  0  0  0  0  0
   -1.0841   -0.2687    6.4848 O   0  0  0  0  0  0  0  0  0  0  0  0
    2.0758   -3.3947    7.2858 C   0  0  0  0  0  0  0  0  0  0  0  0
    2.7548   -4.3505    6.3003 C   0  0  0  0  0  0  0  0  0  0  0  0
    4.0963   -4.5034    6.2794 C   0  0  0  0  0  0  0  0  0  0  0  0
    4.8398   -5.4424    5.3493 C   0  0  0  0  0  0  0  0  0  0  0  0
    3.9032   -6.5056    4.7535 C   0  0  1  0  0  0  0  0  0  0  0  0
    2.5857   -5.8816    4.2238 C   0  0  1  0  0  0  0  0  0  0  0  0
    1.7161   -6.9523    3.5177 C   0  0  0  0  0  0  0  0  0  0  0  0
    2.4798   -7.7508    2.4528 C   0  0  0  0  0  0  0  0  0  0  0  0
    3.7326   -8.4711    3.0432 C   0  0  2  0  0  0  0  0  0  0  0  0
    3.2907   -9.5912    4.0318 C   0  0  0  0  0  0  0  0  0  0  0  0
    4.6354   -7.4215    3.7330 C   0  0  1  0  0  0  0  0  0  0  0  0
    5.3787   -6.7156    2.5864 C   0  0  0  0  0  0  0  0  0  0  0  0
    5.5153   -7.7674    1.4786 C   0  0  0  0  0  0  0  0  0  0  0  0
    4.6665   -8.9953    1.8944 C   0  0  1  0  0  0  0  0  0  0  0  0
    5.5895  -10.1603    2.3201 C   0  0  0  0  0  0  0  0  0  0  0  0
    3.9484   -9.4374    0.7652 O   0  0  0  0  0  0  0  0  0  0  0  0
    0.1551   -6.5531    5.6528 H   0  0  0  0  0  0  0  0  0  0  0  0
    0.4947   -5.6480    7.0844 H   0  0  0  0  0  0  0  0  0  0  0  0
    1.5877   -6.9012    6.5979 H   0  0  0  0  0  0  0  0  0  0  0  0
    1.4261   -3.4324    3.9957 H   0  0  0  0  0  0  0  0  0  0  0  0
    0.1316   -4.5861    4.0501 H   0  0  0  0  0  0  0  0  0  0  0  0
   -0.5270   -2.4771    5.1378 H   0  0  0  0  0  0  0  0  0  0  0  0
   -0.5649   -3.7772    6.2873 H   0  0  0  0  0  0  0  0  0  0  0  0
    1.7585   -1.8010    5.9280 H   0  0  0  0  0  0  0  0  0  0  0  0
    0.9304    0.0893    6.5134 H   0  0  0  0  0  0  0  0  0  0  0  0
   -0.7109    0.0974    9.1107 H   0  0  0  0  0  0  0  0  0  0  0  0
    1.0004    0.4663    8.9621 H   0  0  0  0  0  0  0  0  0  0  0  0
   -0.4240    2.5741    8.9616 H   0  0  0  0  0  0  0  0  0  0  0  0
    0.5498    2.3973    7.5062 H   0  0  0  0  0  0  0  0  0  0  0  0
   -2.4184    1.7189    7.7972 H   0  0  0  0  0  0  0  0  0  0  0  0
   -1.7330    3.0134    6.8423 H   0  0  0  0  0  0  0  0  0  0  0  0
   -2.3113    0.9964    5.4310 H   0  0  0  0  0  0  0  0  0  0  0  0
   -0.6105    1.3832    5.3288 H   0  0  0  0  0  0  0  0  0  0  0  0
    2.8258   -2.8237    7.8484 H   0  0  0  0  0  0  0  0  0  0  0  0
    1.5358   -3.9818    8.0371 H   0  0  0  0  0  0  0  0  0  0  0  0
    4.7123   -3.9386    6.9669 H   0  0  0  0  0  0  0  0  0  0  0  0
    5.3256   -4.8421    4.5801 H   0  0  0  0  0  0  0  0  0  0  0  0
    5.6364   -5.9264    5.9110 H   0  0  0  0  0  0  0  0  0  0  0  0
    3.6370   -7.1637    5.5764 H   0  0  0  0  0  0  0  0  0  0  0  0
    2.8901   -5.1598    3.4573 H   0  0  0  0  0  0  0  0  0  0  0  0
    1.3496   -7.6872    4.2217 H   0  0  0  0  0  0  0  0  0  0  0  0
    0.8261   -6.5091    3.0748 H   0  0  0  0  0  0  0  0  0  0  0  0
    1.7878   -8.4836    2.0340 H   0  0  0  0  0  0  0  0  0  0  0  0
    2.7403   -7.0849    1.6257 H   0  0  0  0  0  0  0  0  0  0  0  0
    4.1244  -10.0576    4.5556 H   0  0  0  0  0  0  0  0  0  0  0  0
    2.7474  -10.3819    3.5173 H   0  0  0  0  0  0  0  0  0  0  0  0
    2.6308   -9.2561    4.8389 H   0  0  0  0  0  0  0  0  0  0  0  0
    5.4033   -7.9488    4.3016 H   0  0  0  0  0  0  0  0  0  0  0  0
    4.8153   -5.8574    2.2132 H   0  0  0  0  0  0  0  0  0  0  0  0
    6.3561   -6.3484    2.9013 H   0  0  0  0  0  0  0  0  0  0  0  0
    5.1721   -7.3379    0.5335 H   0  0  0  0  0  0  0  0  0  0  0  0
    6.5645   -8.0338    1.3258 H   0  0  0  0  0  0  0  0  0  0  0  0
    6.1803   -9.9170    3.2013 H   0  0  0  0  0  0  0  0  0  0  0  0
    6.2977  -10.4430    1.5316 H   0  0  0  0  0  0  0  0  0  0  0  0
    5.0213  -11.0633    2.5450 H   0  0  0  0  0  0  0  0  0  0  0  0
    3.8900  -10.4081    0.7856 H   0  0  0  0  0  0  0  0  0  0  0  0
  2  1  1  1
  1 29  1  0
  1 30  1  0
  1 31  1  0
  2 14  1  0
  2 18  1  0
  2  3  1  0
  3  4  1  0
  3 32  1  0
  3 33  1  0
  4  5  1  0
  4 34  1  0
  4 35  1  0
  5  6  1  0
  5 13  1  0
  5 36  1  6
  6  7  1  0
  7 12  1  0
  7  8  1  0
  7 37  1  6
  8  9  1  0
  8 38  1  0
  8 39  1  0
  9 10  1  0
  9 40  1  0
  9 41  1  0
 10 11  1  0
 10 42  1  0
 10 43  1  0
 11 12  1  0
 11 44  1  0
 11 45  1  0
 13 14  1  0
 13 46  1  0
 13 47  1  0
 14 15  2  0
 15 16  1  0
 15 48  1  0
 16 17  1  0
 16 49  1  0
 16 50  1  0
 17 23  1  0
 17 18  1  0
 17 51  1  1
 18 19  1  0
 18 52  1  6
 19 20  1  0
 19 53  1  0
 19 54  1  0
 20 21  1  0
 20 55  1  0
 20 56  1  0
 21 26  1  0
 21 22  1  1
 21 23  1  0
 22 57  1  0
 22 58  1  0
 22 59  1  0
 23 24  1  0
 23 60  1  1
 24 25  1  0
 24 61  1  0
 24 62  1  0
 25 26  1  0
 25 63  1  0
 25 64  1  0
 26 27  1  0
 26 28  1  6
 27 65  1  0
 27 66  1  0
 27 67  1  0
 28 68  1  0
M  END
>  <i_m_ct_stereo_status>  (53) 
1

>  <s_m_source_file>  (53) 
/var/tmp/pbs.5076255.sched01/tmppz0entnt/04_lepiep.sdf

>  <i_m_source_file_index>  (53) 
30

>  <i_lp_mmshare_version>  (53) 
48012

>  <i_f3d_flags>  (53) 
0

>  <s_epik_input>  (53) 
TzFbQ0gyXVtDSDJdW0NIMl1bQ0gyXVtDQEhdMU9bQ0BIXShbQ0gyXVtDSDJdMilbQ0gyXUMoW0NAQF0yM1tDSDNdKT1bQ0hdW0NIMl1bQ0BIXTRbQ0BIXTNbQ0gyXVtDSDJdW0NAXTUoW0NIM10pW0NASF00W0NIMl1bQ0gyXVtDQF01KFtDSDNdKVtPSF0=

>  <s_epik_cmdline>  (53) 
J2VwaWtfcHl0aG9uJywgJy1waHQnLCAnMi4wJywgJy1waCcsICc3LjAnLCAnLXRuJywgJzgnLCAnLW1hJywgJzIwMCcsICctaW1hZScsICc8aW5maWxlLm1hZT4nLCAnLW9tYWUnLCAnPG91dGZpbGUubWFlPic=

>  <r_lp_tautomer_probability>  (53) 
1

>  <r_epik_Ionization_Penalty>  (53) 
2.95999e-06

>  <r_epik_Ionization_Penalty_Charging>  (53) 
0

>  <r_epik_Ionization_Penalty_Neutral>  (53) 
2.95999e-06

>  <r_epik_State_Penalty>  (53) 
-0

>  <r_epik_Charging_Adjusted_Penalty>  (53) 
0

>  <i_epik_Tot_Q>  (53) 
0

>  <i_epik_Tot_abs_Q>  (53) 
0

>  <s_epik_Chemistry_Notes>  (53) 
This compound contains an acetal/aminal-like group ( X-CH(R)-Y where X, Y are N, S, or O) that may be acid/base labile, releasing an aldehyde.

>  <s_lp_Force_Field>  (53) 
OPLS3e

>  <r_lp_Energy>  (53) 
38.7022

>  <b_lp_Chiralities_Consistent>  (53) 
1

>  <s_lp_Variant>  (53) 
26:0-1

>  <s_i_glide_gridfile>  (53) 
pfpi4k_grid

>  <i_i_glide_lignum>  (53) 
30

>  <i_i_glide_rotatable_bonds>  (53) 
3

>  <r_i_docking_score>  (53) 
-2.78218

>  <r_i_glide_ligand_efficiency>  (53) 
-0.0993636

>  <r_i_glide_ligand_efficiency_sa>  (53) 
-0.301726

>  <r_i_glide_ligand_efficiency_ln>  (53) 
-0.642209

>  <r_i_glide_gscore>  (53) 
-2.78218

>  <r_i_glide_lipo>  (53) 
-0.0973175

>  <r_i_glide_hbond>  (53) 
-0.274011

>  <r_i_glide_metal>  (53) 
-0

>  <r_i_glide_rewards>  (53) 
-0.759659

>  <r_i_glide_evdw>  (53) 
-19.0058

>  <r_i_glide_ecoul>  (53) 
-6.15396

>  <r_i_glide_erotb>  (53) 
0.258091

>  <r_i_glide_esite>  (53) 
-0.0359005

>  <r_i_glide_emodel>  (53) 
-28.1678

>  <r_i_glide_energy>  (53) 
-25.1598

>  <r_i_glide_einternal>  (53) 
3.1042

>  <r_i_glide_intrahb_reward>  (53) 
-0

>  <i_i_glide_confnum>  (53) 
5

>  <i_i_glide_posenum>  (53) 
33

>  <r_i_glide_eff_state_penalty>  (53) 
0

>  <ligand_id>  (53) 
26

>  <original_smiles>  (53) 
CC12CCC(OC3CCCCO3)CC1=CCC1C2CCC2(C)C1CCC2(C)O

>  <smiles>  (53) 
[H]OC1(C([H])([H])[H])C([H])([H])C([H])([H])C2([H])C3([H])C([H])([H])C([H])=C4C([H])([H])C([H])(OC5([H])OC([H])([H])C([H])([H])C([H])([H])C5([H])[H])C([H])([H])C([H])([H])C4(C([H])([H])[H])C3([H])C([H])([H])C([H])([H])C21C([H])([H])[H]

$$$$
27:1:0
     RDKit          3D

 72 78  0  0  1  0  0  0  0  0999 V2000
    1.8648   -1.6483    2.4414 O   0  0  0  0  0  0  0  0  0  0  0  0
    2.5893   -1.0790    1.6216 C   0  0  0  0  0  0  0  0  0  0  0  0
    2.5465    0.3368    1.2805 C   0  0  0  0  0  0  0  0  0  0  0  0
    1.7508    1.2878    1.8304 C   0  0  0  0  0  0  0  0  0  0  0  0
    0.8257    1.2193    2.9770 C   0  0  0  0  0  0  0  0  0  0  0  0
   -0.4101    1.9050    2.9437 C   0  0  0  0  0  0  0  0  0  0  0  0
   -1.3061    1.8113    4.0330 C   0  0  0  0  0  0  0  0  0  0  0  0
   -0.9777    1.0263    5.1497 C   0  0  0  0  0  0  0  0  0  0  0  0
   -2.0618    0.9288    6.4858 Cl  0  0  0  0  0  0  0  0  0  0  0  0
    0.2508    0.3445    5.1918 C   0  0  0  0  0  0  0  0  0  0  0  0
    1.1608    0.4812    4.1306 C   0  0  0  0  0  0  0  0  0  0  0  0
    3.5144   -1.7416    0.9080 N   0  0  0  0  0  0  0  0  0  0  0  0
    3.9638   -3.1292    1.1177 C   0  0  2  0  0  0  0  0  0  0  0  0
    2.8925   -4.1721    0.7393 C   0  0  0  0  0  0  0  0  0  0  0  0
    3.3974   -5.6168    0.9480 C   0  0  0  0  0  0  0  0  0  0  0  0
    3.9489   -5.9479    2.3739 C   0  0  2  0  0  0  0  0  0  0  0  0
    2.8313   -5.9258    3.2489 O   0  0  0  0  0  0  0  0  0  0  0  0
    4.9561   -4.8152    2.7705 C   0  0  1  0  0  0  0  0  0  0  0  0
    6.1498   -4.9776    1.9969 O   0  0  0  0  0  0  0  0  0  0  0  0
    6.8322   -6.0968    2.3935 C   0  0  0  0  0  0  0  0  0  0  0  0
    8.2247   -6.1527    2.6119 C   0  0  0  0  0  0  0  0  0  0  0  0
    9.0116   -5.1091    2.2167 O   0  0  0  0  0  0  0  0  0  0  0  0
    8.8173   -7.2696    3.2505 C   0  0  0  0  0  0  0  0  0  0  0  0
    8.0478   -8.3638    3.7018 C   0  0  0  0  0  0  0  0  0  0  0  0
    6.6716   -8.3186    3.4767 C   0  0  0  0  0  0  0  0  0  0  0  0
    6.1337   -7.2488    2.7673 C   0  0  0  0  0  0  0  0  0  0  0  0
    4.6540   -7.3773    2.4979 C   0  0  2  0  0  0  0  0  0  0  0  0
    4.3696   -8.3496    1.3193 C   0  0  0  0  0  0  0  0  0  0  0  0
    3.1535   -9.1537    1.7504 C   0  0  0  0  0  0  0  0  0  0  0  0
    3.0657   -9.0682    3.2303 N   0  0  1  0  0  0  0  0  0  0  0  0
    2.7465  -10.3283    3.9597 C   0  0  0  0  0  0  0  0  0  0  0  0
    1.2613  -10.6794    3.8628 C   0  0  0  0  0  0  0  0  0  0  0  0
    0.5065  -10.6494    2.5549 C   0  0  0  0  0  0  0  0  0  0  0  0
    0.2022   -9.6203    3.6116 C   0  0  0  0  0  0  0  0  0  0  0  0
    4.2623   -8.3177    3.6671 C   0  0  1  0  0  0  0  0  0  0  0  0
    5.5178   -9.1916    3.9148 C   0  0  0  0  0  0  0  0  0  0  0  0
    4.4132   -3.3852    2.5735 C   0  0  1  0  0  0  0  0  0  0  0  0
    5.3796   -2.4389    2.9889 O   0  0  0  0  0  0  0  0  0  0  0  0
    3.2047    0.6587    0.4943 H   0  0  0  0  0  0  0  0  0  0  0  0
    1.8123    2.2748    1.3933 H   0  0  0  0  0  0  0  0  0  0  0  0
   -0.6751    2.5142    2.0895 H   0  0  0  0  0  0  0  0  0  0  0  0
   -2.2464    2.3493    4.0135 H   0  0  0  0  0  0  0  0  0  0  0  0
    0.5156   -0.2742    6.0346 H   0  0  0  0  0  0  0  0  0  0  0  0
    2.1235   -0.0027    4.2160 H   0  0  0  0  0  0  0  0  0  0  0  0
    3.9563   -1.2340    0.1499 H   0  0  0  0  0  0  0  0  0  0  0  0
    4.8202   -3.2655    0.4531 H   0  0  0  0  0  0  0  0  0  0  0  0
    1.9840   -4.0254    1.3213 H   0  0  0  0  0  0  0  0  0  0  0  0
    2.6091   -4.0391   -0.3054 H   0  0  0  0  0  0  0  0  0  0  0  0
    2.5926   -6.3017    0.6873 H   0  0  0  0  0  0  0  0  0  0  0  0
    4.1888   -5.7662    0.2161 H   0  0  0  0  0  0  0  0  0  0  0  0
    3.1456   -5.9766    4.1404 H   0  0  0  0  0  0  0  0  0  0  0  0
    5.2012   -4.9082    3.8332 H   0  0  0  0  0  0  0  0  0  0  0  0
    9.6354   -4.8467    2.8872 H   0  0  0  0  0  0  0  0  0  0  0  0
    9.8816   -7.2939    3.3843 H   0  0  0  0  0  0  0  0  0  0  0  0
    8.5028   -9.2048    4.2090 H   0  0  0  0  0  0  0  0  0  0  0  0
    4.2429   -7.9195    0.3259 H   0  0  0  0  0  0  0  0  0  0  0  0
    5.1878   -9.0663    1.2129 H   0  0  0  0  0  0  0  0  0  0  0  0
    2.2633   -8.6783    1.3277 H   0  0  0  0  0  0  0  0  0  0  0  0
    3.2270  -10.1860    1.3970 H   0  0  0  0  0  0  0  0  0  0  0  0
    3.3466  -11.1742    3.6205 H   0  0  0  0  0  0  0  0  0  0  0  0
    2.9650  -10.1988    5.0239 H   0  0  0  0  0  0  0  0  0  0  0  0
    0.9904  -11.4908    4.5382 H   0  0  0  0  0  0  0  0  0  0  0  0
    1.0198  -10.3155    1.6699 H   0  0  0  0  0  0  0  0  0  0  0  0
   -0.1632  -11.4811    2.3819 H   0  0  0  0  0  0  0  0  0  0  0  0
   -0.7615   -9.7066    4.1057 H   0  0  0  0  0  0  0  0  0  0  0  0
    0.5420   -8.5909    3.4588 H   0  0  0  0  0  0  0  0  0  0  0  0
    4.0457   -7.7533    4.5803 H   0  0  0  0  0  0  0  0  0  0  0  0
    5.5057  -10.1128    3.3249 H   0  0  0  0  0  0  0  0  0  0  0  0
    5.5995   -9.4615    4.9674 H   0  0  0  0  0  0  0  0  0  0  0  0
    3.5735   -3.2809    3.2620 H   0  0  0  0  0  0  0  0  0  0  0  0
    4.9926   -1.5768    2.9136 H   0  0  0  0  0  0  0  0  0  0  0  0
    2.2889   -8.4546    3.4147 H   0  0  0  0  0  0  0  0  0  0  0  0
  1  2  2  0
  2  3  1  0
  2 12  1  0
  3  4  2  3
  3 39  1  0
  4  5  1  0
  4 40  1  0
  5 11  1  0
  5  6  2  0
  6  7  1  0
  6 41  1  0
  7  8  2  0
  7 42  1  0
  8  9  1  0
  8 10  1  0
 10 11  2  0
 10 43  1  0
 11 44  1  0
 12 13  1  0
 12 45  1  0
 13 37  1  0
 13 14  1  0
 13 46  1  6
 14 15  1  0
 14 47  1  0
 14 48  1  0
 15 16  1  0
 15 49  1  0
 15 50  1  0
 16 27  1  0
 16 17  1  1
 16 18  1  0
 17 51  1  0
 18 19  1  0
 18 37  1  0
 18 52  1  1
 19 20  1  0
 20 26  2  0
 20 21  1  0
 21 22  1  0
 21 23  2  0
 22 53  1  0
 23 24  1  0
 23 54  1  0
 24 25  2  0
 24 55  1  0
 25 36  1  0
 25 26  1  0
 26 27  1  0
 27 35  1  0
 27 28  1  6
 28 29  1  0
 28 56  1  0
 28 57  1  0
 29 30  1  0
 29 58  1  0
 29 59  1  0
 30 31  1  0
 30 35  1  0
 30 72  1  6
 31 32  1  0
 31 60  1  0
 31 61  1  0
 32 34  1  0
 32 33  1  0
 32 62  1  0
 33 34  1  0
 33 63  1  0
 33 64  1  0
 34 65  1  0
 34 66  1  0
 35 36  1  0
 35 67  1  1
 36 68  1  0
 36 69  1  0
 37 38  1  0
 37 70  1  1
 38 71  1  0
M  CHG  1  30   1
M  END
>  <i_m_ct_stereo_status>  (54) 
1

>  <s_m_source_file>  (54) 
/var/tmp/pbs.5076255.sched01/tmppz0entnt/04_lepiep.sdf

>  <i_m_source_file_index>  (54) 
32

>  <i_lp_mmshare_version>  (54) 
48012

>  <i_f3d_flags>  (54) 
0

>  <s_epik_input>  (54) 
W2NIXTFbY0hdYyhDbClbY0hdW2NIXWMxXFtDSF09W0NIXVxDKD1PKVtOSF1bQ0BIXShbQ0gyXVtDSDJdMilbQ0BIXShbT0hdKVtDQEBIXShbQ0BAXTIoW0NAXTM0NSlbT0hdKU9jNmMzYyhbY0hdW2NIXWM2W09IXSlbQ0gyXVtDQEBIXTVOKFtDSDJdW0NIMl00KVtDSDJdW0NIXTdbQ0gyXVtDSDJdNw==

>  <s_epik_cmdline>  (54) 
J2VwaWtfcHl0aG9uJywgJy1waHQnLCAnMi4wJywgJy1waCcsICc3LjAnLCAnLXRuJywgJzgnLCAnLW1hJywgJzIwMCcsICctaW1hZScsICc8aW5maWxlLm1hZT4nLCAnLW9tYWUnLCAnPG91dGZpbGUubWFlPic=

>  <r_lp_tautomer_probability>  (54) 
1

>  <r_epik_Ionization_Penalty>  (54) 
0.00425052

>  <r_epik_Ionization_Penalty_Charging>  (54) 
0.00212974

>  <r_epik_Ionization_Penalty_Neutral>  (54) 
0.00212078

>  <r_epik_State_Penalty>  (54) 
-0

>  <r_epik_Charging_Adjusted_Penalty>  (54) 
0.00212974

>  <i_epik_Tot_Q>  (54) 
1

>  <i_epik_Tot_abs_Q>  (54) 
1

>  <s_lp_Force_Field>  (54) 
OPLS3e

>  <r_lp_Energy>  (54) 
81.2735

>  <b_lp_Chiralities_Consistent>  (54) 
1

>  <s_lp_Variant>  (54) 
27:0-2

>  <s_i_glide_gridfile>  (54) 
pfpi4k_grid

>  <i_i_glide_lignum>  (54) 
32

>  <i_i_glide_rotatable_bonds>  (54) 
9

>  <r_i_docking_score>  (54) 
-2.68442

>  <r_i_glide_ligand_efficiency>  (54) 
-0.0706427

>  <r_i_glide_ligand_efficiency_sa>  (54) 
-0.237499

>  <r_i_glide_ligand_efficiency_ln>  (54) 
-0.578841

>  <r_i_glide_gscore>  (54) 
-2.68442

>  <r_i_glide_lipo>  (54) 
-0.300204

>  <r_i_glide_hbond>  (54) 
0

>  <r_i_glide_metal>  (54) 
-0

>  <r_i_glide_rewards>  (54) 
0

>  <r_i_glide_evdw>  (54) 
-30.7732

>  <r_i_glide_ecoul>  (54) 
-7.34448

>  <r_i_glide_erotb>  (54) 
0.356823

>  <r_i_glide_esite>  (54) 
-0.10071

>  <r_i_glide_emodel>  (54) 
-36.5844

>  <r_i_glide_energy>  (54) 
-38.1177

>  <r_i_glide_einternal>  (54) 
15.6899

>  <r_i_glide_intrahb_reward>  (54) 
-0

>  <i_i_glide_confnum>  (54) 
4

>  <i_i_glide_posenum>  (54) 
1

>  <r_i_glide_eff_state_penalty>  (54) 
0

>  <ligand_id>  (54) 
27

>  <original_smiles>  (54) 
O=C(C=Cc1ccc(Cl)cc1)NC1CCC2(O)C(Oc3c(O)ccc4c3C23CCN(CC2CC2)C3C4)C1O

>  <smiles>  (54) 
[H]Oc1c([H])c([H])c2c3c1OC1([H])C([H])(O[H])C([H])(N([H])C(=O)C([H])=C([H])c4c([H])c([H])c(Cl)c([H])c4[H])C([H])([H])C([H])([H])C1(O[H])C31C([H])([H])C([H])([H])[N+]([H])(C([H])([H])C3([H])C([H])([H])C3([H])[H])C1([H])C2([H])[H]

$$$$
27:1:1
     RDKit          3D

 72 78  0  0  1  0  0  0  0  0999 V2000
    1.9255   -1.9386    2.3980 O   0  0  0  0  0  0  0  0  0  0  0  0
    2.7158   -1.3898    1.6219 C   0  0  0  0  0  0  0  0  0  0  0  0
    2.7402    0.0431    1.2740 C   0  0  0  0  0  0  0  0  0  0  0  0
    1.9829    1.0353    1.8240 C   0  0  0  0  0  0  0  0  0  0  0  0
    1.0483    1.0172    2.9663 C   0  0  0  0  0  0  0  0  0  0  0  0
   -0.1333    1.7863    2.9502 C   0  0  0  0  0  0  0  0  0  0  0  0
   -1.0280    1.7354    4.0425 C   0  0  0  0  0  0  0  0  0  0  0  0
   -0.7585    0.8899    5.1419 C   0  0  0  0  0  0  0  0  0  0  0  0
   -1.8316    0.8261    6.4871 Cl  0  0  0  0  0  0  0  0  0  0  0  0
    0.4180    0.1133    5.1574 C   0  0  0  0  0  0  0  0  0  0  0  0
    1.3202    0.2027    4.0996 C   0  0  0  0  0  0  0  0  0  0  0  0
    3.6637   -2.0731    0.9730 N   0  0  0  0  0  0  0  0  0  0  0  0
    3.9923   -3.4971    1.1609 C   0  0  2  0  0  0  0  0  0  0  0  0
    2.8507   -4.4431    0.7268 C   0  0  0  0  0  0  0  0  0  0  0  0
    3.2341   -5.9278    0.9075 C   0  0  0  0  0  0  0  0  0  0  0  0
    3.7213   -6.3374    2.3344 C   0  0  2  0  0  0  0  0  0  0  0  0
    2.5930   -6.2527    3.1932 O   0  0  0  0  0  0  0  0  0  0  0  0
    4.7917   -5.2913    2.8014 C   0  0  1  0  0  0  0  0  0  0  0  0
    5.9994   -5.5380    2.0666 O   0  0  0  0  0  0  0  0  0  0  0  0
    6.5697   -6.6925    2.4384 C   0  0  0  0  0  0  0  0  0  0  0  0
    7.9665   -6.8923    2.6989 C   0  0  0  0  0  0  0  0  0  0  0  0
    8.8173   -5.8585    2.3987 O   0  0  0  0  0  0  0  0  0  0  0  0
    8.4515   -8.0662    3.2841 C   0  0  0  0  0  0  0  0  0  0  0  0
    7.5813   -9.1156    3.7075 C   0  0  0  0  0  0  0  0  0  0  0  0
    6.2253   -8.9403    3.4284 C   0  0  0  0  0  0  0  0  0  0  0  0
    5.7898   -7.8322    2.7241 C   0  0  0  0  0  0  0  0  0  0  0  0
    4.3077   -7.8220    2.4182 C   0  0  2  0  0  0  0  0  0  0  0  0
    3.9415   -8.7565    1.2220 C   0  0  0  0  0  0  0  0  0  0  0  0
    2.6371   -9.4520    1.6231 C   0  0  0  0  0  0  0  0  0  0  0  0
    2.5762   -9.3826    3.1101 N   0  0  1  0  0  0  0  0  0  0  0  0
    2.1444  -10.6325    3.8325 C   0  0  0  0  0  0  0  0  0  0  0  0
    1.9237  -10.3655    5.3087 C   0  0  0  0  0  0  0  0  0  0  0  0
    0.7067   -9.6388    5.7827 C   0  0  0  0  0  0  0  0  0  0  0  0
    2.0541   -8.9781    5.9160 C   0  0  0  0  0  0  0  0  0  0  0  0
    3.8564   -8.7515    3.5373 C   0  0  1  0  0  0  0  0  0  0  0  0
    5.0097   -9.7387    3.8174 C   0  0  0  0  0  0  0  0  0  0  0  0
    4.3737   -3.8095    2.6247 C   0  0  1  0  0  0  0  0  0  0  0  0
    5.4084   -2.9510    3.0859 O   0  0  0  0  0  0  0  0  0  0  0  0
    3.4173    0.3621    0.4661 H   0  0  0  0  0  0  0  0  0  0  0  0
    2.0943    2.0304    1.3848 H   0  0  0  0  0  0  0  0  0  0  0  0
   -0.3487    2.4374    2.1145 H   0  0  0  0  0  0  0  0  0  0  0  0
   -1.9166    2.3340    4.0414 H   0  0  0  0  0  0  0  0  0  0  0  0
    0.6372   -0.5529    5.9823 H   0  0  0  0  0  0  0  0  0  0  0  0
    2.2393   -0.3650    4.1674 H   0  0  0  0  0  0  0  0  0  0  0  0
    4.2090   -1.5628    0.2814 H   0  0  0  0  0  0  0  0  0  0  0  0
    4.8530   -3.6768    0.5240 H   0  0  0  0  0  0  0  0  0  0  0  0
    1.9331   -4.2406    1.2741 H   0  0  0  0  0  0  0  0  0  0  0  0
    2.6200   -4.2724   -0.3233 H   0  0  0  0  0  0  0  0  0  0  0  0
    2.3862   -6.5449    0.6177 H   0  0  0  0  0  0  0  0  0  0  0  0
    4.0343   -6.1311    0.2031 H   0  0  0  0  0  0  0  0  0  0  0  0
    2.8629   -6.3876    4.0890 H   0  0  0  0  0  0  0  0  0  0  0  0
    4.9990   -5.4318    3.8724 H   0  0  0  0  0  0  0  0  0  0  0  0
    9.7159   -6.1306    2.4898 H   0  0  0  0  0  0  0  0  0  0  0  0
    9.5083   -8.1817    3.4596 H   0  0  0  0  0  0  0  0  0  0  0  0
    7.9595   -9.9922    4.2179 H   0  0  0  0  0  0  0  0  0  0  0  0
    3.8891   -8.3040    0.2441 H   0  0  0  0  0  0  0  0  0  0  0  0
    4.6836   -9.5448    1.1305 H   0  0  0  0  0  0  0  0  0  0  0  0
    1.7454   -8.9685    1.2054 H   0  0  0  0  0  0  0  0  0  0  0  0
    2.6150  -10.4896    1.2875 H   0  0  0  0  0  0  0  0  0  0  0  0
    1.2207  -11.0442    3.3817 H   0  0  0  0  0  0  0  0  0  0  0  0
    2.8869  -11.4280    3.6722 H   0  0  0  0  0  0  0  0  0  0  0  0
    2.2165  -11.2295    5.9085 H   0  0  0  0  0  0  0  0  0  0  0  0
    0.0640   -9.1812    5.0265 H   0  0  0  0  0  0  0  0  0  0  0  0
    0.2192   -9.8430    6.7526 H   0  0  0  0  0  0  0  0  0  0  0  0
    2.5707   -8.9610    6.8565 H   0  0  0  0  0  0  0  0  0  0  0  0
    2.0816   -8.0697    5.3254 H   0  0  0  0  0  0  0  0  0  0  0  0
    3.8042   -8.1104    4.4124 H   0  0  0  0  0  0  0  0  0  0  0  0
    4.9492  -10.6752    3.2166 H   0  0  0  0  0  0  0  0  0  0  0  0
    4.9928  -10.0263    4.8747 H   0  0  0  0  0  0  0  0  0  0  0  0
    3.5276   -3.6403    3.2917 H   0  0  0  0  0  0  0  0  0  0  0  0
    5.0950   -2.0659    3.0246 H   0  0  0  0  0  0  0  0  0  0  0  0
    1.8126   -8.7132    3.3014 H   0  0  0  0  0  0  0  0  0  0  0  0
  1  2  2  0
  2  3  1  0
  2 12  1  0
  3  4  2  3
  3 39  1  0
  4  5  1  0
  4 40  1  0
  5 11  1  0
  5  6  2  0
  6  7  1  0
  6 41  1  0
  7  8  2  0
  7 42  1  0
  8  9  1  0
  8 10  1  0
 10 11  2  0
 10 43  1  0
 11 44  1  0
 12 13  1  0
 12 45  1  0
 13 37  1  0
 13 14  1  0
 13 46  1  6
 14 15  1  0
 14 47  1  0
 14 48  1  0
 15 16  1  0
 15 49  1  0
 15 50  1  0
 16 27  1  0
 16 17  1  1
 16 18  1  0
 17 51  1  0
 18 19  1  0
 18 37  1  0
 18 52  1  1
 19 20  1  0
 20 26  2  0
 20 21  1  0
 21 22  1  0
 21 23  2  0
 22 53  1  0
 23 24  1  0
 23 54  1  0
 24 25  2  0
 24 55  1  0
 25 36  1  0
 25 26  1  0
 26 27  1  0
 27 35  1  0
 27 28  1  6
 28 29  1  0
 28 56  1  0
 28 57  1  0
 29 30  1  0
 29 58  1  0
 29 59  1  0
 30 31  1  0
 30 35  1  0
 30 72  1  6
 31 32  1  0
 31 60  1  0
 31 61  1  0
 32 34  1  0
 32 33  1  0
 32 62  1  0
 33 34  1  0
 33 63  1  0
 33 64  1  0
 34 65  1  0
 34 66  1  0
 35 36  1  0
 35 67  1  1
 36 68  1  0
 36 69  1  0
 37 38  1  0
 37 70  1  1
 38 71  1  0
M  CHG  1  30   1
M  END
>  <i_m_ct_stereo_status>  (55) 
1

>  <s_m_source_file>  (55) 
/var/tmp/pbs.5076255.sched01/tmppz0entnt/04_lepiep.sdf

>  <i_m_source_file_index>  (55) 
32

>  <i_lp_mmshare_version>  (55) 
48012

>  <i_f3d_flags>  (55) 
0

>  <s_epik_input>  (55) 
W2NIXTFbY0hdYyhDbClbY0hdW2NIXWMxXFtDSF09W0NIXVxDKD1PKVtOSF1bQ0BIXShbQ0gyXVtDSDJdMilbQ0BIXShbT0hdKVtDQEBIXShbQ0BAXTIoW0NAXTM0NSlbT0hdKU9jNmMzYyhbY0hdW2NIXWM2W09IXSlbQ0gyXVtDQEBIXTVOKFtDSDJdW0NIMl00KVtDSDJdW0NIXTdbQ0gyXVtDSDJdNw==

>  <s_epik_cmdline>  (55) 
J2VwaWtfcHl0aG9uJywgJy1waHQnLCAnMi4wJywgJy1waCcsICc3LjAnLCAnLXRuJywgJzgnLCAnLW1hJywgJzIwMCcsICctaW1hZScsICc8aW5maWxlLm1hZT4nLCAnLW9tYWUnLCAnPG91dGZpbGUubWFlPic=

>  <r_lp_tautomer_probability>  (55) 
1

>  <r_epik_Ionization_Penalty>  (55) 
0.00425052

>  <r_epik_Ionization_Penalty_Charging>  (55) 
0.00212974

>  <r_epik_Ionization_Penalty_Neutral>  (55) 
0.00212078

>  <r_epik_State_Penalty>  (55) 
-0

>  <r_epik_Charging_Adjusted_Penalty>  (55) 
0.00212974

>  <i_epik_Tot_Q>  (55) 
1

>  <i_epik_Tot_abs_Q>  (55) 
1

>  <s_lp_Force_Field>  (55) 
OPLS3e

>  <r_lp_Energy>  (55) 
81.2735

>  <b_lp_Chiralities_Consistent>  (55) 
1

>  <s_lp_Variant>  (55) 
27:0-2

>  <s_i_glide_gridfile>  (55) 
pfpi4k_grid

>  <i_i_glide_lignum>  (55) 
32

>  <i_i_glide_rotatable_bonds>  (55) 
9

>  <r_i_docking_score>  (55) 
-2.14336

>  <r_i_glide_ligand_efficiency>  (55) 
-0.0564042

>  <r_i_glide_ligand_efficiency_sa>  (55) 
-0.189629

>  <r_i_glide_ligand_efficiency_ln>  (55) 
-0.462171

>  <r_i_glide_gscore>  (55) 
-2.14336

>  <r_i_glide_lipo>  (55) 
-0.0821235

>  <r_i_glide_hbond>  (55) 
0

>  <r_i_glide_metal>  (55) 
-0

>  <r_i_glide_rewards>  (55) 
0

>  <r_i_glide_evdw>  (55) 
-33.761

>  <r_i_glide_ecoul>  (55) 
-4.35951

>  <r_i_glide_erotb>  (55) 
0.356823

>  <r_i_glide_esite>  (55) 
-0.0760822

>  <r_i_glide_emodel>  (55) 
-35.8829

>  <r_i_glide_energy>  (55) 
-38.1205

>  <r_i_glide_einternal>  (55) 
11.5275

>  <r_i_glide_intrahb_reward>  (55) 
-0

>  <i_i_glide_confnum>  (55) 
4

>  <i_i_glide_posenum>  (55) 
16

>  <r_i_glide_eff_state_penalty>  (55) 
0

>  <ligand_id>  (55) 
27

>  <original_smiles>  (55) 
O=C(C=Cc1ccc(Cl)cc1)NC1CCC2(O)C(Oc3c(O)ccc4c3C23CCN(CC2CC2)C3C4)C1O

>  <smiles>  (55) 
[H]Oc1c([H])c([H])c2c3c1OC1([H])C([H])(O[H])C([H])(N([H])C(=O)C([H])=C([H])c4c([H])c([H])c(Cl)c([H])c4[H])C([H])([H])C([H])([H])C1(O[H])C31C([H])([H])C([H])([H])[N+]([H])(C([H])([H])C3([H])C([H])([H])C3([H])[H])C1([H])C2([H])[H]

$$$$
27:1:2
     RDKit          3D

 72 78  0  0  1  0  0  0  0  0999 V2000
    2.5770   -0.3374    5.4186 O   0  0  0  0  0  0  0  0  0  0  0  0
    3.6918    0.1266    5.1943 C   0  0  0  0  0  0  0  0  0  0  0  0
    4.1436    1.4544    5.5898 C   0  0  0  0  0  0  0  0  0  0  0  0
    3.3851    2.5783    5.5285 C   0  0  0  0  0  0  0  0  0  0  0  0
    2.0297    2.7916    4.9685 C   0  0  0  0  0  0  0  0  0  0  0  0
    1.1589    3.7127    5.5968 C   0  0  0  0  0  0  0  0  0  0  0  0
   -0.1482    3.9165    5.1066 C   0  0  0  0  0  0  0  0  0  0  0  0
   -0.6026    3.2024    3.9829 C   0  0  0  0  0  0  0  0  0  0  0  0
   -2.2032    3.4489    3.3904 Cl  0  0  0  0  0  0  0  0  0  0  0  0
    0.2547    2.2881    3.3449 C   0  0  0  0  0  0  0  0  0  0  0  0
    1.5606    2.0924    3.8322 C   0  0  0  0  0  0  0  0  0  0  0  0
    4.6662   -0.5611    4.5686 N   0  0  0  0  0  0  0  0  0  0  0  0
    4.6230   -1.9242    4.0037 C   0  0  2  0  0  0  0  0  0  0  0  0
    3.3984   -2.1806    3.0972 C   0  0  0  0  0  0  0  0  0  0  0  0
    3.3848   -3.6085    2.5192 C   0  0  0  0  0  0  0  0  0  0  0  0
    3.4895   -4.7682    3.5651 C   0  0  2  0  0  0  0  0  0  0  0  0
    2.2885   -4.7710    4.3183 O   0  0  0  0  0  0  0  0  0  0  0  0
    4.6850   -4.4395    4.5195 C   0  0  1  0  0  0  0  0  0  0  0  0
    5.8842   -4.6467    3.7745 O   0  0  0  0  0  0  0  0  0  0  0  0
    6.1069   -5.9720    3.5163 C   0  0  0  0  0  0  0  0  0  0  0  0
    7.3468   -6.6333    3.6651 C   0  0  0  0  0  0  0  0  0  0  0  0
    8.4629   -5.9043    3.9406 O   0  0  0  0  0  0  0  0  0  0  0  0
    7.4468   -8.0451    3.5696 C   0  0  0  0  0  0  0  0  0  0  0  0
    6.2936   -8.8462    3.3956 C   0  0  0  0  0  0  0  0  0  0  0  0
    5.0611   -8.1944    3.2359 C   0  0  0  0  0  0  0  0  0  0  0  0
    5.0306   -6.8042    3.2105 C   0  0  0  0  0  0  0  0  0  0  0  0
    3.6671   -6.2165    2.9105 C   0  0  2  0  0  0  0  0  0  0  0  0
    3.2969   -6.2969    1.3950 C   0  0  0  0  0  0  0  0  0  0  0  0
    1.8089   -6.6869    1.3483 C   0  0  0  0  0  0  0  0  0  0  0  0
    1.5010   -7.3055    2.6553 N   0  0  1  0  0  0  0  0  0  0  0  0
    0.6993   -8.5527    2.6123 C   0  0  0  0  0  0  0  0  0  0  0  0
   -0.7378   -8.2696    2.2201 C   0  0  0  0  0  0  0  0  0  0  0  0
   -1.7865   -8.0500    3.2891 C   0  0  0  0  0  0  0  0  0  0  0  0
   -1.7913   -9.3183    2.4809 C   0  0  0  0  0  0  0  0  0  0  0  0
    2.7763   -7.3786    3.4039 C   0  0  1  0  0  0  0  0  0  0  0  0
    3.6230   -8.6592    3.1568 C   0  0  0  0  0  0  0  0  0  0  0  0
    4.6698   -2.9996    5.1027 C   0  0  1  0  0  0  0  0  0  0  0  0
    5.7854   -2.8257    5.9590 O   0  0  0  0  0  0  0  0  0  0  0  0
    5.1453    1.5503    5.9894 H   0  0  0  0  0  0  0  0  0  0  0  0
    3.8469    3.4735    5.9214 H   0  0  0  0  0  0  0  0  0  0  0  0
    1.4895    4.2636    6.4638 H   0  0  0  0  0  0  0  0  0  0  0  0
   -0.8012    4.6189    5.6014 H   0  0  0  0  0  0  0  0  0  0  0  0
   -0.0789    1.7425    2.4773 H   0  0  0  0  0  0  0  0  0  0  0  0
    2.2021    1.4025    3.3101 H   0  0  0  0  0  0  0  0  0  0  0  0
    5.5508   -0.0866    4.4762 H   0  0  0  0  0  0  0  0  0  0  0  0
    5.5185   -2.0125    3.3830 H   0  0  0  0  0  0  0  0  0  0  0  0
    2.4626   -2.0425    3.6328 H   0  0  0  0  0  0  0  0  0  0  0  0
    3.3921   -1.4558    2.2817 H   0  0  0  0  0  0  0  0  0  0  0  0
    2.4715   -3.7194    1.9359 H   0  0  0  0  0  0  0  0  0  0  0  0
    4.2232   -3.6658    1.8254 H   0  0  0  0  0  0  0  0  0  0  0  0
    2.4241   -5.3192    5.0780 H   0  0  0  0  0  0  0  0  0  0  0  0
    4.6851   -5.1268    5.3708 H   0  0  0  0  0  0  0  0  0  0  0  0
    9.2640   -6.4047    3.9609 H   0  0  0  0  0  0  0  0  0  0  0  0
    8.4038   -8.5227    3.6978 H   0  0  0  0  0  0  0  0  0  0  0  0
    6.3531   -9.9281    3.4082 H   0  0  0  0  0  0  0  0  0  0  0  0
    3.5339   -5.4302    0.7762 H   0  0  0  0  0  0  0  0  0  0  0  0
    3.8592   -7.1141    0.9374 H   0  0  0  0  0  0  0  0  0  0  0  0
    1.1812   -5.8079    1.2132 H   0  0  0  0  0  0  0  0  0  0  0  0
    1.5835   -7.3571    0.5211 H   0  0  0  0  0  0  0  0  0  0  0  0
    1.1120   -9.2844    1.9164 H   0  0  0  0  0  0  0  0  0  0  0  0
    0.6962   -9.0147    3.6010 H   0  0  0  0  0  0  0  0  0  0  0  0
   -0.8631   -7.7509    1.2672 H   0  0  0  0  0  0  0  0  0  0  0  0
   -1.4816   -8.1253    4.3326 H   0  0  0  0  0  0  0  0  0  0  0  0
   -2.5826   -7.3394    3.0760 H   0  0  0  0  0  0  0  0  0  0  0  0
   -2.6001   -9.4271    1.7651 H   0  0  0  0  0  0  0  0  0  0  0  0
   -1.4842  -10.2408    2.9715 H   0  0  0  0  0  0  0  0  0  0  0  0
    2.5877   -7.3021    4.4760 H   0  0  0  0  0  0  0  0  0  0  0  0
    3.4551   -9.1016    2.1700 H   0  0  0  0  0  0  0  0  0  0  0  0
    3.4187   -9.4166    3.9146 H   0  0  0  0  0  0  0  0  0  0  0  0
    3.7860   -2.8920    5.7306 H   0  0  0  0  0  0  0  0  0  0  0  0
    5.7059   -1.9858    6.3870 H   0  0  0  0  0  0  0  0  0  0  0  0
    0.9477   -6.6201    3.1487 H   0  0  0  0  0  0  0  0  0  0  0  0
  1  2  2  0
  2  3  1  0
  2 12  1  0
  3  4  2  3
  3 39  1  0
  4  5  1  0
  4 40  1  0
  5 11  1  0
  5  6  2  0
  6  7  1  0
  6 41  1  0
  7  8  2  0
  7 42  1  0
  8  9  1  0
  8 10  1  0
 10 11  2  0
 10 43  1  0
 11 44  1  0
 12 13  1  0
 12 45  1  0
 13 37  1  0
 13 14  1  0
 13 46  1  6
 14 15  1  0
 14 47  1  0
 14 48  1  0
 15 16  1  0
 15 49  1  0
 15 50  1  0
 16 27  1  0
 16 17  1  1
 16 18  1  0
 17 51  1  0
 18 19  1  0
 18 37  1  0
 18 52  1  1
 19 20  1  0
 20 26  2  0
 20 21  1  0
 21 22  1  0
 21 23  2  0
 22 53  1  0
 23 24  1  0
 23 54  1  0
 24 25  2  0
 24 55  1  0
 25 36  1  0
 25 26  1  0
 26 27  1  0
 27 35  1  0
 27 28  1  6
 28 29  1  0
 28 56  1  0
 28 57  1  0
 29 30  1  0
 29 58  1  0
 29 59  1  0
 30 31  1  0
 30 35  1  0
 30 72  1  1
 31 32  1  0
 31 60  1  0
 31 61  1  0
 32 34  1  0
 32 33  1  0
 32 62  1  0
 33 34  1  0
 33 63  1  0
 33 64  1  0
 34 65  1  0
 34 66  1  0
 35 36  1  0
 35 67  1  1
 36 68  1  0
 36 69  1  0
 37 38  1  0
 37 70  1  1
 38 71  1  0
M  CHG  1  30   1
M  END
>  <i_m_ct_stereo_status>  (56) 
1

>  <s_m_source_file>  (56) 
/var/tmp/pbs.5076255.sched01/tmppz0entnt/04_lepiep.sdf

>  <i_m_source_file_index>  (56) 
32

>  <i_lp_mmshare_version>  (56) 
48012

>  <i_f3d_flags>  (56) 
0

>  <s_epik_input>  (56) 
W2NIXTFbY0hdYyhDbClbY0hdW2NIXWMxXFtDSF09W0NIXVxDKD1PKVtOSF1bQ0BIXShbQ0gyXVtDSDJdMilbQ0BIXShbT0hdKVtDQEBIXShbQ0BAXTIoW0NAXTM0NSlbT0hdKU9jNmMzYyhbY0hdW2NIXWM2W09IXSlbQ0gyXVtDQEBIXTVOKFtDSDJdW0NIMl00KVtDSDJdW0NIXTdbQ0gyXVtDSDJdNw==

>  <s_epik_cmdline>  (56) 
J2VwaWtfcHl0aG9uJywgJy1waHQnLCAnMi4wJywgJy1waCcsICc3LjAnLCAnLXRuJywgJzgnLCAnLW1hJywgJzIwMCcsICctaW1hZScsICc8aW5maWxlLm1hZT4nLCAnLW9tYWUnLCAnPG91dGZpbGUubWFlPic=

>  <r_lp_tautomer_probability>  (56) 
1

>  <r_epik_Ionization_Penalty>  (56) 
0.00425052

>  <r_epik_Ionization_Penalty_Charging>  (56) 
0.00212974

>  <r_epik_Ionization_Penalty_Neutral>  (56) 
0.00212078

>  <r_epik_State_Penalty>  (56) 
-0

>  <r_epik_Charging_Adjusted_Penalty>  (56) 
0.00212974

>  <i_epik_Tot_Q>  (56) 
1

>  <i_epik_Tot_abs_Q>  (56) 
1

>  <s_lp_Force_Field>  (56) 
OPLS3e

>  <r_lp_Energy>  (56) 
81.2735

>  <b_lp_Chiralities_Consistent>  (56) 
1

>  <s_lp_Variant>  (56) 
27:0-2

>  <s_i_glide_gridfile>  (56) 
pfpi4k_grid

>  <i_i_glide_lignum>  (56) 
32

>  <i_i_glide_rotatable_bonds>  (56) 
9

>  <r_i_docking_score>  (56) 
-1.74649

>  <r_i_glide_ligand_efficiency>  (56) 
-0.0459603

>  <r_i_glide_ligand_efficiency_sa>  (56) 
-0.154517

>  <r_i_glide_ligand_efficiency_ln>  (56) 
-0.376595

>  <r_i_glide_gscore>  (56) 
-1.74649

>  <r_i_glide_lipo>  (56) 
-0.381411

>  <r_i_glide_hbond>  (56) 
0

>  <r_i_glide_metal>  (56) 
-0

>  <r_i_glide_rewards>  (56) 
-0.000634629

>  <r_i_glide_evdw>  (56) 
-30.3879

>  <r_i_glide_ecoul>  (56) 
-1.20791

>  <r_i_glide_erotb>  (56) 
0.356823

>  <r_i_glide_esite>  (56) 
-0.0206851

>  <r_i_glide_emodel>  (56) 
-34.3701

>  <r_i_glide_energy>  (56) 
-31.5958

>  <r_i_glide_einternal>  (56) 
4.91823

>  <r_i_glide_intrahb_reward>  (56) 
-0

>  <i_i_glide_confnum>  (56) 
4

>  <i_i_glide_posenum>  (56) 
35

>  <r_i_glide_eff_state_penalty>  (56) 
0

>  <ligand_id>  (56) 
27

>  <original_smiles>  (56) 
O=C(C=Cc1ccc(Cl)cc1)NC1CCC2(O)C(Oc3c(O)ccc4c3C23CCN(CC2CC2)C3C4)C1O

>  <smiles>  (56) 
[H]Oc1c([H])c([H])c2c3c1OC1([H])C([H])(O[H])C([H])(N([H])C(=O)C([H])=C([H])c4c([H])c([H])c(Cl)c([H])c4[H])C([H])([H])C([H])([H])C1(O[H])C31C([H])([H])C([H])([H])[N+]([H])(C([H])([H])C3([H])C([H])([H])C3([H])[H])C1([H])C2([H])[H]

$$$$
29:0:0
     RDKit          3D

 32 35  0  0  1  0  0  0  0  0999 V2000
    4.5782   -2.4402   -3.7552 O   0  0  0  0  0  0  0  0  0  0  0  0
    5.1477   -3.0707   -2.8651 C   0  0  0  0  0  0  0  0  0  0  0  0
    4.9054   -2.7437   -1.3443 C   0  0  2  0  0  0  0  0  0  0  0  0
    4.1535   -1.3196   -1.0987 C   0  0  0  0  0  0  0  0  0  0  0  0
    4.4823   -0.8670    0.3514 C   0  0  1  0  0  0  0  0  0  0  0  0
    3.6584   -1.5262    1.4939 C   0  0  0  0  0  0  0  0  0  0  0  0
    3.6011   -3.0785    1.5040 C   0  0  2  0  0  0  0  0  0  0  0  0
    4.9459   -3.8555    1.6174 C   0  0  0  0  0  0  0  0  0  0  0  0
    5.6453   -3.8482    0.0635 C   0  0  2  0  0  0  0  0  0  0  0  0
    7.0391   -3.5305    0.2752 C   0  0  0  0  0  0  0  0  0  0  0  0
    6.0408   -2.6492   -0.2840 C   0  0  2  0  0  0  0  0  0  0  0  0
    5.9304   -1.2639    0.5145 C   0  0  0  0  0  0  0  0  0  0  0  0
    4.4041   -3.6175   -0.7060 C   0  0  1  0  0  0  0  0  0  0  0  0
    3.0896   -3.5130    0.1593 C   0  0  0  0  0  0  0  0  0  0  0  0
    5.8656   -3.8641   -3.0704 H   0  0  0  0  0  0  0  0  0  0  0  0
    4.5681   -0.5839   -1.7903 H   0  0  0  0  0  0  0  0  0  0  0  0
    3.0854   -1.3211   -1.3159 H   0  0  0  0  0  0  0  0  0  0  0  0
    4.3737    0.2146    0.4357 H   0  0  0  0  0  0  0  0  0  0  0  0
    4.0383   -1.1815    2.4558 H   0  0  0  0  0  0  0  0  0  0  0  0
    2.6378   -1.1462    1.4328 H   0  0  0  0  0  0  0  0  0  0  0  0
    2.9192   -3.3929    2.2953 H   0  0  0  0  0  0  0  0  0  0  0  0
    5.5634   -3.4234    2.4062 H   0  0  0  0  0  0  0  0  0  0  0  0
    4.7503   -4.8861    1.9175 H   0  0  0  0  0  0  0  0  0  0  0  0
    5.8696   -4.9515   -0.1300 H   0  0  0  0  0  0  0  0  0  0  0  0
    7.3947   -3.3394    1.2869 H   0  0  0  0  0  0  0  0  0  0  0  0
    7.7325   -4.0115   -0.4193 H   0  0  0  0  0  0  0  0  0  0  0  0
    6.8411   -2.2770   -1.0266 H   0  0  0  0  0  0  0  0  0  0  0  0
    6.5777   -0.5049    0.0735 H   0  0  0  0  0  0  0  0  0  0  0  0
    6.2214   -1.3316    1.5642 H   0  0  0  0  0  0  0  0  0  0  0  0
    4.2536   -4.5186   -1.3688 H   0  0  0  0  0  0  0  0  0  0  0  0
    2.6746   -4.5177    0.2569 H   0  0  0  0  0  0  0  0  0  0  0  0
    2.2754   -2.9096   -0.2413 H   0  0  0  0  0  0  0  0  0  0  0  0
  1  2  2  0
  3  2  1  6
  2 15  1  0
  3  9  1  0
  3 13  1  0
  3  4  1  0
  4  5  1  0
  4 16  1  0
  4 17  1  0
  5 12  1  0
  5  6  1  0
  5 18  1  6
  6  7  1  0
  6 19  1  0
  6 20  1  0
  7 14  1  0
  7  8  1  0
  7 21  1  1
  8  9  1  0
  8 22  1  0
  8 23  1  0
  9 10  1  0
  9 24  1  6
 10 11  1  0
 10 25  1  0
 10 26  1  0
 11 12  1  0
 11 13  1  0
 11 27  1  6
 12 28  1  0
 12 29  1  0
 13 14  1  0
 13 30  1  6
 14 31  1  0
 14 32  1  0
M  END
>  <i_m_ct_stereo_status>  (57) 
1

>  <s_m_source_file>  (57) 
/var/tmp/pbs.5076255.sched01/tmppz0entnt/04_lepiep.sdf

>  <i_m_source_file_index>  (57) 
35

>  <i_lp_mmshare_version>  (57) 
48012

>  <i_f3d_flags>  (57) 
0

>  <s_epik_input>  (57) 
Tz1bQ0hdQzEyW0NAQEhdM1tDSDJdW0NASF00W0NIMl1bQ0BIXShbQ0gyXTEpW0NIMl1bQ0hdKFtDSDJdMylbQ0hdMltDSDJdNA==

>  <s_epik_cmdline>  (57) 
J2VwaWtfcHl0aG9uJywgJy1waHQnLCAnMi4wJywgJy1waCcsICc3LjAnLCAnLXRuJywgJzgnLCAnLW1hJywgJzIwMCcsICctaW1hZScsICc8aW5maWxlLm1hZT4nLCAnLW9tYWUnLCAnPG91dGZpbGUubWFlPic=

>  <r_lp_tautomer_probability>  (57) 
1

>  <r_epik_Ionization_Penalty>  (57) 
0

>  <r_epik_Ionization_Penalty_Charging>  (57) 
0

>  <r_epik_Ionization_Penalty_Neutral>  (57) 
0

>  <r_epik_State_Penalty>  (57) 
-0

>  <r_epik_Charging_Adjusted_Penalty>  (57) 
0

>  <i_epik_Tot_Q>  (57) 
0

>  <i_epik_Tot_abs_Q>  (57) 
0

>  <s_lp_Force_Field>  (57) 
OPLS3e

>  <r_lp_Energy>  (57) 
518.809

>  <b_lp_Chiralities_Consistent>  (57) 
1

>  <s_lp_Variant>  (57) 
29:0-1

>  <s_i_glide_gridfile>  (57) 
pfpi4k_grid

>  <i_i_glide_lignum>  (57) 
35

>  <i_i_glide_rotatable_bonds>  (57) 
1

>  <r_i_docking_score>  (57) 
-4.16144

>  <r_i_glide_ligand_efficiency>  (57) 
-0.297246

>  <r_i_glide_ligand_efficiency_sa>  (57) 
-0.716404

>  <r_i_glide_ligand_efficiency_ln>  (57) 
-1.14355

>  <r_i_glide_gscore>  (57) 
-4.16144

>  <r_i_glide_lipo>  (57) 
-0.413475

>  <r_i_glide_hbond>  (57) 
-0.0176583

>  <r_i_glide_metal>  (57) 
-0

>  <r_i_glide_rewards>  (57) 
-2.38301

>  <r_i_glide_evdw>  (57) 
-20.907

>  <r_i_glide_ecoul>  (57) 
-2.01299

>  <r_i_glide_erotb>  (57) 
0

>  <r_i_glide_esite>  (57) 
0

>  <r_i_glide_emodel>  (57) 
-28.8451

>  <r_i_glide_energy>  (57) 
-22.92

>  <r_i_glide_einternal>  (57) 
0.736988

>  <r_i_glide_intrahb_reward>  (57) 
-0

>  <i_i_glide_confnum>  (57) 
1

>  <i_i_glide_posenum>  (57) 
10

>  <r_i_glide_eff_state_penalty>  (57) 
0

>  <ligand_id>  (57) 
29

>  <original_smiles>  (57) 
O=CC12CC3CC4CC1CC(C3)C2C4

>  <smiles>  (57) 
[H]C(=O)C12C([H])([H])C3([H])C([H])([H])C4([H])C([H])([H])C1([H])C([H])([H])C([H])(C3([H])[H])C2([H])C4([H])[H]

$$$$
29:0:1
     RDKit          3D

 32 35  0  0  1  0  0  0  0  0999 V2000
    4.2165   -1.3820   -3.7872 O   0  0  0  0  0  0  0  0  0  0  0  0
    3.7626   -1.1039   -2.6747 C   0  0  0  0  0  0  0  0  0  0  0  0
    4.2315   -1.8621   -1.3718 C   0  0  2  0  0  0  0  0  0  0  0  0
    3.8399   -1.0838    0.0058 C   0  0  0  0  0  0  0  0  0  0  0  0
    4.8052   -1.5808    1.1162 C   0  0  1  0  0  0  0  0  0  0  0  0
    4.4757   -2.9537    1.7695 C   0  0  0  0  0  0  0  0  0  0  0  0
    4.2385   -4.1445    0.8011 C   0  0  2  0  0  0  0  0  0  0  0  0
    5.3974   -4.5404   -0.1609 C   0  0  0  0  0  0  0  0  0  0  0  0
    5.3615   -3.4295   -1.4533 C   0  0  2  0  0  0  0  0  0  0  0  0
    6.7407   -3.0491   -1.6619 C   0  0  0  0  0  0  0  0  0  0  0  0
    5.7134   -2.2308   -1.0641 C   0  0  2  0  0  0  0  0  0  0  0  0
    6.1245   -1.6994    0.3898 C   0  0  0  0  0  0  0  0  0  0  0  0
    3.9515   -3.0181   -1.3118 C   0  0  1  0  0  0  0  0  0  0  0  0
    3.1539   -3.7323   -0.1540 C   0  0  0  0  0  0  0  0  0  0  0  0
    3.0239   -0.3170   -2.5147 H   0  0  0  0  0  0  0  0  0  0  0  0
    4.0265   -0.0187   -0.1312 H   0  0  0  0  0  0  0  0  0  0  0  0
    2.7903   -1.1497    0.2935 H   0  0  0  0  0  0  0  0  0  0  0  0
    4.8761   -0.8335    1.9085 H   0  0  0  0  0  0  0  0  0  0  0  0
    5.2686   -3.2196    2.4706 H   0  0  0  0  0  0  0  0  0  0  0  0
    3.5809   -2.8271    2.3828 H   0  0  0  0  0  0  0  0  0  0  0  0
    3.9265   -5.0100    1.3882 H   0  0  0  0  0  0  0  0  0  0  0  0
    6.3391   -4.5873    0.3877 H   0  0  0  0  0  0  0  0  0  0  0  0
    5.2207   -5.5443   -0.5506 H   0  0  0  0  0  0  0  0  0  0  0  0
    5.3498   -4.0983   -2.3788 H   0  0  0  0  0  0  0  0  0  0  0  0
    7.5133   -3.4668   -1.0178 H   0  0  0  0  0  0  0  0  0  0  0  0
    7.0047   -2.8496   -2.7025 H   0  0  0  0  0  0  0  0  0  0  0  0
    6.1582   -1.3293   -1.6290 H   0  0  0  0  0  0  0  0  0  0  0  0
    6.6005   -0.7195    0.3248 H   0  0  0  0  0  0  0  0  0  0  0  0
    6.8237   -2.3483    0.9192 H   0  0  0  0  0  0  0  0  0  0  0  0
    3.4198   -3.3172   -2.2615 H   0  0  0  0  0  0  0  0  0  0  0  0
    2.7028   -4.6345   -0.5704 H   0  0  0  0  0  0  0  0  0  0  0  0
    2.3267   -3.1826    0.2936 H   0  0  0  0  0  0  0  0  0  0  0  0
  1  2  2  0
  3  2  1  6
  2 15  1  0
  3  9  1  0
  3 13  1  0
  3  4  1  0
  4  5  1  0
  4 16  1  0
  4 17  1  0
  5 12  1  0
  5  6  1  0
  5 18  1  1
  6  7  1  0
  6 19  1  0
  6 20  1  0
  7 14  1  0
  7  8  1  0
  7 21  1  1
  8  9  1  0
  8 22  1  0
  8 23  1  0
  9 10  1  0
  9 24  1  6
 10 11  1  0
 10 25  1  0
 10 26  1  0
 11 12  1  0
 11 13  1  0
 11 27  1  6
 12 28  1  0
 12 29  1  0
 13 14  1  0
 13 30  1  6
 14 31  1  0
 14 32  1  0
M  END
>  <i_m_ct_stereo_status>  (58) 
1

>  <s_m_source_file>  (58) 
/var/tmp/pbs.5076255.sched01/tmppz0entnt/04_lepiep.sdf

>  <i_m_source_file_index>  (58) 
35

>  <i_lp_mmshare_version>  (58) 
48012

>  <i_f3d_flags>  (58) 
0

>  <s_epik_input>  (58) 
Tz1bQ0hdQzEyW0NAQEhdM1tDSDJdW0NASF00W0NIMl1bQ0BIXShbQ0gyXTEpW0NIMl1bQ0hdKFtDSDJdMylbQ0hdMltDSDJdNA==

>  <s_epik_cmdline>  (58) 
J2VwaWtfcHl0aG9uJywgJy1waHQnLCAnMi4wJywgJy1waCcsICc3LjAnLCAnLXRuJywgJzgnLCAnLW1hJywgJzIwMCcsICctaW1hZScsICc8aW5maWxlLm1hZT4nLCAnLW9tYWUnLCAnPG91dGZpbGUubWFlPic=

>  <r_lp_tautomer_probability>  (58) 
1

>  <r_epik_Ionization_Penalty>  (58) 
0

>  <r_epik_Ionization_Penalty_Charging>  (58) 
0

>  <r_epik_Ionization_Penalty_Neutral>  (58) 
0

>  <r_epik_State_Penalty>  (58) 
-0

>  <r_epik_Charging_Adjusted_Penalty>  (58) 
0

>  <i_epik_Tot_Q>  (58) 
0

>  <i_epik_Tot_abs_Q>  (58) 
0

>  <s_lp_Force_Field>  (58) 
OPLS3e

>  <r_lp_Energy>  (58) 
518.809

>  <b_lp_Chiralities_Consistent>  (58) 
1

>  <s_lp_Variant>  (58) 
29:0-1

>  <s_i_glide_gridfile>  (58) 
pfpi4k_grid

>  <i_i_glide_lignum>  (58) 
35

>  <i_i_glide_rotatable_bonds>  (58) 
1

>  <r_i_docking_score>  (58) 
-3.94066

>  <r_i_glide_ligand_efficiency>  (58) 
-0.281476

>  <r_i_glide_ligand_efficiency_sa>  (58) 
-0.678397

>  <r_i_glide_ligand_efficiency_ln>  (58) 
-1.08288

>  <r_i_glide_gscore>  (58) 
-3.94066

>  <r_i_glide_lipo>  (58) 
-0.341793

>  <r_i_glide_hbond>  (58) 
0

>  <r_i_glide_metal>  (58) 
-0

>  <r_i_glide_rewards>  (58) 
-2.11172

>  <r_i_glide_evdw>  (58) 
-22.1315

>  <r_i_glide_ecoul>  (58) 
-2.35485

>  <r_i_glide_erotb>  (58) 
0

>  <r_i_glide_esite>  (58) 
-0.0273514

>  <r_i_glide_emodel>  (58) 
-30.4336

>  <r_i_glide_energy>  (58) 
-24.4863

>  <r_i_glide_einternal>  (58) 
0.0320338

>  <r_i_glide_intrahb_reward>  (58) 
-0

>  <i_i_glide_confnum>  (58) 
1

>  <i_i_glide_posenum>  (58) 
38

>  <r_i_glide_eff_state_penalty>  (58) 
0

>  <ligand_id>  (58) 
29

>  <original_smiles>  (58) 
O=CC12CC3CC4CC1CC(C3)C2C4

>  <smiles>  (58) 
[H]C(=O)C12C([H])([H])C3([H])C([H])([H])C4([H])C([H])([H])C1([H])C([H])([H])C([H])(C3([H])[H])C2([H])C4([H])[H]

$$$$
29:0:2
     RDKit          3D

 32 35  0  0  1  0  0  0  0  0999 V2000
    8.7280   -4.6540    0.4665 O   0  0  0  0  0  0  0  0  0  0  0  0
    7.5697   -4.7276    0.8762 C   0  0  0  0  0  0  0  0  0  0  0  0
    6.4864   -3.6672    0.4410 C   0  0  2  0  0  0  0  0  0  0  0  0
    7.1320   -2.2671   -0.0825 C   0  0  0  0  0  0  0  0  0  0  0  0
    6.0426   -1.1712    0.0798 C   0  0  1  0  0  0  0  0  0  0  0  0
    4.9502   -1.1037   -1.0238 C   0  0  0  0  0  0  0  0  0  0  0  0
    4.2119   -2.4290   -1.3570 C   0  0  2  0  0  0  0  0  0  0  0  0
    3.4346   -3.1350   -0.2084 C   0  0  0  0  0  0  0  0  0  0  0  0
    4.5939   -3.9616    0.7275 C   0  0  2  0  0  0  0  0  0  0  0  0
    4.2429   -3.6822    2.1004 C   0  0  0  0  0  0  0  0  0  0  0  0
    5.3701   -3.1349    1.3809 C   0  0  2  0  0  0  0  0  0  0  0  0
    5.3836   -1.5330    1.3896 C   0  0  0  0  0  0  0  0  0  0  0  0
    5.6446   -4.0647   -0.3068 C   0  0  1  0  0  0  0  0  0  0  0  0
    5.2619   -3.4455   -1.7081 C   0  0  0  0  0  0  0  0  0  0  0  0
    7.2299   -5.5029    1.5635 H   0  0  0  0  0  0  0  0  0  0  0  0
    7.9741   -2.0147    0.5651 H   0  0  0  0  0  0  0  0  0  0  0  0
    7.5639   -2.3090   -1.0816 H   0  0  0  0  0  0  0  0  0  0  0  0
    6.5097   -0.1898    0.1582 H   0  0  0  0  0  0  0  0  0  0  0  0
    4.2134   -0.3481   -0.7503 H   0  0  0  0  0  0  0  0  0  0  0  0
    5.4118   -0.7312   -1.9381 H   0  0  0  0  0  0  0  0  0  0  0  0
    3.5457   -2.2511   -2.2026 H   0  0  0  0  0  0  0  0  0  0  0  0
    2.8282   -2.4083    0.3354 H   0  0  0  0  0  0  0  0  0  0  0  0
    2.7323   -3.8556   -0.6308 H   0  0  0  0  0  0  0  0  0  0  0  0
    4.1780   -5.0244    0.7820 H   0  0  0  0  0  0  0  0  0  0  0  0
    3.3966   -3.0280    2.3159 H   0  0  0  0  0  0  0  0  0  0  0  0
    4.4415   -4.4976    2.8026 H   0  0  0  0  0  0  0  0  0  0  0  0
    5.9898   -3.2445    2.3485 H   0  0  0  0  0  0  0  0  0  0  0  0
    5.9784   -1.1574    2.2248 H   0  0  0  0  0  0  0  0  0  0  0  0
    4.3946   -1.0812    1.4870 H   0  0  0  0  0  0  0  0  0  0  0  0
    5.8145   -5.1642   -0.4970 H   0  0  0  0  0  0  0  0  0  0  0  0
    4.7924   -4.2312   -2.3043 H   0  0  0  0  0  0  0  0  0  0  0  0
    6.0762   -3.0733   -2.3288 H   0  0  0  0  0  0  0  0  0  0  0  0
  1  2  2  0
  3  2  1  1
  2 15  1  0
  3  9  1  0
  3 13  1  0
  3  4  1  0
  4  5  1  0
  4 16  1  0
  4 17  1  0
  5 12  1  0
  5  6  1  0
  5 18  1  1
  6  7  1  0
  6 19  1  0
  6 20  1  0
  7 14  1  0
  7  8  1  0
  7 21  1  6
  8  9  1  0
  8 22  1  0
  8 23  1  0
  9 10  1  0
  9 24  1  1
 10 11  1  0
 10 25  1  0
 10 26  1  0
 11 12  1  0
 11 13  1  0
 11 27  1  1
 12 28  1  0
 12 29  1  0
 13 14  1  0
 13 30  1  1
 14 31  1  0
 14 32  1  0
M  END
>  <i_m_ct_stereo_status>  (59) 
1

>  <s_m_source_file>  (59) 
/var/tmp/pbs.5076255.sched01/tmppz0entnt/04_lepiep.sdf

>  <i_m_source_file_index>  (59) 
35

>  <i_lp_mmshare_version>  (59) 
48012

>  <i_f3d_flags>  (59) 
0

>  <s_epik_input>  (59) 
Tz1bQ0hdQzEyW0NAQEhdM1tDSDJdW0NASF00W0NIMl1bQ0BIXShbQ0gyXTEpW0NIMl1bQ0hdKFtDSDJdMylbQ0hdMltDSDJdNA==

>  <s_epik_cmdline>  (59) 
J2VwaWtfcHl0aG9uJywgJy1waHQnLCAnMi4wJywgJy1waCcsICc3LjAnLCAnLXRuJywgJzgnLCAnLW1hJywgJzIwMCcsICctaW1hZScsICc8aW5maWxlLm1hZT4nLCAnLW9tYWUnLCAnPG91dGZpbGUubWFlPic=

>  <r_lp_tautomer_probability>  (59) 
1

>  <r_epik_Ionization_Penalty>  (59) 
0

>  <r_epik_Ionization_Penalty_Charging>  (59) 
0

>  <r_epik_Ionization_Penalty_Neutral>  (59) 
0

>  <r_epik_State_Penalty>  (59) 
-0

>  <r_epik_Charging_Adjusted_Penalty>  (59) 
0

>  <i_epik_Tot_Q>  (59) 
0

>  <i_epik_Tot_abs_Q>  (59) 
0

>  <s_lp_Force_Field>  (59) 
OPLS3e

>  <r_lp_Energy>  (59) 
518.809

>  <b_lp_Chiralities_Consistent>  (59) 
1

>  <s_lp_Variant>  (59) 
29:0-1

>  <s_i_glide_gridfile>  (59) 
pfpi4k_grid

>  <i_i_glide_lignum>  (59) 
35

>  <i_i_glide_rotatable_bonds>  (59) 
1

>  <r_i_docking_score>  (59) 
-3.92764

>  <r_i_glide_ligand_efficiency>  (59) 
-0.280546

>  <r_i_glide_ligand_efficiency_sa>  (59) 
-0.676155

>  <r_i_glide_ligand_efficiency_ln>  (59) 
-1.0793

>  <r_i_glide_gscore>  (59) 
-3.92764

>  <r_i_glide_lipo>  (59) 
-0.462387

>  <r_i_glide_hbond>  (59) 
0

>  <r_i_glide_metal>  (59) 
-0

>  <r_i_glide_rewards>  (59) 
-2.29296

>  <r_i_glide_evdw>  (59) 
-19.7626

>  <r_i_glide_ecoul>  (59) 
-1.22774

>  <r_i_glide_erotb>  (59) 
0

>  <r_i_glide_esite>  (59) 
0

>  <r_i_glide_emodel>  (59) 
-26.5641

>  <r_i_glide_energy>  (59) 
-20.9904

>  <r_i_glide_einternal>  (59) 
0.731706

>  <r_i_glide_intrahb_reward>  (59) 
-0

>  <i_i_glide_confnum>  (59) 
2

>  <i_i_glide_posenum>  (59) 
31

>  <r_i_glide_eff_state_penalty>  (59) 
0

>  <ligand_id>  (59) 
29

>  <original_smiles>  (59) 
O=CC12CC3CC4CC1CC(C3)C2C4

>  <smiles>  (59) 
[H]C(=O)C12C([H])([H])C3([H])C([H])([H])C4([H])C([H])([H])C1([H])C([H])([H])C([H])(C3([H])[H])C2([H])C4([H])[H]

$$$$
30:0:0
     RDKit          3D

 81 87  0  0  1  0  0  0  0  0999 V2000
    1.1472   -1.2742    7.0886 C   0  0  0  0  0  0  0  0  0  0  0  0
    1.9293   -0.2975    6.4114 O   0  0  0  0  0  0  0  0  0  0  0  0
    2.6498    0.6277    7.2378 C   0  0  2  0  0  0  0  0  0  0  0  0
    2.5576    2.1002    6.6475 C   0  0  2  0  0  0  0  0  0  0  0  0
    1.2293    2.7351    6.1691 C   0  0  2  0  0  0  0  0  0  0  0  0
    1.3650    3.3999    4.4369 C   0  0  1  0  0  0  0  0  0  0  0  0
    0.6350    4.4210    3.7312 O   0  0  0  0  0  0  0  0  0  0  0  0
    2.6975    4.1251    4.0719 C   0  0  0  0  0  0  0  0  0  0  0  0
    3.3893    3.8595    5.2936 C   0  0  1  0  0  0  0  0  0  0  0  0
    2.6852    4.7169    6.2993 O   0  0  0  0  0  0  0  0  0  0  0  0
    1.2882    5.2434    6.2538 C   0  0  1  0  0  0  0  0  0  0  0  0
    1.1467    6.3690    5.4204 O   0  0  0  0  0  0  0  0  0  0  0  0
   -0.1421    4.2173    6.2434 C   0  0  1  0  0  0  0  0  0  0  0  0
   -1.0618    2.6021    5.8403 C   0  0  2  0  0  0  0  0  0  0  0  0
   -1.2328    1.2841    6.8807 C   0  0  0  0  0  0  0  0  0  0  0  0
   -0.9265    1.5888    4.6149 C   0  0  1  0  0  0  0  0  0  0  0  0
   -2.0349    0.7267    4.4296 O   0  0  0  0  0  0  0  0  0  0  0  0
   -0.2955    1.9887    3.3579 C   0  0  1  0  0  0  0  0  0  0  0  0
   -1.1995    3.0382    2.8692 O   0  0  0  0  0  0  0  0  0  0  0  0
   -2.3283    3.6984    3.5054 C   0  0  0  0  0  0  0  0  0  0  0  0
   -2.4175    5.0254    2.7529 C   0  0  0  0  0  0  0  0  0  0  0  0
   -3.6304    2.9679    3.1818 C   0  0  0  0  0  0  0  0  0  0  0  0
   -2.2795    4.1347    4.8807 O   0  0  0  0  0  0  0  0  0  0  0  0
   -2.2786    3.2833    6.0768 C   0  0  2  0  0  0  0  0  0  0  0  0
   -1.5488    3.6733    7.4878 C   0  0  1  0  0  0  0  0  0  0  0  0
   -2.2243    3.1984    8.8173 C   0  0  0  0  0  0  0  0  0  0  0  0
    0.1343    3.4600    7.3470 C   0  0  1  0  0  0  0  0  0  0  0  0
    0.7768    3.9265    8.6805 C   0  0  0  0  0  0  0  0  0  0  0  0
    1.3102    2.2717    3.5478 C   0  0  2  0  0  0  0  0  0  0  0  0
    2.4127    1.5468    4.2752 O   0  0  0  0  0  0  0  0  0  0  0  0
    3.2951    2.2446    5.3441 C   0  0  2  0  0  0  0  0  0  0  0  0
    4.6986    1.6217    5.3301 C   0  0  0  0  0  0  0  0  0  0  0  0
    4.7828    0.2213    5.9468 C   0  0  0  0  0  0  0  0  0  0  0  0
    5.2928   -0.8035    5.3956 N   0  0  0  0  0  0  0  0  0  0  0  0
    5.7107   -0.5282    4.0562 O   0  0  0  0  0  0  0  0  0  0  0  0
    4.1430    0.1460    7.3366 C   0  0  0  0  0  0  0  0  0  0  0  0
    4.9426    1.0239    8.3432 C   0  0  0  0  0  0  0  0  0  0  0  0
    4.2364   -1.2878    7.9227 C   0  0  0  0  0  0  0  0  0  0  0  0
    0.4857   -1.7542    6.3704 H   0  0  0  0  0  0  0  0  0  0  0  0
    0.5318   -0.8289    7.8675 H   0  0  0  0  0  0  0  0  0  0  0  0
    1.7399   -2.0597    7.5413 H   0  0  0  0  0  0  0  0  0  0  0  0
    2.1984    0.6578    8.2331 H   0  0  0  0  0  0  0  0  0  0  0  0
    3.0164    2.7268    7.4110 H   0  0  0  0  0  0  0  0  0  0  0  0
    0.9646    1.7102    6.0758 H   0  0  0  0  0  0  0  0  0  0  0  0
    0.6789    4.2796    2.7793 H   0  0  0  0  0  0  0  0  0  0  0  0
    3.2557    3.7059    3.2290 H   0  0  0  0  0  0  0  0  0  0  0  0
    2.6879    5.2065    3.8952 H   0  0  0  0  0  0  0  0  0  0  0  0
    4.4216    4.2028    5.2322 H   0  0  0  0  0  0  0  0  0  0  0  0
    1.2673    5.7615    7.2054 H   0  0  0  0  0  0  0  0  0  0  0  0
    1.1254    6.0331    4.5231 H   0  0  0  0  0  0  0  0  0  0  0  0
   -0.7625    5.1254    6.1586 H   0  0  0  0  0  0  0  0  0  0  0  0
   -1.0349    0.2740    6.5195 H   0  0  0  0  0  0  0  0  0  0  0  0
   -2.2642    1.1555    7.2145 H   0  0  0  0  0  0  0  0  0  0  0  0
   -0.6036    1.2618    7.7704 H   0  0  0  0  0  0  0  0  0  0  0  0
   -0.2035    0.7969    4.8057 H   0  0  0  0  0  0  0  0  0  0  0  0
   -2.4474    0.9386    3.6069 H   0  0  0  0  0  0  0  0  0  0  0  0
   -0.3669    1.1653    2.6444 H   0  0  0  0  0  0  0  0  0  0  0  0
   -1.5463    5.6521    2.9807 H   0  0  0  0  0  0  0  0  0  0  0  0
   -3.3815    5.5164    2.8996 H   0  0  0  0  0  0  0  0  0  0  0  0
   -2.3830    4.8808    1.6853 H   0  0  0  0  0  0  0  0  0  0  0  0
   -3.8691    2.3788    4.0417 H   0  0  0  0  0  0  0  0  0  0  0  0
   -3.5013    2.3772    2.2816 H   0  0  0  0  0  0  0  0  0  0  0  0
   -4.4746    3.6415    3.0147 H   0  0  0  0  0  0  0  0  0  0  0  0
   -3.1921    2.6830    6.1869 H   0  0  0  0  0  0  0  0  0  0  0  0
   -1.8432    4.7129    7.6971 H   0  0  0  0  0  0  0  0  0  0  0  0
   -1.9793    2.1899    9.1523 H   0  0  0  0  0  0  0  0  0  0  0  0
   -3.3154    3.2700    8.7542 H   0  0  0  0  0  0  0  0  0  0  0  0
   -1.9284    3.8533    9.6408 H   0  0  0  0  0  0  0  0  0  0  0  0
    0.2795    4.8149    9.0791 H   0  0  0  0  0  0  0  0  0  0  0  0
    1.8426    4.1340    8.6074 H   0  0  0  0  0  0  0  0  0  0  0  0
    0.6665    3.1366    9.4258 H   0  0  0  0  0  0  0  0  0  0  0  0
    1.6789    2.4912    2.5393 H   0  0  0  0  0  0  0  0  0  0  0  0
    5.0133    1.6196    4.3032 H   0  0  0  0  0  0  0  0  0  0  0  0
    5.4084    2.2464    5.8713 H   0  0  0  0  0  0  0  0  0  0  0  0
    5.5894    0.4208    3.9845 H   0  0  0  0  0  0  0  0  0  0  0  0
    4.5076    0.9736    9.3480 H   0  0  0  0  0  0  0  0  0  0  0  0
    4.9864    2.0780    8.0630 H   0  0  0  0  0  0  0  0  0  0  0  0
    5.9816    0.6818    8.4161 H   0  0  0  0  0  0  0  0  0  0  0  0
    3.6587   -1.3803    8.8464 H   0  0  0  0  0  0  0  0  0  0  0  0
    5.2653   -1.5716    8.1471 H   0  0  0  0  0  0  0  0  0  0  0  0
    3.8720   -2.0316    7.2140 H   0  0  0  0  0  0  0  0  0  0  0  0
  1  2  1  0
  1 39  1  0
  1 40  1  0
  1 41  1  0
  2  3  1  0
  3 36  1  0
  3  4  1  0
  3 42  1  1
  4 31  1  0
  4  5  1  0
  4 43  1  1
  5 27  1  0
  5  6  1  0
  5 44  1  6
  6 29  1  0
  6  7  1  6
  6  8  1  0
  7 45  1  0
  8  9  1  0
  8 46  1  0
  8 47  1  0
  9 31  1  0
  9 10  1  0
  9 48  1  6
 10 11  1  0
 11 12  1  0
 11 13  1  0
 11 49  1  1
 12 50  1  0
 13 27  1  0
 13 14  1  0
 13 51  1  1
 14 24  1  0
 14 15  1  1
 14 16  1  0
 15 52  1  0
 15 53  1  0
 15 54  1  0
 16 17  1  0
 16 18  1  0
 16 55  1  1
 17 56  1  0
 18 19  1  0
 18 29  1  0
 18 57  1  6
 19 20  1  0
 20 21  1  0
 20 22  1  0
 20 23  1  0
 21 58  1  0
 21 59  1  0
 21 60  1  0
 22 61  1  0
 22 62  1  0
 22 63  1  0
 23 24  1  0
 24 25  1  0
 24 64  1  1
 25 26  1  0
 25 27  1  0
 25 65  1  1
 26 66  1  0
 26 67  1  0
 26 68  1  0
 27 28  1  1
 28 69  1  0
 28 70  1  0
 28 71  1  0
 29 30  1  0
 29 72  1  6
 30 31  1  0
 31 32  1  1
 32 33  1  0
 32 73  1  0
 32 74  1  0
 33 34  2  3
 33 36  1  0
 34 35  1  0
 35 75  1  0
 36 37  1  0
 36 38  1  0
 37 76  1  0
 37 77  1  0
 37 78  1  0
 38 79  1  0
 38 80  1  0
 38 81  1  0
M  END
>  <i_m_ct_stereo_status>  (60) 
1

>  <s_m_source_file>  (60) 
/var/tmp/pbs.5076255.sched01/tmppz0entnt/04_lepiep.sdf

>  <i_m_source_file_index>  (60) 
36

>  <i_lp_mmshare_version>  (60) 
48012

>  <i_f3d_flags>  (60) 
0

>  <s_epik_input>  (60) 
W09IXS9OPUMoXFtDSDJdMSlDKFtDSDNdKShbQ0gzXSlbQ0BIXShPW0NIM10pW0NAQEhdKFtDQF0xMjMpW0NAQEhdNFtDQF01KFtPSF0pW0NAQEhdKE8zKVtDQEhdNltDQEhdKFtPSF0pW0NAQF03KFtDSDNdKVtDQEhdKFtDQEhdKFtPSF0pT1tDQEBIXTJbQ0gyXTUpW0NAQF00KFtDSDNdKVtDQEhdKFtDSDNdKVtDQEhdN09DKE82KShbQ0gzXSlbQ0gzXQ==

>  <s_epik_cmdline>  (60) 
J2VwaWtfcHl0aG9uJywgJy1waHQnLCAnMi4wJywgJy1waCcsICc3LjAnLCAnLXRuJywgJzgnLCAnLW1hJywgJzIwMCcsICctaW1hZScsICc8aW5maWxlLm1hZT4nLCAnLW9tYWUnLCAnPG91dGZpbGUubWFlPic=

>  <r_lp_tautomer_probability>  (60) 
1

>  <r_epik_Ionization_Penalty>  (60) 
5.39925e-06

>  <r_epik_Ionization_Penalty_Charging>  (60) 
0

>  <r_epik_Ionization_Penalty_Neutral>  (60) 
5.39925e-06

>  <r_epik_State_Penalty>  (60) 
-0

>  <r_epik_Charging_Adjusted_Penalty>  (60) 
0

>  <i_epik_Tot_Q>  (60) 
0

>  <i_epik_Tot_abs_Q>  (60) 
0

>  <s_epik_Chemistry_Notes>  (60) 
This compound has an imine and may undergo hydrolysis. This compound contains an acetal/aminal-like group ( X-CH(R)-Y where X, Y are N, S, or O) that may be acid/base labile, releasing an aldehyde.

>  <s_lp_Force_Field>  (60) 
OPLS3e

>  <r_lp_Energy>  (60) 
696.373

>  <b_lp_Chiralities_Consistent>  (60) 
1

>  <s_lp_Variant>  (60) 
30:0-1

>  <s_i_glide_gridfile>  (60) 
pfpi4k_grid

>  <i_i_glide_lignum>  (60) 
36

>  <i_i_glide_rotatable_bonds>  (60) 
5

>  <r_i_docking_score>  (60) 
-1.96949

>  <r_i_glide_ligand_efficiency>  (60) 
-0.0518286

>  <r_i_glide_ligand_efficiency_sa>  (60) 
-0.174246

>  <r_i_glide_ligand_efficiency_ln>  (60) 
-0.424679

>  <r_i_glide_gscore>  (60) 
-1.96949

>  <r_i_glide_lipo>  (60) 
-0.0931236

>  <r_i_glide_hbond>  (60) 
-0.00656675

>  <r_i_glide_metal>  (60) 
-0

>  <r_i_glide_rewards>  (60) 
-0.517232

>  <r_i_glide_evdw>  (60) 
-10.6933

>  <r_i_glide_ecoul>  (60) 
-5.4887

>  <r_i_glide_erotb>  (60) 
0.0714653

>  <r_i_glide_esite>  (60) 
-0.0660583

>  <r_i_glide_emodel>  (60) 
-21.7385

>  <r_i_glide_energy>  (60) 
-16.182

>  <r_i_glide_einternal>  (60) 
1.43114

>  <r_i_glide_intrahb_reward>  (60) 
-0.5

>  <i_i_glide_confnum>  (60) 
2

>  <i_i_glide_posenum>  (60) 
15

>  <r_i_glide_eff_state_penalty>  (60) 
0

>  <ligand_id>  (60) 
30

>  <original_smiles>  (60) 
COC1C2C3C4(O)CC5OC(O)C6C7(C)C(O)C(OC(C)(C)OC7C(C)C36C)C4OC52CC(=NO)C1(C)C

>  <smiles>  (60) 
[H]ON=C1C([H])([H])C23OC4([H])C5([H])OC(C([H])([H])[H])(C([H])([H])[H])OC6([H])C([H])(C([H])([H])[H])C7(C([H])([H])[H])C([H])(C2([H])C([H])(OC([H])([H])[H])C1(C([H])([H])[H])C([H])([H])[H])C4(O[H])C([H])([H])C3([H])OC([H])(O[H])C7([H])C6(C([H])([H])[H])C5([H])O[H]

$$$$
30:0:1
     RDKit          3D

 81 87  0  0  1  0  0  0  0  0999 V2000
    1.3633   -0.9679    7.7593 C   0  0  0  0  0  0  0  0  0  0  0  0
    2.1475    0.0906    7.2216 O   0  0  0  0  0  0  0  0  0  0  0  0
    2.6232    1.0780    8.1465 C   0  0  2  0  0  0  0  0  0  0  0  0
    2.5171    2.5317    7.5352 C   0  0  2  0  0  0  0  0  0  0  0  0
    1.2371    3.0441    6.8111 C   0  0  2  0  0  0  0  0  0  0  0  0
    1.6314    3.7204    5.1330 C   0  0  1  0  0  0  0  0  0  0  0  0
    0.9512    4.6788    4.3038 O   0  0  0  0  0  0  0  0  0  0  0  0
    2.9305    4.5727    5.0003 C   0  0  0  0  0  0  0  0  0  0  0  0
    3.4154    4.3657    6.3273 C   0  0  1  0  0  0  0  0  0  0  0  0
    2.4594    5.1552    7.1751 O   0  0  0  0  0  0  0  0  0  0  0  0
    1.0522    5.5495    6.8737 C   0  0  1  0  0  0  0  0  0  0  0  0
    0.9640    6.6615    6.0086 O   0  0  0  0  0  0  0  0  0  0  0  0
   -0.2599    4.3987    6.6107 C   0  0  1  0  0  0  0  0  0  0  0  0
   -0.9392    2.7059    6.0583 C   0  0  2  0  0  0  0  0  0  0  0  0
   -1.1749    1.3718    7.0680 C   0  0  0  0  0  0  0  0  0  0  0  0
   -0.5019    1.6953    4.8876 C   0  0  1  0  0  0  0  0  0  0  0  0
   -1.4911    0.7711    4.4443 O   0  0  0  0  0  0  0  0  0  0  0  0
    0.3228    2.1687    3.7858 C   0  0  1  0  0  0  0  0  0  0  0  0
   -0.5744    3.1522    3.1542 O   0  0  0  0  0  0  0  0  0  0  0  0
   -1.8767    3.6850    3.5500 C   0  0  0  0  0  0  0  0  0  0  0  0
   -1.9466    5.0005    2.7704 C   0  0  0  0  0  0  0  0  0  0  0  0
   -3.0162    2.8035    3.0085 C   0  0  0  0  0  0  0  0  0  0  0  0
   -2.1544    4.1291    4.8990 O   0  0  0  0  0  0  0  0  0  0  0  0
   -2.2476    3.2733    6.0796 C   0  0  2  0  0  0  0  0  0  0  0  0
   -1.8150    3.7328    7.5875 C   0  0  1  0  0  0  0  0  0  0  0  0
   -2.6738    3.1912    8.7751 C   0  0  0  0  0  0  0  0  0  0  0  0
   -0.1173    3.6712    7.7638 C   0  0  1  0  0  0  0  0  0  0  0  0
    0.2248    4.1914    9.1821 C   0  0  0  0  0  0  0  0  0  0  0  0
    1.8324    2.5899    4.2644 C   0  0  2  0  0  0  0  0  0  0  0  0
    2.8581    1.9734    5.1829 O   0  0  0  0  0  0  0  0  0  0  0  0
    3.4711    2.7448    6.3818 C   0  0  2  0  0  0  0  0  0  0  0  0
    4.9166    2.2571    6.6292 C   0  0  0  0  0  0  0  0  0  0  0  0
    4.9997    0.8764    7.2773 C   0  0  0  0  0  0  0  0  0  0  0  0
    5.7274   -0.0991    6.8728 N   0  0  0  0  0  0  0  0  0  0  0  0
    6.4627    0.2424    5.6990 O   0  0  0  0  0  0  0  0  0  0  0  0
    4.1097    0.7355    8.5312 C   0  0  0  0  0  0  0  0  0  0  0  0
    4.6240    1.6802    9.6492 C   0  0  0  0  0  0  0  0  0  0  0  0
    4.2292   -0.6830    9.1452 C   0  0  0  0  0  0  0  0  0  0  0  0
    0.8848   -1.4990    6.9386 H   0  0  0  0  0  0  0  0  0  0  0  0
    0.5817   -0.5948    8.4205 H   0  0  0  0  0  0  0  0  0  0  0  0
    1.9471   -1.7007    8.3070 H   0  0  0  0  0  0  0  0  0  0  0  0
    1.9954    1.0674    9.0413 H   0  0  0  0  0  0  0  0  0  0  0  0
    2.7624    3.1994    8.3575 H   0  0  0  0  0  0  0  0  0  0  0  0
    1.0780    1.9986    6.6784 H   0  0  0  0  0  0  0  0  0  0  0  0
    1.1933    4.5419    3.3918 H   0  0  0  0  0  0  0  0  0  0  0  0
    3.6664    4.2069    4.2822 H   0  0  0  0  0  0  0  0  0  0  0  0
    2.8620    5.6481    4.8160 H   0  0  0  0  0  0  0  0  0  0  0  0
    4.4064    4.8027    6.4528 H   0  0  0  0  0  0  0  0  0  0  0  0
    0.8132    6.0687    7.7967 H   0  0  0  0  0  0  0  0  0  0  0  0
    1.1095    6.3138    5.1326 H   0  0  0  0  0  0  0  0  0  0  0  0
   -0.9287    5.2481    6.3889 H   0  0  0  0  0  0  0  0  0  0  0  0
   -0.8257    0.3842    6.7657 H   0  0  0  0  0  0  0  0  0  0  0  0
   -2.2325    1.1553    7.2170 H   0  0  0  0  0  0  0  0  0  0  0  0
   -0.7200    1.4135    8.0578 H   0  0  0  0  0  0  0  0  0  0  0  0
    0.2363    0.9663    5.2231 H   0  0  0  0  0  0  0  0  0  0  0  0
   -2.0340    1.2018    3.7988 H   0  0  0  0  0  0  0  0  0  0  0  0
    0.4557    1.3541    3.0735 H   0  0  0  0  0  0  0  0  0  0  0  0
   -1.1700    5.6867    3.1108 H   0  0  0  0  0  0  0  0  0  0  0  0
   -2.9410    5.4242    2.8848 H   0  0  0  0  0  0  0  0  0  0  0  0
   -1.7912    4.8332    1.7147 H   0  0  0  0  0  0  0  0  0  0  0  0
   -3.4046    2.1512    3.7809 H   0  0  0  0  0  0  0  0  0  0  0  0
   -2.6767    2.2130    2.1584 H   0  0  0  0  0  0  0  0  0  0  0  0
   -3.8608    3.4061    2.6818 H   0  0  0  0  0  0  0  0  0  0  0  0
   -3.0945    2.5894    6.0211 H   0  0  0  0  0  0  0  0  0  0  0  0
   -2.2232    4.7430    7.7289 H   0  0  0  0  0  0  0  0  0  0  0  0
   -2.4037    2.2104    9.1608 H   0  0  0  0  0  0  0  0  0  0  0  0
   -3.7312    3.1671    8.5041 H   0  0  0  0  0  0  0  0  0  0  0  0
   -2.5913    3.8718    9.6243 H   0  0  0  0  0  0  0  0  0  0  0  0
   -0.4145    5.0291    9.4622 H   0  0  0  0  0  0  0  0  0  0  0  0
    1.2617    4.4966    9.3019 H   0  0  0  0  0  0  0  0  0  0  0  0
    0.0499    3.3944    9.9061 H   0  0  0  0  0  0  0  0  0  0  0  0
    2.3551    2.8532    3.3413 H   0  0  0  0  0  0  0  0  0  0  0  0
    5.4710    2.3269    5.6976 H   0  0  0  0  0  0  0  0  0  0  0  0
    5.4235    2.9471    7.3027 H   0  0  0  0  0  0  0  0  0  0  0  0
    6.1413    1.1046    5.4902 H   0  0  0  0  0  0  0  0  0  0  0  0
    4.0184    1.5812   10.5511 H   0  0  0  0  0  0  0  0  0  0  0  0
    4.6236    2.7331    9.3720 H   0  0  0  0  0  0  0  0  0  0  0  0
    5.6533    1.4287    9.9190 H   0  0  0  0  0  0  0  0  0  0  0  0
    3.4997   -0.8257    9.9435 H   0  0  0  0  0  0  0  0  0  0  0  0
    5.2204   -0.8539    9.5715 H   0  0  0  0  0  0  0  0  0  0  0  0
    4.0841   -1.4604    8.3951 H   0  0  0  0  0  0  0  0  0  0  0  0
  1  2  1  0
  1 39  1  0
  1 40  1  0
  1 41  1  0
  2  3  1  0
  3 36  1  0
  3  4  1  0
  3 42  1  1
  4 31  1  0
  4  5  1  0
  4 43  1  1
  5 27  1  0
  5  6  1  0
  5 44  1  6
  6 29  1  0
  6  7  1  6
  6  8  1  0
  7 45  1  0
  8  9  1  0
  8 46  1  0
  8 47  1  0
  9 31  1  0
  9 10  1  0
  9 48  1  6
 10 11  1  0
 11 12  1  0
 11 13  1  0
 11 49  1  1
 12 50  1  0
 13 27  1  0
 13 14  1  0
 13 51  1  1
 14 24  1  0
 14 15  1  1
 14 16  1  0
 15 52  1  0
 15 53  1  0
 15 54  1  0
 16 17  1  0
 16 18  1  0
 16 55  1  1
 17 56  1  0
 18 19  1  0
 18 29  1  0
 18 57  1  6
 19 20  1  0
 20 21  1  0
 20 22  1  0
 20 23  1  0
 21 58  1  0
 21 59  1  0
 21 60  1  0
 22 61  1  0
 22 62  1  0
 22 63  1  0
 23 24  1  0
 24 25  1  0
 24 64  1  1
 25 26  1  0
 25 27  1  0
 25 65  1  6
 26 66  1  0
 26 67  1  0
 26 68  1  0
 27 28  1  1
 28 69  1  0
 28 70  1  0
 28 71  1  0
 29 30  1  0
 29 72  1  6
 30 31  1  0
 31 32  1  1
 32 33  1  0
 32 73  1  0
 32 74  1  0
 33 34  2  3
 33 36  1  0
 34 35  1  0
 35 75  1  0
 36 37  1  0
 36 38  1  0
 37 76  1  0
 37 77  1  0
 37 78  1  0
 38 79  1  0
 38 80  1  0
 38 81  1  0
M  END
>  <i_m_ct_stereo_status>  (61) 
1

>  <s_m_source_file>  (61) 
/var/tmp/pbs.5076255.sched01/tmppz0entnt/04_lepiep.sdf

>  <i_m_source_file_index>  (61) 
36

>  <i_lp_mmshare_version>  (61) 
48012

>  <i_f3d_flags>  (61) 
0

>  <s_epik_input>  (61) 
W09IXS9OPUMoXFtDSDJdMSlDKFtDSDNdKShbQ0gzXSlbQ0BIXShPW0NIM10pW0NAQEhdKFtDQF0xMjMpW0NAQEhdNFtDQF01KFtPSF0pW0NAQEhdKE8zKVtDQEhdNltDQEhdKFtPSF0pW0NAQF03KFtDSDNdKVtDQEhdKFtDQEhdKFtPSF0pT1tDQEBIXTJbQ0gyXTUpW0NAQF00KFtDSDNdKVtDQEhdKFtDSDNdKVtDQEhdN09DKE82KShbQ0gzXSlbQ0gzXQ==

>  <s_epik_cmdline>  (61) 
J2VwaWtfcHl0aG9uJywgJy1waHQnLCAnMi4wJywgJy1waCcsICc3LjAnLCAnLXRuJywgJzgnLCAnLW1hJywgJzIwMCcsICctaW1hZScsICc8aW5maWxlLm1hZT4nLCAnLW9tYWUnLCAnPG91dGZpbGUubWFlPic=

>  <r_lp_tautomer_probability>  (61) 
1

>  <r_epik_Ionization_Penalty>  (61) 
5.39925e-06

>  <r_epik_Ionization_Penalty_Charging>  (61) 
0

>  <r_epik_Ionization_Penalty_Neutral>  (61) 
5.39925e-06

>  <r_epik_State_Penalty>  (61) 
-0

>  <r_epik_Charging_Adjusted_Penalty>  (61) 
0

>  <i_epik_Tot_Q>  (61) 
0

>  <i_epik_Tot_abs_Q>  (61) 
0

>  <s_epik_Chemistry_Notes>  (61) 
This compound has an imine and may undergo hydrolysis. This compound contains an acetal/aminal-like group ( X-CH(R)-Y where X, Y are N, S, or O) that may be acid/base labile, releasing an aldehyde.

>  <s_lp_Force_Field>  (61) 
OPLS3e

>  <r_lp_Energy>  (61) 
696.373

>  <b_lp_Chiralities_Consistent>  (61) 
1

>  <s_lp_Variant>  (61) 
30:0-1

>  <s_i_glide_gridfile>  (61) 
pfpi4k_grid

>  <i_i_glide_lignum>  (61) 
36

>  <i_i_glide_rotatable_bonds>  (61) 
5

>  <r_i_docking_score>  (61) 
-1.75553

>  <r_i_glide_ligand_efficiency>  (61) 
-0.0461982

>  <r_i_glide_ligand_efficiency_sa>  (61) 
-0.155317

>  <r_i_glide_ligand_efficiency_ln>  (61) 
-0.378545

>  <r_i_glide_gscore>  (61) 
-1.75553

>  <r_i_glide_lipo>  (61) 
-0.102818

>  <r_i_glide_hbond>  (61) 
-0.00218747

>  <r_i_glide_metal>  (61) 
-0

>  <r_i_glide_rewards>  (61) 
-0.500172

>  <r_i_glide_evdw>  (61) 
-17.7511

>  <r_i_glide_ecoul>  (61) 
-1.75564

>  <r_i_glide_erotb>  (61) 
0.0714653

>  <r_i_glide_esite>  (61) 
-0.0709219

>  <r_i_glide_emodel>  (61) 
-25.8241

>  <r_i_glide_energy>  (61) 
-19.5067

>  <r_i_glide_einternal>  (61) 
0.407735

>  <r_i_glide_intrahb_reward>  (61) 
-0.5

>  <i_i_glide_confnum>  (61) 
2

>  <i_i_glide_posenum>  (61) 
23

>  <r_i_glide_eff_state_penalty>  (61) 
0

>  <ligand_id>  (61) 
30

>  <original_smiles>  (61) 
COC1C2C3C4(O)CC5OC(O)C6C7(C)C(O)C(OC(C)(C)OC7C(C)C36C)C4OC52CC(=NO)C1(C)C

>  <smiles>  (61) 
[H]ON=C1C([H])([H])C23OC4([H])C5([H])OC(C([H])([H])[H])(C([H])([H])[H])OC6([H])C([H])(C([H])([H])[H])C7(C([H])([H])[H])C([H])(C2([H])C([H])(OC([H])([H])[H])C1(C([H])([H])[H])C([H])([H])[H])C4(O[H])C([H])([H])C3([H])OC([H])(O[H])C7([H])C6(C([H])([H])[H])C5([H])O[H]

$$$$
30:0:2
     RDKit          3D

 81 87  0  0  1  0  0  0  0  0999 V2000
    0.9513   -1.0174    9.9497 C   0  0  0  0  0  0  0  0  0  0  0  0
    1.8976   -0.7702    8.9151 O   0  0  0  0  0  0  0  0  0  0  0  0
    3.0092    0.0700    9.2544 C   0  0  2  0  0  0  0  0  0  0  0  0
    3.3286    1.0896    8.0938 C   0  0  2  0  0  0  0  0  0  0  0  0
    2.2195    1.9230    7.3787 C   0  0  2  0  0  0  0  0  0  0  0  0
    2.3108    1.7268    5.5430 C   0  0  1  0  0  0  0  0  0  0  0  0
    1.8638    2.5705    4.4693 O   0  0  0  0  0  0  0  0  0  0  0  0
    3.7289    1.7030    4.8959 C   0  0  0  0  0  0  0  0  0  0  0  0
    4.4790    1.7112    6.1121 C   0  0  1  0  0  0  0  0  0  0  0  0
    4.2583    3.0995    6.6457 O   0  0  0  0  0  0  0  0  0  0  0  0
    3.1295    4.0369    6.3726 C   0  0  1  0  0  0  0  0  0  0  0  0
    3.2480    4.6894    5.1256 O   0  0  0  0  0  0  0  0  0  0  0  0
    1.4433    3.7057    6.7920 C   0  0  1  0  0  0  0  0  0  0  0  0
   -0.0168    2.5205    7.1170 C   0  0  2  0  0  0  0  0  0  0  0  0
   -0.4530    1.8978    8.6265 C   0  0  0  0  0  0  0  0  0  0  0  0
   -0.4361    1.1153    6.4537 C   0  0  1  0  0  0  0  0  0  0  0  0
   -1.8064    0.7336    6.5631 O   0  0  0  0  0  0  0  0  0  0  0  0
    0.1152    0.7291    5.1626 C   0  0  1  0  0  0  0  0  0  0  0  0
   -0.4486    1.7627    4.2728 O   0  0  0  0  0  0  0  0  0  0  0  0
   -1.2028    2.9889    4.5641 C   0  0  0  0  0  0  0  0  0  0  0  0
   -0.9694    3.8174    3.2966 C   0  0  0  0  0  0  0  0  0  0  0  0
   -2.7127    2.6912    4.6177 C   0  0  0  0  0  0  0  0  0  0  0  0
   -0.8311    3.9139    5.6184 O   0  0  0  0  0  0  0  0  0  0  0  0
   -0.8906    3.6486    7.0544 C   0  0  2  0  0  0  0  0  0  0  0  0
    0.1526    4.2815    8.1422 C   0  0  1  0  0  0  0  0  0  0  0  0
   -0.4179    4.6637    9.5445 C   0  0  0  0  0  0  0  0  0  0  0  0
    1.6297    3.4206    8.1210 C   0  0  1  0  0  0  0  0  0  0  0  0
    2.5926    4.1110    9.1207 C   0  0  0  0  0  0  0  0  0  0  0  0
    1.7277    0.4478    5.2297 C   0  0  2  0  0  0  0  0  0  0  0  0
    2.6376   -0.2765    6.1922 O   0  0  0  0  0  0  0  0  0  0  0  0
    3.8673    0.4035    6.8559 C   0  0  2  0  0  0  0  0  0  0  0  0
    4.9744   -0.6454    7.1186 C   0  0  0  0  0  0  0  0  0  0  0  0
    4.6689   -1.5823    8.2903 C   0  0  0  0  0  0  0  0  0  0  0  0
    4.7391   -2.8569    8.2662 N   0  0  0  0  0  0  0  0  0  0  0  0
    5.1307   -3.3258    6.9829 O   0  0  0  0  0  0  0  0  0  0  0  0
    4.2537   -0.8368    9.5762 C   0  0  0  0  0  0  0  0  0  0  0  0
    5.4437    0.0092   10.0981 C   0  0  0  0  0  0  0  0  0  0  0  0
    3.9441   -1.8354   10.7240 C   0  0  0  0  0  0  0  0  0  0  0  0
    0.0652   -1.4720    9.5104 H   0  0  0  0  0  0  0  0  0  0  0  0
    0.6455   -0.1002   10.4525 H   0  0  0  0  0  0  0  0  0  0  0  0
    1.3133   -1.7076   10.7075 H   0  0  0  0  0  0  0  0  0  0  0  0
    2.7591    0.6616   10.1372 H   0  0  0  0  0  0  0  0  0  0  0  0
    4.0763    1.7574    8.5131 H   0  0  0  0  0  0  0  0  0  0  0  0
    1.6059    1.1286    7.7342 H   0  0  0  0  0  0  0  0  0  0  0  0
    1.9541    2.1081    3.6454 H   0  0  0  0  0  0  0  0  0  0  0  0
    3.9724    0.8054    4.3251 H   0  0  0  0  0  0  0  0  0  0  0  0
    4.0609    2.5338    4.2698 H   0  0  0  0  0  0  0  0  0  0  0  0
    5.5460    1.5974    5.9135 H   0  0  0  0  0  0  0  0  0  0  0  0
    3.4335    4.8718    6.9962 H   0  0  0  0  0  0  0  0  0  0  0  0
    2.8726    4.0942    4.4865 H   0  0  0  0  0  0  0  0  0  0  0  0
    1.1555    4.6538    6.3056 H   0  0  0  0  0  0  0  0  0  0  0  0
   -0.6661    0.8375    8.7424 H   0  0  0  0  0  0  0  0  0  0  0  0
   -1.3954    2.3047    8.9981 H   0  0  0  0  0  0  0  0  0  0  0  0
    0.2691    2.0156    9.4346 H   0  0  0  0  0  0  0  0  0  0  0  0
   -0.0061    0.2652    6.9846 H   0  0  0  0  0  0  0  0  0  0  0  0
   -2.2912    1.2664    5.9505 H   0  0  0  0  0  0  0  0  0  0  0  0
   -0.3340   -0.2164    4.8609 H   0  0  0  0  0  0  0  0  0  0  0  0
    0.0861    4.0703    3.2169 H   0  0  0  0  0  0  0  0  0  0  0  0
   -1.5433    4.7431    3.3253 H   0  0  0  0  0  0  0  0  0  0  0  0
   -1.2667    3.2367    2.4231 H   0  0  0  0  0  0  0  0  0  0  0  0
   -3.0813    2.6192    5.6364 H   0  0  0  0  0  0  0  0  0  0  0  0
   -2.9257    1.7738    4.0703 H   0  0  0  0  0  0  0  0  0  0  0  0
   -3.2801    3.4862    4.1382 H   0  0  0  0  0  0  0  0  0  0  0  0
   -1.9135    3.5170    7.4055 H   0  0  0  0  0  0  0  0  0  0  0  0
    0.2690    5.3391    7.8735 H   0  0  0  0  0  0  0  0  0  0  0  0
   -0.4779    3.8622   10.2768 H   0  0  0  0  0  0  0  0  0  0  0  0
   -1.4142    5.0958    9.4466 H   0  0  0  0  0  0  0  0  0  0  0  0
    0.2084    5.4311   10.0031 H   0  0  0  0  0  0  0  0  0  0  0  0
    2.4916    5.1960    9.0867 H   0  0  0  0  0  0  0  0  0  0  0  0
    3.6413    3.8630    8.9698 H   0  0  0  0  0  0  0  0  0  0  0  0
    2.3440    3.7922   10.1343 H   0  0  0  0  0  0  0  0  0  0  0  0
    1.9881    0.0918    4.2315 H   0  0  0  0  0  0  0  0  0  0  0  0
    5.1825   -1.1835    6.1998 H   0  0  0  0  0  0  0  0  0  0  0  0
    5.9095   -0.1442    7.3561 H   0  0  0  0  0  0  0  0  0  0  0  0
    5.0918   -4.2609    7.1080 H   0  0  0  0  0  0  0  0  0  0  0  0
    5.1764    0.5301   11.0167 H   0  0  0  0  0  0  0  0  0  0  0  0
    5.7923    0.7602    9.3912 H   0  0  0  0  0  0  0  0  0  0  0  0
    6.3029   -0.6269   10.3217 H   0  0  0  0  0  0  0  0  0  0  0  0
    3.5265   -1.3217   11.5900 H   0  0  0  0  0  0  0  0  0  0  0  0
    4.8466   -2.3550   11.0526 H   0  0  0  0  0  0  0  0  0  0  0  0
    3.2445   -2.6109   10.4128 H   0  0  0  0  0  0  0  0  0  0  0  0
  1  2  1  0
  1 39  1  0
  1 40  1  0
  1 41  1  0
  2  3  1  0
  3 36  1  0
  3  4  1  0
  3 42  1  1
  4 31  1  0
  4  5  1  0
  4 43  1  1
  5 27  1  0
  5  6  1  0
  5 44  1  1
  6 29  1  0
  6  7  1  6
  6  8  1  0
  7 45  1  0
  8  9  1  0
  8 46  1  0
  8 47  1  0
  9 31  1  0
  9 10  1  0
  9 48  1  6
 10 11  1  0
 11 12  1  0
 11 13  1  0
 11 49  1  1
 12 50  1  0
 13 27  1  0
 13 14  1  0
 13 51  1  1
 14 24  1  0
 14 15  1  1
 14 16  1  0
 15 52  1  0
 15 53  1  0
 15 54  1  0
 16 17  1  0
 16 18  1  0
 16 55  1  1
 17 56  1  0
 18 19  1  0
 18 29  1  0
 18 57  1  6
 19 20  1  0
 20 21  1  0
 20 22  1  0
 20 23  1  0
 21 58  1  0
 21 59  1  0
 21 60  1  0
 22 61  1  0
 22 62  1  0
 22 63  1  0
 23 24  1  0
 24 25  1  0
 24 64  1  1
 25 26  1  0
 25 27  1  0
 25 65  1  6
 26 66  1  0
 26 67  1  0
 26 68  1  0
 27 28  1  1
 28 69  1  0
 28 70  1  0
 28 71  1  0
 29 30  1  0
 29 72  1  6
 30 31  1  0
 31 32  1  1
 32 33  1  0
 32 73  1  0
 32 74  1  0
 33 34  2  3
 33 36  1  0
 34 35  1  0
 35 75  1  0
 36 37  1  0
 36 38  1  0
 37 76  1  0
 37 77  1  0
 37 78  1  0
 38 79  1  0
 38 80  1  0
 38 81  1  0
M  END
>  <i_m_ct_stereo_status>  (62) 
1

>  <s_m_source_file>  (62) 
/var/tmp/pbs.5076255.sched01/tmppz0entnt/04_lepiep.sdf

>  <i_m_source_file_index>  (62) 
36

>  <i_lp_mmshare_version>  (62) 
48012

>  <i_f3d_flags>  (62) 
0

>  <s_epik_input>  (62) 
W09IXS9OPUMoXFtDSDJdMSlDKFtDSDNdKShbQ0gzXSlbQ0BIXShPW0NIM10pW0NAQEhdKFtDQF0xMjMpW0NAQEhdNFtDQF01KFtPSF0pW0NAQEhdKE8zKVtDQEhdNltDQEhdKFtPSF0pW0NAQF03KFtDSDNdKVtDQEhdKFtDQEhdKFtPSF0pT1tDQEBIXTJbQ0gyXTUpW0NAQF00KFtDSDNdKVtDQEhdKFtDSDNdKVtDQEhdN09DKE82KShbQ0gzXSlbQ0gzXQ==

>  <s_epik_cmdline>  (62) 
J2VwaWtfcHl0aG9uJywgJy1waHQnLCAnMi4wJywgJy1waCcsICc3LjAnLCAnLXRuJywgJzgnLCAnLW1hJywgJzIwMCcsICctaW1hZScsICc8aW5maWxlLm1hZT4nLCAnLW9tYWUnLCAnPG91dGZpbGUubWFlPic=

>  <r_lp_tautomer_probability>  (62) 
1

>  <r_epik_Ionization_Penalty>  (62) 
5.39925e-06

>  <r_epik_Ionization_Penalty_Charging>  (62) 
0

>  <r_epik_Ionization_Penalty_Neutral>  (62) 
5.39925e-06

>  <r_epik_State_Penalty>  (62) 
-0

>  <r_epik_Charging_Adjusted_Penalty>  (62) 
0

>  <i_epik_Tot_Q>  (62) 
0

>  <i_epik_Tot_abs_Q>  (62) 
0

>  <s_epik_Chemistry_Notes>  (62) 
This compound has an imine and may undergo hydrolysis. This compound contains an acetal/aminal-like group ( X-CH(R)-Y where X, Y are N, S, or O) that may be acid/base labile, releasing an aldehyde.

>  <s_lp_Force_Field>  (62) 
OPLS3e

>  <r_lp_Energy>  (62) 
696.373

>  <b_lp_Chiralities_Consistent>  (62) 
1

>  <s_lp_Variant>  (62) 
30:0-1

>  <s_i_glide_gridfile>  (62) 
pfpi4k_grid

>  <i_i_glide_lignum>  (62) 
36

>  <i_i_glide_rotatable_bonds>  (62) 
5

>  <r_i_docking_score>  (62) 
-1.69857

>  <r_i_glide_ligand_efficiency>  (62) 
-0.0446993

>  <r_i_glide_ligand_efficiency_sa>  (62) 
-0.150278

>  <r_i_glide_ligand_efficiency_ln>  (62) 
-0.366263

>  <r_i_glide_gscore>  (62) 
-1.69857

>  <r_i_glide_lipo>  (62) 
-0.00191918

>  <r_i_glide_hbond>  (62) 
0

>  <r_i_glide_metal>  (62) 
-0

>  <r_i_glide_rewards>  (62) 
-0.5

>  <r_i_glide_evdw>  (62) 
-14.2215

>  <r_i_glide_ecoul>  (62) 
-3.55236

>  <r_i_glide_erotb>  (62) 
0.0714653

>  <r_i_glide_esite>  (62) 
-0.0241935

>  <r_i_glide_emodel>  (62) 
-24.4633

>  <r_i_glide_energy>  (62) 
-17.7738

>  <r_i_glide_einternal>  (62) 
0.0746558

>  <r_i_glide_intrahb_reward>  (62) 
-0.5

>  <i_i_glide_confnum>  (62) 
1

>  <i_i_glide_posenum>  (62) 
18

>  <r_i_glide_eff_state_penalty>  (62) 
0

>  <ligand_id>  (62) 
30

>  <original_smiles>  (62) 
COC1C2C3C4(O)CC5OC(O)C6C7(C)C(O)C(OC(C)(C)OC7C(C)C36C)C4OC52CC(=NO)C1(C)C

>  <smiles>  (62) 
[H]ON=C1C([H])([H])C23OC4([H])C5([H])OC(C([H])([H])[H])(C([H])([H])[H])OC6([H])C([H])(C([H])([H])[H])C7(C([H])([H])[H])C([H])(C2([H])C([H])(OC([H])([H])[H])C1(C([H])([H])[H])C([H])([H])[H])C4(O[H])C([H])([H])C3([H])OC([H])(O[H])C7([H])C6(C([H])([H])[H])C5([H])O[H]

$$$$
30:1:0
     RDKit          3D

 81 87  0  0  1  0  0  0  0  0999 V2000
    0.7682   -6.7233    0.9072 C   0  0  0  0  0  0  0  0  0  0  0  0
    1.1495   -7.8700    1.6570 O   0  0  0  0  0  0  0  0  0  0  0  0
    1.3609   -7.6147    3.0654 C   0  0  2  0  0  0  0  0  0  0  0  0
    2.8601   -7.4141    3.4623 C   0  0  2  0  0  0  0  0  0  0  0  0
    3.7873   -6.2196    3.0086 C   0  0  2  0  0  0  0  0  0  0  0  0
    5.3618   -6.8533    2.2950 C   0  0  1  0  0  0  0  0  0  0  0  0
    6.6640   -6.2278    2.1795 O   0  0  0  0  0  0  0  0  0  0  0  0
    6.0087   -8.1095    2.9525 C   0  0  0  0  0  0  0  0  0  0  0  0
    4.9580   -8.3831    3.9009 C   0  0  1  0  0  0  0  0  0  0  0  0
    5.0808   -7.2314    4.8831 O   0  0  0  0  0  0  0  0  0  0  0  0
    5.6234   -5.8686    4.6547 C   0  0  1  0  0  0  0  0  0  0  0  0
    7.0571   -5.8508    4.7322 O   0  0  0  0  0  0  0  0  0  0  0  0
    4.9926   -4.6695    3.4906 C   0  0  1  0  0  0  0  0  0  0  0  0
    4.0787   -4.2212    1.8578 C   0  0  2  0  0  0  0  0  0  0  0  0
    2.4580   -3.8591    1.6782 C   0  0  0  0  0  0  0  0  0  0  0  0
    4.0821   -4.9124    0.3996 C   0  0  1  0  0  0  0  0  0  0  0  0
    3.7471   -4.0998   -0.7165 O   0  0  0  0  0  0  0  0  0  0  0  0
    5.1287   -5.8620    0.0584 C   0  0  1  0  0  0  0  0  0  0  0  0
    6.3317   -5.0127    0.1211 O   0  0  0  0  0  0  0  0  0  0  0  0
    6.5122   -3.6122    0.4920 C   0  0  0  0  0  0  0  0  0  0  0  0
    8.0289   -3.5706    0.7556 C   0  0  0  0  0  0  0  0  0  0  0  0
    6.2284   -2.6466   -0.6844 C   0  0  0  0  0  0  0  0  0  0  0  0
    5.9775   -3.0864    1.7262 O   0  0  0  0  0  0  0  0  0  0  0  0
    4.5657   -2.8727    2.0402 C   0  0  2  0  0  0  0  0  0  0  0  0
    3.9106   -3.0425    3.5248 C   0  0  1  0  0  0  0  0  0  0  0  0
    2.7529   -2.0676    3.9140 C   0  0  0  0  0  0  0  0  0  0  0  0
    3.6747   -4.6932    3.8990 C   0  0  1  0  0  0  0  0  0  0  0  0
    3.1382   -4.7775    5.3514 C   0  0  0  0  0  0  0  0  0  0  0  0
    5.0541   -7.2476    0.9381 C   0  0  2  0  0  0  0  0  0  0  0  0
    3.9317   -8.1508    1.3981 O   0  0  0  0  0  0  0  0  0  0  0  0
    3.6964   -8.5190    2.8876 C   0  0  2  0  0  0  0  0  0  0  0  0
    2.9727   -9.9028    2.8983 C   0  0  0  0  0  0  0  0  0  0  0  0
    1.8107  -10.0179    3.8879 C   0  0  0  0  0  0  0  0  0  0  0  0
    1.7759  -11.0767    4.5934 N   0  0  0  0  0  0  0  0  0  0  0  0
    0.6598  -11.1095    5.4432 O   0  0  0  0  0  0  0  0  0  0  0  0
    0.7815   -8.8397    3.8509 C   0  0  0  0  0  0  0  0  0  0  0  0
    0.4242   -8.3551    5.2820 C   0  0  0  0  0  0  0  0  0  0  0  0
   -0.5255   -9.3152    3.1572 C   0  0  0  0  0  0  0  0  0  0  0  0
    0.9480   -6.7849   -0.1578 H   0  0  0  0  0  0  0  0  0  0  0  0
    1.3538   -5.9651    1.2232 H   0  0  0  0  0  0  0  0  0  0  0  0
   -0.2411   -6.3682    1.1178 H   0  0  0  0  0  0  0  0  0  0  0  0
    0.8160   -6.7069    3.3432 H   0  0  0  0  0  0  0  0  0  0  0  0
    2.8520   -7.4504    4.5460 H   0  0  0  0  0  0  0  0  0  0  0  0
    3.0996   -6.1840    2.2010 H   0  0  0  0  0  0  0  0  0  0  0  0
    6.5483   -5.4876    1.6081 H   0  0  0  0  0  0  0  0  0  0  0  0
    6.1590   -8.9671    2.3035 H   0  0  0  0  0  0  0  0  0  0  0  0
    6.9487   -7.9886    3.4883 H   0  0  0  0  0  0  0  0  0  0  0  0
    5.1390   -9.3126    4.4415 H   0  0  0  0  0  0  0  0  0  0  0  0
    5.4324   -5.4383    5.6386 H   0  0  0  0  0  0  0  0  0  0  0  0
    7.3630   -6.1831    3.9024 H   0  0  0  0  0  0  0  0  0  0  0  0
    5.8235   -3.9838    3.7604 H   0  0  0  0  0  0  0  0  0  0  0  0
    1.9471   -4.1758    0.7683 H   0  0  0  0  0  0  0  0  0  0  0  0
    2.2453   -2.7919    1.5985 H   0  0  0  0  0  0  0  0  0  0  0  0
    1.8026   -4.2354    2.4644 H   0  0  0  0  0  0  0  0  0  0  0  0
    3.2528   -5.6102    0.3170 H   0  0  0  0  0  0  0  0  0  0  0  0
    3.5043   -4.6507   -1.4472 H   0  0  0  0  0  0  0  0  0  0  0  0
    5.0002   -6.1655   -0.9771 H   0  0  0  0  0  0  0  0  0  0  0  0
    8.2711   -4.2083    1.6050 H   0  0  0  0  0  0  0  0  0  0  0  0
    8.3406   -2.5562    0.9709 H   0  0  0  0  0  0  0  0  0  0  0  0
    8.5815   -3.9124   -0.1103 H   0  0  0  0  0  0  0  0  0  0  0  0
    5.2391   -2.1868   -0.6060 H   0  0  0  0  0  0  0  0  0  0  0  0
    6.2988   -3.1720   -1.6326 H   0  0  0  0  0  0  0  0  0  0  0  0
    6.9429   -1.8247   -0.6901 H   0  0  0  0  0  0  0  0  0  0  0  0
    4.1153   -2.1238    1.4088 H   0  0  0  0  0  0  0  0  0  0  0  0
    4.6146   -2.5384    4.2102 H   0  0  0  0  0  0  0  0  0  0  0  0
    1.7582   -2.3533    3.5921 H   0  0  0  0  0  0  0  0  0  0  0  0
    2.9416   -1.0681    3.5231 H   0  0  0  0  0  0  0  0  0  0  0  0
    2.6794   -1.9703    4.9965 H   0  0  0  0  0  0  0  0  0  0  0  0
    3.5987   -4.0387    5.9995 H   0  0  0  0  0  0  0  0  0  0  0  0
    3.2498   -5.7506    5.8172 H   0  0  0  0  0  0  0  0  0  0  0  0
    2.0706   -4.5741    5.3370 H   0  0  0  0  0  0  0  0  0  0  0  0
    5.8032   -7.9120    0.5248 H   0  0  0  0  0  0  0  0  0  0  0  0
    2.5465  -10.0872    1.9132 H   0  0  0  0  0  0  0  0  0  0  0  0
    3.6771  -10.7161    3.0547 H   0  0  0  0  0  0  0  0  0  0  0  0
    0.9442  -11.6499    6.1860 H   0  0  0  0  0  0  0  0  0  0  0  0
    0.0082   -7.3555    5.2849 H   0  0  0  0  0  0  0  0  0  0  0  0
    1.2956   -8.3444    5.9233 H   0  0  0  0  0  0  0  0  0  0  0  0
   -0.3184   -8.9920    5.7625 H   0  0  0  0  0  0  0  0  0  0  0  0
   -1.2865   -8.5371    3.1091 H   0  0  0  0  0  0  0  0  0  0  0  0
   -0.9633  -10.1560    3.6717 H   0  0  0  0  0  0  0  0  0  0  0  0
   -0.3531   -9.6637    2.1347 H   0  0  0  0  0  0  0  0  0  0  0  0
  1  2  1  0
  1 39  1  0
  1 40  1  0
  1 41  1  0
  2  3  1  0
  3 36  1  0
  3  4  1  0
  3 42  1  1
  4 31  1  0
  4  5  1  0
  4 43  1  1
  5 27  1  0
  5  6  1  0
  5 44  1  6
  6 29  1  0
  6  7  1  6
  6  8  1  0
  7 45  1  0
  8  9  1  0
  8 46  1  0
  8 47  1  0
  9 31  1  0
  9 10  1  0
  9 48  1  1
 10 11  1  0
 11 12  1  0
 11 13  1  0
 11 49  1  1
 12 50  1  0
 13 27  1  0
 13 14  1  0
 13 51  1  1
 14 24  1  0
 14 15  1  1
 14 16  1  0
 15 52  1  0
 15 53  1  0
 15 54  1  0
 16 17  1  0
 16 18  1  0
 16 55  1  1
 17 56  1  0
 18 19  1  0
 18 29  1  0
 18 57  1  6
 19 20  1  0
 20 21  1  0
 20 22  1  0
 20 23  1  0
 21 58  1  0
 21 59  1  0
 21 60  1  0
 22 61  1  0
 22 62  1  0
 22 63  1  0
 23 24  1  0
 24 25  1  0
 24 64  1  6
 25 26  1  0
 25 27  1  0
 25 65  1  1
 26 66  1  0
 26 67  1  0
 26 68  1  0
 27 28  1  1
 28 69  1  0
 28 70  1  0
 28 71  1  0
 29 30  1  0
 29 72  1  6
 30 31  1  0
 31 32  1  6
 32 33  1  0
 32 73  1  0
 32 74  1  0
 33 34  2  3
 33 36  1  0
 34 35  1  0
 35 75  1  0
 36 37  1  0
 36 38  1  0
 37 76  1  0
 37 77  1  0
 37 78  1  0
 38 79  1  0
 38 80  1  0
 38 81  1  0
M  END
>  <i_m_ct_stereo_status>  (63) 
1

>  <s_m_source_file>  (63) 
/var/tmp/pbs.5076255.sched01/tmppz0entnt/04_lepiep.sdf

>  <i_m_source_file_index>  (63) 
37

>  <i_lp_mmshare_version>  (63) 
48012

>  <i_f3d_flags>  (63) 
0

>  <s_epik_input>  (63) 
W09IXS9OPUMoXFtDSDJdMSlDKFtDSDNdKShbQ0gzXSlbQ0BIXShPW0NIM10pW0NAQEhdKFtDQF0xMjMpW0NAQEhdNFtDQF01KFtPSF0pW0NAQEhdKE8zKVtDQEhdNltDQEhdKFtPSF0pW0NAQF03KFtDSDNdKVtDQEhdKFtDQEhdKFtPSF0pT1tDQEBIXTJbQ0gyXTUpW0NAQF00KFtDSDNdKVtDQEhdKFtDSDNdKVtDQEhdN09DKE82KShbQ0gzXSlbQ0gzXQ==

>  <s_epik_cmdline>  (63) 
J2VwaWtfcHl0aG9uJywgJy1waHQnLCAnMi4wJywgJy1waCcsICc3LjAnLCAnLXRuJywgJzgnLCAnLW1hJywgJzIwMCcsICctaW1hZScsICc8aW5maWxlLm1hZT4nLCAnLW9tYWUnLCAnPG91dGZpbGUubWFlPic=

>  <r_lp_tautomer_probability>  (63) 
1

>  <r_epik_Ionization_Penalty>  (63) 
5.39925e-06

>  <r_epik_Ionization_Penalty_Charging>  (63) 
0

>  <r_epik_Ionization_Penalty_Neutral>  (63) 
5.39925e-06

>  <r_epik_State_Penalty>  (63) 
-0

>  <r_epik_Charging_Adjusted_Penalty>  (63) 
0

>  <i_epik_Tot_Q>  (63) 
0

>  <i_epik_Tot_abs_Q>  (63) 
0

>  <s_epik_Chemistry_Notes>  (63) 
This compound has an imine and may undergo hydrolysis. This compound contains an acetal/aminal-like group ( X-CH(R)-Y where X, Y are N, S, or O) that may be acid/base labile, releasing an aldehyde.

>  <s_lp_Force_Field>  (63) 
OPLS3e

>  <r_lp_Energy>  (63) 
706.17

>  <b_lp_Chiralities_Consistent>  (63) 
1

>  <s_lp_Variant>  (63) 
30:0-2

>  <s_i_glide_gridfile>  (63) 
pfpi4k_grid

>  <i_i_glide_lignum>  (63) 
37

>  <i_i_glide_rotatable_bonds>  (63) 
5

>  <r_i_docking_score>  (63) 
-3.13431

>  <r_i_glide_ligand_efficiency>  (63) 
-0.0824819

>  <r_i_glide_ligand_efficiency_sa>  (63) 
-0.277302

>  <r_i_glide_ligand_efficiency_ln>  (63) 
-0.67585

>  <r_i_glide_gscore>  (63) 
-3.13431

>  <r_i_glide_lipo>  (63) 
-0.3904

>  <r_i_glide_hbond>  (63) 
-0.152

>  <r_i_glide_metal>  (63) 
-0

>  <r_i_glide_rewards>  (63) 
-0.635479

>  <r_i_glide_evdw>  (63) 
-24.3029

>  <r_i_glide_ecoul>  (63) 
-4.51465

>  <r_i_glide_erotb>  (63) 
0.0714653

>  <r_i_glide_esite>  (63) 
-0.135559

>  <r_i_glide_emodel>  (63) 
-35.5732

>  <r_i_glide_energy>  (63) 
-28.8175

>  <r_i_glide_einternal>  (63) 
1.28564

>  <r_i_glide_intrahb_reward>  (63) 
-0.5

>  <i_i_glide_confnum>  (63) 
2

>  <i_i_glide_posenum>  (63) 
23

>  <r_i_glide_eff_state_penalty>  (63) 
0

>  <ligand_id>  (63) 
30

>  <original_smiles>  (63) 
COC1C2C3C4(O)CC5OC(O)C6C7(C)C(O)C(OC(C)(C)OC7C(C)C36C)C4OC52CC(=NO)C1(C)C

>  <smiles>  (63) 
[H]ON=C1C([H])([H])C23OC4([H])C5([H])OC(C([H])([H])[H])(C([H])([H])[H])OC6([H])C([H])(C([H])([H])[H])C7(C([H])([H])[H])C([H])(C2([H])C([H])(OC([H])([H])[H])C1(C([H])([H])[H])C([H])([H])[H])C4(O[H])C([H])([H])C3([H])OC([H])(O[H])C7([H])C6(C([H])([H])[H])C5([H])O[H]

$$$$
30:1:1
     RDKit          3D

 81 87  0  0  1  0  0  0  0  0999 V2000
   -0.1024   -6.8973    1.1722 C   0  0  0  0  0  0  0  0  0  0  0  0
    1.0022   -7.6609    1.6154 O   0  0  0  0  0  0  0  0  0  0  0  0
    1.1912   -7.7847    3.0291 C   0  0  2  0  0  0  0  0  0  0  0  0
    2.7265   -7.8176    3.3317 C   0  0  2  0  0  0  0  0  0  0  0  0
    3.7043   -6.6878    3.0115 C   0  0  2  0  0  0  0  0  0  0  0  0
    5.1749   -7.3185    2.0642 C   0  0  1  0  0  0  0  0  0  0  0  0
    6.5106   -6.8330    1.9497 O   0  0  0  0  0  0  0  0  0  0  0  0
    5.7308   -8.7174    2.4809 C   0  0  0  0  0  0  0  0  0  0  0  0
    4.7139   -9.0496    3.4216 C   0  0  1  0  0  0  0  0  0  0  0  0
    5.0053   -8.1006    4.5541 O   0  0  0  0  0  0  0  0  0  0  0  0
    5.6972   -6.7661    4.5407 C   0  0  1  0  0  0  0  0  0  0  0  0
    7.0946   -6.8653    4.4852 O   0  0  0  0  0  0  0  0  0  0  0  0
    5.1054   -5.3718    3.6154 C   0  0  1  0  0  0  0  0  0  0  0  0
    4.1628   -4.5787    2.1540 C   0  0  2  0  0  0  0  0  0  0  0  0
    2.5295   -4.1462    2.1850 C   0  0  0  0  0  0  0  0  0  0  0  0
    4.0002   -5.0127    0.6232 C   0  0  1  0  0  0  0  0  0  0  0  0
    3.6383   -3.9881   -0.2985 O   0  0  0  0  0  0  0  0  0  0  0  0
    4.9267   -5.9717    0.0422 C   0  0  1  0  0  0  0  0  0  0  0  0
    6.1974   -5.2363    0.1008 O   0  0  0  0  0  0  0  0  0  0  0  0
    6.5455   -3.9569    0.7145 C   0  0  0  0  0  0  0  0  0  0  0  0
    8.0733   -4.0878    0.8528 C   0  0  0  0  0  0  0  0  0  0  0  0
    6.2938   -2.7744   -0.2572 C   0  0  0  0  0  0  0  0  0  0  0  0
    6.1360   -3.6153    2.0652 O   0  0  0  0  0  0  0  0  0  0  0  0
    4.7672   -3.3450    2.4879 C   0  0  2  0  0  0  0  0  0  0  0  0
    4.2062   -3.6667    3.9822 C   0  0  1  0  0  0  0  0  0  0  0  0
    3.1858   -2.6681    4.6095 C   0  0  0  0  0  0  0  0  0  0  0  0
    3.8382   -5.3219    4.1212 C   0  0  1  0  0  0  0  0  0  0  0  0
    3.3804   -5.5924    5.5787 C   0  0  0  0  0  0  0  0  0  0  0  0
    4.7630   -7.4558    0.7147 C   0  0  2  0  0  0  0  0  0  0  0  0
    3.5927   -8.2934    1.0930 O   0  0  0  0  0  0  0  0  0  0  0  0
    3.3909   -8.8896    2.5104 C   0  0  2  0  0  0  0  0  0  0  0  0
    2.5426  -10.1543    2.3306 C   0  0  0  0  0  0  0  0  0  0  0  0
    1.4483  -10.3485    3.3483 C   0  0  0  0  0  0  0  0  0  0  0  0
    1.4297  -11.4925    3.8916 N   0  0  0  0  0  0  0  0  0  0  0  0
    0.4430  -11.5845    4.9219 O   0  0  0  0  0  0  0  0  0  0  0  0
    0.5316   -9.1035    3.6131 C   0  0  0  0  0  0  0  0  0  0  0  0
    0.3126   -8.8453    5.1322 C   0  0  0  0  0  0  0  0  0  0  0  0
   -0.8464   -9.3539    2.9685 C   0  0  0  0  0  0  0  0  0  0  0  0
   -0.0460   -6.7485    0.0980 H   0  0  0  0  0  0  0  0  0  0  0  0
   -0.1137   -5.9260    1.6596 H   0  0  0  0  0  0  0  0  0  0  0  0
   -1.0424   -7.3895    1.3612 H   0  0  0  0  0  0  0  0  0  0  0  0
    0.7741   -6.8937    3.5118 H   0  0  0  0  0  0  0  0  0  0  0  0
    2.7664   -8.0616    4.3935 H   0  0  0  0  0  0  0  0  0  0  0  0
    2.9459   -6.4560    2.2867 H   0  0  0  0  0  0  0  0  0  0  0  0
    6.9763   -7.3446    1.2917 H   0  0  0  0  0  0  0  0  0  0  0  0
    5.7508   -9.4844    1.6977 H   0  0  0  0  0  0  0  0  0  0  0  0
    6.7056   -8.7862    2.9690 H   0  0  0  0  0  0  0  0  0  0  0  0
    4.8249  -10.0733    3.7853 H   0  0  0  0  0  0  0  0  0  0  0  0
    5.6029   -6.5114    5.5880 H   0  0  0  0  0  0  0  0  0  0  0  0
    7.3031   -6.9694    3.5529 H   0  0  0  0  0  0  0  0  0  0  0  0
    5.9908   -4.8038    3.9327 H   0  0  0  0  0  0  0  0  0  0  0  0
    1.8711   -4.4779    1.3907 H   0  0  0  0  0  0  0  0  0  0  0  0
    2.3862   -3.0671    2.1155 H   0  0  0  0  0  0  0  0  0  0  0  0
    1.9297   -4.4787    3.0283 H   0  0  0  0  0  0  0  0  0  0  0  0
    3.1346   -5.6485    0.4683 H   0  0  0  0  0  0  0  0  0  0  0  0
    3.4647   -4.3840   -1.1448 H   0  0  0  0  0  0  0  0  0  0  0  0
    4.6845   -6.0867   -1.0096 H   0  0  0  0  0  0  0  0  0  0  0  0
    8.3072   -4.8648    1.5747 H   0  0  0  0  0  0  0  0  0  0  0  0
    8.5065   -3.1522    1.2059 H   0  0  0  0  0  0  0  0  0  0  0  0
    8.5152   -4.3492   -0.1111 H   0  0  0  0  0  0  0  0  0  0  0  0
    5.3655   -2.2576   -0.0398 H   0  0  0  0  0  0  0  0  0  0  0  0
    6.2782   -3.1355   -1.2891 H   0  0  0  0  0  0  0  0  0  0  0  0
    7.0932   -2.0328   -0.1684 H   0  0  0  0  0  0  0  0  0  0  0  0
    4.3573   -2.4371    2.0322 H   0  0  0  0  0  0  0  0  0  0  0  0
    4.9898   -3.3547    4.6809 H   0  0  0  0  0  0  0  0  0  0  0  0
    2.1459   -2.7892    4.3254 H   0  0  0  0  0  0  0  0  0  0  0  0
    3.4725   -1.6421    4.3746 H   0  0  0  0  0  0  0  0  0  0  0  0
    3.2060   -2.7482    5.6976 H   0  0  0  0  0  0  0  0  0  0  0  0
    3.9685   -5.0121    6.2884 H   0  0  0  0  0  0  0  0  0  0  0  0
    3.4236   -6.6395    5.8815 H   0  0  0  0  0  0  0  0  0  0  0  0
    2.3386   -5.2868    5.6909 H   0  0  0  0  0  0  0  0  0  0  0  0
    5.3971   -8.1259    0.1447 H   0  0  0  0  0  0  0  0  0  0  0  0
    2.0608  -10.1228    1.3580 H   0  0  0  0  0  0  0  0  0  0  0  0
    3.1978  -11.0268    2.3097 H   0  0  0  0  0  0  0  0  0  0  0  0
   -0.3224  -11.1386    4.5908 H   0  0  0  0  0  0  0  0  0  0  0  0
   -0.0162   -7.8249    5.3324 H   0  0  0  0  0  0  0  0  0  0  0  0
    1.2224   -9.0173    5.7108 H   0  0  0  0  0  0  0  0  0  0  0  0
   -0.4625   -9.4845    5.5630 H   0  0  0  0  0  0  0  0  0  0  0  0
   -1.5443   -8.5514    3.1892 H   0  0  0  0  0  0  0  0  0  0  0  0
   -1.3361  -10.2591    3.2819 H   0  0  0  0  0  0  0  0  0  0  0  0
   -0.7661   -9.5078    1.9009 H   0  0  0  0  0  0  0  0  0  0  0  0
  1  2  1  0
  1 39  1  0
  1 40  1  0
  1 41  1  0
  2  3  1  0
  3 36  1  0
  3  4  1  0
  3 42  1  1
  4 31  1  0
  4  5  1  0
  4 43  1  1
  5 27  1  0
  5  6  1  0
  5 44  1  6
  6 29  1  0
  6  7  1  6
  6  8  1  0
  7 45  1  0
  8  9  1  0
  8 46  1  0
  8 47  1  0
  9 31  1  0
  9 10  1  0
  9 48  1  1
 10 11  1  0
 11 12  1  0
 11 13  1  0
 11 49  1  1
 12 50  1  0
 13 27  1  0
 13 14  1  0
 13 51  1  1
 14 24  1  0
 14 15  1  1
 14 16  1  0
 15 52  1  0
 15 53  1  0
 15 54  1  0
 16 17  1  0
 16 18  1  0
 16 55  1  1
 17 56  1  0
 18 19  1  0
 18 29  1  0
 18 57  1  6
 19 20  1  0
 20 21  1  0
 20 22  1  0
 20 23  1  0
 21 58  1  0
 21 59  1  0
 21 60  1  0
 22 61  1  0
 22 62  1  0
 22 63  1  0
 23 24  1  0
 24 25  1  0
 24 64  1  6
 25 26  1  0
 25 27  1  0
 25 65  1  1
 26 66  1  0
 26 67  1  0
 26 68  1  0
 27 28  1  1
 28 69  1  0
 28 70  1  0
 28 71  1  0
 29 30  1  0
 29 72  1  6
 30 31  1  0
 31 32  1  6
 32 33  1  0
 32 73  1  0
 32 74  1  0
 33 34  2  3
 33 36  1  0
 34 35  1  0
 35 75  1  0
 36 37  1  0
 36 38  1  0
 37 76  1  0
 37 77  1  0
 37 78  1  0
 38 79  1  0
 38 80  1  0
 38 81  1  0
M  END
>  <i_m_ct_stereo_status>  (64) 
1

>  <s_m_source_file>  (64) 
/var/tmp/pbs.5076255.sched01/tmppz0entnt/04_lepiep.sdf

>  <i_m_source_file_index>  (64) 
37

>  <i_lp_mmshare_version>  (64) 
48012

>  <i_f3d_flags>  (64) 
0

>  <s_epik_input>  (64) 
W09IXS9OPUMoXFtDSDJdMSlDKFtDSDNdKShbQ0gzXSlbQ0BIXShPW0NIM10pW0NAQEhdKFtDQF0xMjMpW0NAQEhdNFtDQF01KFtPSF0pW0NAQEhdKE8zKVtDQEhdNltDQEhdKFtPSF0pW0NAQF03KFtDSDNdKVtDQEhdKFtDQEhdKFtPSF0pT1tDQEBIXTJbQ0gyXTUpW0NAQF00KFtDSDNdKVtDQEhdKFtDSDNdKVtDQEhdN09DKE82KShbQ0gzXSlbQ0gzXQ==

>  <s_epik_cmdline>  (64) 
J2VwaWtfcHl0aG9uJywgJy1waHQnLCAnMi4wJywgJy1waCcsICc3LjAnLCAnLXRuJywgJzgnLCAnLW1hJywgJzIwMCcsICctaW1hZScsICc8aW5maWxlLm1hZT4nLCAnLW9tYWUnLCAnPG91dGZpbGUubWFlPic=

>  <r_lp_tautomer_probability>  (64) 
1

>  <r_epik_Ionization_Penalty>  (64) 
5.39925e-06

>  <r_epik_Ionization_Penalty_Charging>  (64) 
0

>  <r_epik_Ionization_Penalty_Neutral>  (64) 
5.39925e-06

>  <r_epik_State_Penalty>  (64) 
-0

>  <r_epik_Charging_Adjusted_Penalty>  (64) 
0

>  <i_epik_Tot_Q>  (64) 
0

>  <i_epik_Tot_abs_Q>  (64) 
0

>  <s_epik_Chemistry_Notes>  (64) 
This compound has an imine and may undergo hydrolysis. This compound contains an acetal/aminal-like group ( X-CH(R)-Y where X, Y are N, S, or O) that may be acid/base labile, releasing an aldehyde.

>  <s_lp_Force_Field>  (64) 
OPLS3e

>  <r_lp_Energy>  (64) 
706.17

>  <b_lp_Chiralities_Consistent>  (64) 
1

>  <s_lp_Variant>  (64) 
30:0-2

>  <s_i_glide_gridfile>  (64) 
pfpi4k_grid

>  <i_i_glide_lignum>  (64) 
37

>  <i_i_glide_rotatable_bonds>  (64) 
5

>  <r_i_docking_score>  (64) 
-2.84644

>  <r_i_glide_ligand_efficiency>  (64) 
-0.0749063

>  <r_i_glide_ligand_efficiency_sa>  (64) 
-0.251833

>  <r_i_glide_ligand_efficiency_ln>  (64) 
-0.613776

>  <r_i_glide_gscore>  (64) 
-2.84644

>  <r_i_glide_lipo>  (64) 
-0.403045

>  <r_i_glide_hbond>  (64) 
-0.107664

>  <r_i_glide_metal>  (64) 
-0

>  <r_i_glide_rewards>  (64) 
-0.78812

>  <r_i_glide_evdw>  (64) 
-26.1445

>  <r_i_glide_ecoul>  (64) 
-1.62874

>  <r_i_glide_erotb>  (64) 
0.0714653

>  <r_i_glide_esite>  (64) 
-0.0675393

>  <r_i_glide_emodel>  (64) 
-36.0276

>  <r_i_glide_energy>  (64) 
-27.7733

>  <r_i_glide_einternal>  (64) 
0.785702

>  <r_i_glide_intrahb_reward>  (64) 
-0.5

>  <i_i_glide_confnum>  (64) 
2

>  <i_i_glide_posenum>  (64) 
18

>  <r_i_glide_eff_state_penalty>  (64) 
0

>  <ligand_id>  (64) 
30

>  <original_smiles>  (64) 
COC1C2C3C4(O)CC5OC(O)C6C7(C)C(O)C(OC(C)(C)OC7C(C)C36C)C4OC52CC(=NO)C1(C)C

>  <smiles>  (64) 
[H]ON=C1C([H])([H])C23OC4([H])C5([H])OC(C([H])([H])[H])(C([H])([H])[H])OC6([H])C([H])(C([H])([H])[H])C7(C([H])([H])[H])C([H])(C2([H])C([H])(OC([H])([H])[H])C1(C([H])([H])[H])C([H])([H])[H])C4(O[H])C([H])([H])C3([H])OC([H])(O[H])C7([H])C6(C([H])([H])[H])C5([H])O[H]

$$$$
30:1:2
     RDKit          3D

 81 87  0  0  1  0  0  0  0  0999 V2000
    0.5748   -6.4952    1.0632 C   0  0  0  0  0  0  0  0  0  0  0  0
    0.8696   -7.7592    1.6503 O   0  0  0  0  0  0  0  0  0  0  0  0
    1.1793   -7.7078    3.0612 C   0  0  2  0  0  0  0  0  0  0  0  0
    2.7163   -7.6985    3.3770 C   0  0  2  0  0  0  0  0  0  0  0  0
    3.7188   -6.5650    3.0433 C   0  0  2  0  0  0  0  0  0  0  0  0
    5.1876   -7.2123    2.1242 C   0  0  1  0  0  0  0  0  0  0  0  0
    6.5206   -6.7072    2.0020 O   0  0  0  0  0  0  0  0  0  0  0  0
    5.7358   -8.6083    2.5643 C   0  0  0  0  0  0  0  0  0  0  0  0
    4.7213   -8.9193    3.5328 C   0  0  1  0  0  0  0  0  0  0  0  0
    5.0069   -7.9356    4.6441 O   0  0  0  0  0  0  0  0  0  0  0  0
    5.6871   -6.5949    4.5800 C   0  0  1  0  0  0  0  0  0  0  0  0
    7.0873   -6.7005    4.5609 O   0  0  0  0  0  0  0  0  0  0  0  0
    5.0843   -5.2101    3.6245 C   0  0  1  0  0  0  0  0  0  0  0  0
    4.1371   -4.4320    2.1419 C   0  0  2  0  0  0  0  0  0  0  0  0
    2.5349   -3.9284    2.1462 C   0  0  0  0  0  0  0  0  0  0  0  0
    3.9952   -4.9146    0.6074 C   0  0  1  0  0  0  0  0  0  0  0  0
    3.6595   -3.9199   -0.3520 O   0  0  0  0  0  0  0  0  0  0  0  0
    4.9177   -5.9006    0.0666 C   0  0  1  0  0  0  0  0  0  0  0  0
    6.1955   -5.1697    0.1638 O   0  0  0  0  0  0  0  0  0  0  0  0
    6.5389   -3.8584    0.7142 C   0  0  0  0  0  0  0  0  0  0  0  0
    8.0608   -3.9888    0.8854 C   0  0  0  0  0  0  0  0  0  0  0  0
    6.2815   -2.7116   -0.2966 C   0  0  0  0  0  0  0  0  0  0  0  0
    6.1145   -3.4730    2.0372 O   0  0  0  0  0  0  0  0  0  0  0  0
    4.7466   -3.1941    2.4664 C   0  0  2  0  0  0  0  0  0  0  0  0
    4.1754   -3.5034    3.9667 C   0  0  1  0  0  0  0  0  0  0  0  0
    3.1410   -2.4985    4.5649 C   0  0  0  0  0  0  0  0  0  0  0  0
    3.8139   -5.1598    4.1231 C   0  0  1  0  0  0  0  0  0  0  0  0
    3.3392   -5.4097    5.5840 C   0  0  0  0  0  0  0  0  0  0  0  0
    4.7542   -7.3824    0.7617 C   0  0  2  0  0  0  0  0  0  0  0  0
    3.5870   -8.2388    1.1688 O   0  0  0  0  0  0  0  0  0  0  0  0
    3.3939   -8.8000    2.6056 C   0  0  2  0  0  0  0  0  0  0  0  0
    2.5477  -10.0837    2.4608 C   0  0  0  0  0  0  0  0  0  0  0  0
    1.4282  -10.2510    3.4949 C   0  0  0  0  0  0  0  0  0  0  0  0
    1.3140  -11.3926    4.0547 N   0  0  0  0  0  0  0  0  0  0  0  0
    0.2040  -11.5410    4.9650 O   0  0  0  0  0  0  0  0  0  0  0  0
    0.5207   -8.9787    3.6975 C   0  0  0  0  0  0  0  0  0  0  0  0
    0.2877   -8.6888    5.2083 C   0  0  0  0  0  0  0  0  0  0  0  0
   -0.8634   -9.2343    3.0324 C   0  0  0  0  0  0  0  0  0  0  0  0
    0.7064   -6.4048   -0.0203 H   0  0  0  0  0  0  0  0  0  0  0  0
    1.3046   -5.9013    1.4391 H   0  0  0  0  0  0  0  0  0  0  0  0
   -0.3249   -5.9848    1.4262 H   0  0  0  0  0  0  0  0  0  0  0  0
    0.7342   -6.8066    3.5002 H   0  0  0  0  0  0  0  0  0  0  0  0
    2.7437   -7.9043    4.4439 H   0  0  0  0  0  0  0  0  0  0  0  0
    3.0133   -6.3483    2.2877 H   0  0  0  0  0  0  0  0  0  0  0  0
    6.4574   -5.8795    1.5196 H   0  0  0  0  0  0  0  0  0  0  0  0
    5.7640   -9.3730    1.7862 H   0  0  0  0  0  0  0  0  0  0  0  0
    6.7144   -8.6528    3.0382 H   0  0  0  0  0  0  0  0  0  0  0  0
    4.8383   -9.9297    3.9300 H   0  0  0  0  0  0  0  0  0  0  0  0
    5.5710   -6.3027    5.6142 H   0  0  0  0  0  0  0  0  0  0  0  0
    7.3358   -6.9535    3.6686 H   0  0  0  0  0  0  0  0  0  0  0  0
    5.9827   -4.6300    3.9278 H   0  0  0  0  0  0  0  0  0  0  0  0
    1.9668   -3.9888    1.2383 H   0  0  0  0  0  0  0  0  0  0  0  0
    2.4028   -2.8393    2.1795 H   0  0  0  0  0  0  0  0  0  0  0  0
    1.8982   -4.3473    2.9270 H   0  0  0  0  0  0  0  0  0  0  0  0
    3.1090   -5.5165    0.4680 H   0  0  0  0  0  0  0  0  0  0  0  0
    3.4104   -4.3465   -1.1658 H   0  0  0  0  0  0  0  0  0  0  0  0
    4.7062   -6.0357   -0.9945 H   0  0  0  0  0  0  0  0  0  0  0  0
    8.2854   -4.7649    1.6116 H   0  0  0  0  0  0  0  0  0  0  0  0
    8.4909   -3.0633    1.2560 H   0  0  0  0  0  0  0  0  0  0  0  0
    8.5405   -4.2473   -0.0550 H   0  0  0  0  0  0  0  0  0  0  0  0
    5.3492   -2.1861   -0.0840 H   0  0  0  0  0  0  0  0  0  0  0  0
    6.2428   -3.1040   -1.3156 H   0  0  0  0  0  0  0  0  0  0  0  0
    7.0742   -1.9604   -0.2429 H   0  0  0  0  0  0  0  0  0  0  0  0
    4.3403   -2.3049    1.9888 H   0  0  0  0  0  0  0  0  0  0  0  0
    4.9622   -3.1732    4.6613 H   0  0  0  0  0  0  0  0  0  0  0  0
    2.1074   -2.6433    4.2703 H   0  0  0  0  0  0  0  0  0  0  0  0
    3.4030   -1.4732    4.3070 H   0  0  0  0  0  0  0  0  0  0  0  0
    3.1301   -2.5539    5.6521 H   0  0  0  0  0  0  0  0  0  0  0  0
    3.9049   -4.8171    6.2986 H   0  0  0  0  0  0  0  0  0  0  0  0
    3.3810   -6.4444    5.9070 H   0  0  0  0  0  0  0  0  0  0  0  0
    2.2975   -5.1138    5.6753 H   0  0  0  0  0  0  0  0  0  0  0  0
    5.4042   -8.0475    0.2002 H   0  0  0  0  0  0  0  0  0  0  0  0
    2.0390  -10.0906    1.5024 H   0  0  0  0  0  0  0  0  0  0  0  0
    3.1609  -10.9806    2.4574 H   0  0  0  0  0  0  0  0  0  0  0  0
   -0.4703  -10.9869    4.5995 H   0  0  0  0  0  0  0  0  0  0  0  0
   -0.0225   -7.6607    5.3839 H   0  0  0  0  0  0  0  0  0  0  0  0
    1.1920   -8.8434    5.7895 H   0  0  0  0  0  0  0  0  0  0  0  0
   -0.4861   -9.3107    5.6602 H   0  0  0  0  0  0  0  0  0  0  0  0
   -1.5566   -8.4006    3.1540 H   0  0  0  0  0  0  0  0  0  0  0  0
   -1.3628  -10.1082    3.4205 H   0  0  0  0  0  0  0  0  0  0  0  0
   -0.7843   -9.4506    1.9680 H   0  0  0  0  0  0  0  0  0  0  0  0
  1  2  1  0
  1 39  1  0
  1 40  1  0
  1 41  1  0
  2  3  1  0
  3 36  1  0
  3  4  1  0
  3 42  1  1
  4 31  1  0
  4  5  1  0
  4 43  1  1
  5 27  1  0
  5  6  1  0
  5 44  1  6
  6 29  1  0
  6  7  1  6
  6  8  1  0
  7 45  1  0
  8  9  1  0
  8 46  1  0
  8 47  1  0
  9 31  1  0
  9 10  1  0
  9 48  1  1
 10 11  1  0
 11 12  1  0
 11 13  1  0
 11 49  1  1
 12 50  1  0
 13 27  1  0
 13 14  1  0
 13 51  1  1
 14 24  1  0
 14 15  1  1
 14 16  1  0
 15 52  1  0
 15 53  1  0
 15 54  1  0
 16 17  1  0
 16 18  1  0
 16 55  1  1
 17 56  1  0
 18 19  1  0
 18 29  1  0
 18 57  1  6
 19 20  1  0
 20 21  1  0
 20 22  1  0
 20 23  1  0
 21 58  1  0
 21 59  1  0
 21 60  1  0
 22 61  1  0
 22 62  1  0
 22 63  1  0
 23 24  1  0
 24 25  1  0
 24 64  1  6
 25 26  1  0
 25 27  1  0
 25 65  1  1
 26 66  1  0
 26 67  1  0
 26 68  1  0
 27 28  1  1
 28 69  1  0
 28 70  1  0
 28 71  1  0
 29 30  1  0
 29 72  1  6
 30 31  1  0
 31 32  1  6
 32 33  1  0
 32 73  1  0
 32 74  1  0
 33 34  2  3
 33 36  1  0
 34 35  1  0
 35 75  1  0
 36 37  1  0
 36 38  1  0
 37 76  1  0
 37 77  1  0
 37 78  1  0
 38 79  1  0
 38 80  1  0
 38 81  1  0
M  END
>  <i_m_ct_stereo_status>  (65) 
1

>  <s_m_source_file>  (65) 
/var/tmp/pbs.5076255.sched01/tmppz0entnt/04_lepiep.sdf

>  <i_m_source_file_index>  (65) 
37

>  <i_lp_mmshare_version>  (65) 
48012

>  <i_f3d_flags>  (65) 
0

>  <s_epik_input>  (65) 
W09IXS9OPUMoXFtDSDJdMSlDKFtDSDNdKShbQ0gzXSlbQ0BIXShPW0NIM10pW0NAQEhdKFtDQF0xMjMpW0NAQEhdNFtDQF01KFtPSF0pW0NAQEhdKE8zKVtDQEhdNltDQEhdKFtPSF0pW0NAQF03KFtDSDNdKVtDQEhdKFtDQEhdKFtPSF0pT1tDQEBIXTJbQ0gyXTUpW0NAQF00KFtDSDNdKVtDQEhdKFtDSDNdKVtDQEhdN09DKE82KShbQ0gzXSlbQ0gzXQ==

>  <s_epik_cmdline>  (65) 
J2VwaWtfcHl0aG9uJywgJy1waHQnLCAnMi4wJywgJy1waCcsICc3LjAnLCAnLXRuJywgJzgnLCAnLW1hJywgJzIwMCcsICctaW1hZScsICc8aW5maWxlLm1hZT4nLCAnLW9tYWUnLCAnPG91dGZpbGUubWFlPic=

>  <r_lp_tautomer_probability>  (65) 
1

>  <r_epik_Ionization_Penalty>  (65) 
5.39925e-06

>  <r_epik_Ionization_Penalty_Charging>  (65) 
0

>  <r_epik_Ionization_Penalty_Neutral>  (65) 
5.39925e-06

>  <r_epik_State_Penalty>  (65) 
-0

>  <r_epik_Charging_Adjusted_Penalty>  (65) 
0

>  <i_epik_Tot_Q>  (65) 
0

>  <i_epik_Tot_abs_Q>  (65) 
0

>  <s_epik_Chemistry_Notes>  (65) 
This compound has an imine and may undergo hydrolysis. This compound contains an acetal/aminal-like group ( X-CH(R)-Y where X, Y are N, S, or O) that may be acid/base labile, releasing an aldehyde.

>  <s_lp_Force_Field>  (65) 
OPLS3e

>  <r_lp_Energy>  (65) 
706.17

>  <b_lp_Chiralities_Consistent>  (65) 
1

>  <s_lp_Variant>  (65) 
30:0-2

>  <s_i_glide_gridfile>  (65) 
pfpi4k_grid

>  <i_i_glide_lignum>  (65) 
37

>  <i_i_glide_rotatable_bonds>  (65) 
5

>  <r_i_docking_score>  (65) 
-2.69446

>  <r_i_glide_ligand_efficiency>  (65) 
-0.0709069

>  <r_i_glide_ligand_efficiency_sa>  (65) 
-0.238387

>  <r_i_glide_ligand_efficiency_ln>  (65) 
-0.581005

>  <r_i_glide_gscore>  (65) 
-2.69446

>  <r_i_glide_lipo>  (65) 
-0.388305

>  <r_i_glide_hbond>  (65) 
-0.0707063

>  <r_i_glide_metal>  (65) 
-0

>  <r_i_glide_rewards>  (65) 
-0.735532

>  <r_i_glide_evdw>  (65) 
-22.7234

>  <r_i_glide_ecoul>  (65) 
-2.37946

>  <r_i_glide_erotb>  (65) 
0.0714653

>  <r_i_glide_esite>  (65) 
-0.0782925

>  <r_i_glide_emodel>  (65) 
-31.0148

>  <r_i_glide_energy>  (65) 
-25.1029

>  <r_i_glide_einternal>  (65) 
1.08748

>  <r_i_glide_intrahb_reward>  (65) 
-0.5

>  <i_i_glide_confnum>  (65) 
1

>  <i_i_glide_posenum>  (65) 
39

>  <r_i_glide_eff_state_penalty>  (65) 
0

>  <ligand_id>  (65) 
30

>  <original_smiles>  (65) 
COC1C2C3C4(O)CC5OC(O)C6C7(C)C(O)C(OC(C)(C)OC7C(C)C36C)C4OC52CC(=NO)C1(C)C

>  <smiles>  (65) 
[H]ON=C1C([H])([H])C23OC4([H])C5([H])OC(C([H])([H])[H])(C([H])([H])[H])OC6([H])C([H])(C([H])([H])[H])C7(C([H])([H])[H])C([H])(C2([H])C([H])(OC([H])([H])[H])C1(C([H])([H])[H])C([H])([H])[H])C4(O[H])C([H])([H])C3([H])OC([H])(O[H])C7([H])C6(C([H])([H])[H])C5([H])O[H]

$$$$
30:2:0
     RDKit          3D

 81 87  0  0  1  0  0  0  0  0999 V2000
    1.9466   -5.4491    0.3678 C   0  0  0  0  0  0  0  0  0  0  0  0
    3.2031   -6.0360    0.7209 O   0  0  0  0  0  0  0  0  0  0  0  0
    4.2874   -5.3860    1.4383 C   0  0  2  0  0  0  0  0  0  0  0  0
    4.2632   -5.2292    3.0520 C   0  0  2  0  0  0  0  0  0  0  0  0
    3.8049   -6.2787    4.4028 C   0  0  2  0  0  0  0  0  0  0  0  0
    2.4835   -5.8629    4.9236 C   0  0  1  0  0  0  0  0  0  0  0  0
    1.7336   -6.5349    5.9196 O   0  0  0  0  0  0  0  0  0  0  0  0
    2.9131   -4.4948    5.5586 C   0  0  0  0  0  0  0  0  0  0  0  0
    4.1830   -3.9439    4.8252 C   0  0  1  0  0  0  0  0  0  0  0  0
    5.5827   -4.6358    5.1047 O   0  0  0  0  0  0  0  0  0  0  0  0
    6.3756   -5.8917    4.6189 C   0  0  1  0  0  0  0  0  0  0  0  0
    7.5568   -5.9604    5.4046 O   0  0  0  0  0  0  0  0  0  0  0  0
    5.6869   -7.4237    4.6931 C   0  0  2  0  0  0  0  0  0  0  0  0
    5.0142   -8.5074    3.5434 C   0  0  2  0  0  0  0  0  0  0  0  0
    6.2080   -9.1689    2.8177 C   0  0  0  0  0  0  0  0  0  0  0  0
    3.7425   -8.3146    2.4806 C   0  0  1  0  0  0  0  0  0  0  0  0
    3.6244   -9.3852    1.5569 O   0  0  0  0  0  0  0  0  0  0  0  0
    2.2349   -7.6499    2.8963 C   0  0  1  0  0  0  0  0  0  0  0  0
    1.6406   -8.5052    3.8898 O   0  0  0  0  0  0  0  0  0  0  0  0
    1.8648   -9.8962    3.9700 C   0  0  0  0  0  0  0  0  0  0  0  0
    1.1512  -10.4122    5.2439 C   0  0  0  0  0  0  0  0  0  0  0  0
    1.1677  -10.6026    2.7842 C   0  0  0  0  0  0  0  0  0  0  0  0
    3.2267  -10.3101    4.0180 O   0  0  0  0  0  0  0  0  0  0  0  0
    4.3101   -9.4827    4.5241 C   0  0  2  0  0  0  0  0  0  0  0  0
    3.9654   -8.6299    5.7461 C   0  0  1  0  0  0  0  0  0  0  0  0
    4.3931   -9.4013    7.0232 C   0  0  0  0  0  0  0  0  0  0  0  0
    4.5384   -7.1806    5.5101 C   0  0  2  0  0  0  0  0  0  0  0  0
    4.7989   -6.6051    6.9522 C   0  0  0  0  0  0  0  0  0  0  0  0
    1.8763   -6.0790    3.5521 C   0  0  2  0  0  0  0  0  0  0  0  0
    2.2318   -4.7041    3.0635 O   0  0  0  0  0  0  0  0  0  0  0  0
    3.5436   -4.0440    3.3738 C   0  0  2  0  0  0  0  0  0  0  0  0
    3.7737   -2.7367    2.5581 C   0  0  0  0  0  0  0  0  0  0  0  0
    3.9358   -2.9189    1.0458 C   0  0  0  0  0  0  0  0  0  0  0  0
    3.4338   -2.1900    0.1331 N   0  0  0  0  0  0  0  0  0  0  0  0
    2.6426   -1.1548    0.7077 O   0  0  0  0  0  0  0  0  0  0  0  0
    4.8100   -4.1114    0.6768 C   0  0  0  0  0  0  0  0  0  0  0  0
    6.2861   -3.7496    1.0224 C   0  0  0  0  0  0  0  0  0  0  0  0
    4.8415   -4.3778   -0.8547 C   0  0  0  0  0  0  0  0  0  0  0  0
    1.5077   -6.0417   -0.4326 H   0  0  0  0  0  0  0  0  0  0  0  0
    1.9965   -4.4275    0.0092 H   0  0  0  0  0  0  0  0  0  0  0  0
    1.2061   -5.5006    1.1587 H   0  0  0  0  0  0  0  0  0  0  0  0
    5.1232   -6.0579    1.2584 H   0  0  0  0  0  0  0  0  0  0  0  0
    5.2515   -4.8417    2.9895 H   0  0  0  0  0  0  0  0  0  0  0  0
    4.0977   -6.4917    3.4478 H   0  0  0  0  0  0  0  0  0  0  0  0
    0.8905   -6.1205    5.9903 H   0  0  0  0  0  0  0  0  0  0  0  0
    2.0922   -3.7815    5.5191 H   0  0  0  0  0  0  0  0  0  0  0  0
    3.1359   -4.6031    6.6220 H   0  0  0  0  0  0  0  0  0  0  0  0
    4.2976   -2.9021    5.1370 H   0  0  0  0  0  0  0  0  0  0  0  0
    6.8226   -5.7535    3.6343 H   0  0  0  0  0  0  0  0  0  0  0  0
    7.2986   -6.1480    6.2868 H   0  0  0  0  0  0  0  0  0  0  0  0
    6.3982   -8.0256    5.2622 H   0  0  0  0  0  0  0  0  0  0  0  0
    5.9319  -10.1046    2.3310 H   0  0  0  0  0  0  0  0  0  0  0  0
    7.0234   -9.3944    3.5043 H   0  0  0  0  0  0  0  0  0  0  0  0
    6.6018   -8.4983    2.0525 H   0  0  0  0  0  0  0  0  0  0  0  0
    4.2032   -7.7419    1.7125 H   0  0  0  0  0  0  0  0  0  0  0  0
    3.4188  -10.1749    2.0406 H   0  0  0  0  0  0  0  0  0  0  0  0
    1.6245   -7.7467    2.0010 H   0  0  0  0  0  0  0  0  0  0  0  0
    1.6182  -10.0817    6.1669 H   0  0  0  0  0  0  0  0  0  0  0  0
    1.1430  -11.5010    5.2567 H   0  0  0  0  0  0  0  0  0  0  0  0
    0.1201  -10.0625    5.2510 H   0  0  0  0  0  0  0  0  0  0  0  0
    1.3393  -10.1079    1.8305 H   0  0  0  0  0  0  0  0  0  0  0  0
    0.0894  -10.6385    2.9352 H   0  0  0  0  0  0  0  0  0  0  0  0
    1.5356  -11.6267    2.7264 H   0  0  0  0  0  0  0  0  0  0  0  0
    5.0777  -10.1984    4.8209 H   0  0  0  0  0  0  0  0  0  0  0  0
    2.9079   -8.5286    5.8678 H   0  0  0  0  0  0  0  0  0  0  0  0
    5.4762   -9.4950    7.1135 H   0  0  0  0  0  0  0  0  0  0  0  0
    3.9827  -10.4144    7.0104 H   0  0  0  0  0  0  0  0  0  0  0  0
    4.0106   -8.9408    7.9357 H   0  0  0  0  0  0  0  0  0  0  0  0
    5.5784   -7.1612    7.4707 H   0  0  0  0  0  0  0  0  0  0  0  0
    3.8967   -6.6771    7.5593 H   0  0  0  0  0  0  0  0  0  0  0  0
    5.1074   -5.5719    7.0470 H   0  0  0  0  0  0  0  0  0  0  0  0
    0.7861   -6.0297    3.6354 H   0  0  0  0  0  0  0  0  0  0  0  0
    2.9658   -2.0509    2.7903 H   0  0  0  0  0  0  0  0  0  0  0  0
    4.6739   -2.2359    2.9056 H   0  0  0  0  0  0  0  0  0  0  0  0
    1.9426   -1.0538    0.0315 H   0  0  0  0  0  0  0  0  0  0  0  0
    6.9496   -4.6025    0.8858 H   0  0  0  0  0  0  0  0  0  0  0  0
    6.4211   -3.3926    2.0452 H   0  0  0  0  0  0  0  0  0  0  0  0
    6.6524   -2.9405    0.3870 H   0  0  0  0  0  0  0  0  0  0  0  0
    5.4118   -5.2771   -1.0883 H   0  0  0  0  0  0  0  0  0  0  0  0
    5.2960   -3.5495   -1.4044 H   0  0  0  0  0  0  0  0  0  0  0  0
    3.8410   -4.5054   -1.2683 H   0  0  0  0  0  0  0  0  0  0  0  0
  1  2  1  0
  1 39  1  0
  1 40  1  0
  1 41  1  0
  2  3  1  0
  3 36  1  0
  3  4  1  0
  3 42  1  1
  4 31  1  0
  4  5  1  0
  4 43  1  1
  5 27  1  0
  5  6  1  0
  5 44  1  6
  6 29  1  0
  6  7  1  1
  6  8  1  0
  7 45  1  0
  8  9  1  0
  8 46  1  0
  8 47  1  0
  9 31  1  0
  9 10  1  0
  9 48  1  1
 10 11  1  0
 11 12  1  0
 11 13  1  0
 11 49  1  6
 12 50  1  0
 13 27  1  0
 13 14  1  0
 13 51  1  1
 14 24  1  0
 14 15  1  6
 14 16  1  0
 15 52  1  0
 15 53  1  0
 15 54  1  0
 16 17  1  0
 16 18  1  0
 16 55  1  6
 17 56  1  0
 18 19  1  0
 18 29  1  0
 18 57  1  6
 19 20  1  0
 20 21  1  0
 20 22  1  0
 20 23  1  0
 21 58  1  0
 21 59  1  0
 21 60  1  0
 22 61  1  0
 22 62  1  0
 22 63  1  0
 23 24  1  0
 24 25  1  0
 24 64  1  1
 25 26  1  0
 25 27  1  0
 25 65  1  1
 26 66  1  0
 26 67  1  0
 26 68  1  0
 27 28  1  1
 28 69  1  0
 28 70  1  0
 28 71  1  0
 29 30  1  0
 29 72  1  1
 30 31  1  0
 31 32  1  6
 32 33  1  0
 32 73  1  0
 32 74  1  0
 33 34  2  3
 33 36  1  0
 34 35  1  0
 35 75  1  0
 36 37  1  0
 36 38  1  0
 37 76  1  0
 37 77  1  0
 37 78  1  0
 38 79  1  0
 38 80  1  0
 38 81  1  0
M  END
>  <i_m_ct_stereo_status>  (66) 
1

>  <s_m_source_file>  (66) 
/var/tmp/pbs.5076255.sched01/tmppz0entnt/04_lepiep.sdf

>  <i_m_source_file_index>  (66) 
38

>  <i_lp_mmshare_version>  (66) 
48012

>  <i_f3d_flags>  (66) 
0

>  <s_epik_input>  (66) 
W09IXS9OPUMoXFtDSDJdMSlDKFtDSDNdKShbQ0gzXSlbQ0BIXShPW0NIM10pW0NAQEhdKFtDQF0xMjMpW0NAQEhdNFtDQF01KFtPSF0pW0NAQEhdKE8zKVtDQEhdNltDQEhdKFtPSF0pW0NAQF03KFtDSDNdKVtDQEhdKFtDQEhdKFtPSF0pT1tDQEBIXTJbQ0gyXTUpW0NAQF00KFtDSDNdKVtDQEhdKFtDSDNdKVtDQEhdN09DKE82KShbQ0gzXSlbQ0gzXQ==

>  <s_epik_cmdline>  (66) 
J2VwaWtfcHl0aG9uJywgJy1waHQnLCAnMi4wJywgJy1waCcsICc3LjAnLCAnLXRuJywgJzgnLCAnLW1hJywgJzIwMCcsICctaW1hZScsICc8aW5maWxlLm1hZT4nLCAnLW9tYWUnLCAnPG91dGZpbGUubWFlPic=

>  <r_lp_tautomer_probability>  (66) 
1

>  <r_epik_Ionization_Penalty>  (66) 
5.39925e-06

>  <r_epik_Ionization_Penalty_Charging>  (66) 
0

>  <r_epik_Ionization_Penalty_Neutral>  (66) 
5.39925e-06

>  <r_epik_State_Penalty>  (66) 
-0

>  <r_epik_Charging_Adjusted_Penalty>  (66) 
0

>  <i_epik_Tot_Q>  (66) 
0

>  <i_epik_Tot_abs_Q>  (66) 
0

>  <s_epik_Chemistry_Notes>  (66) 
This compound has an imine and may undergo hydrolysis. This compound contains an acetal/aminal-like group ( X-CH(R)-Y where X, Y are N, S, or O) that may be acid/base labile, releasing an aldehyde.

>  <s_lp_Force_Field>  (66) 
OPLS3e

>  <r_lp_Energy>  (66) 
505.809

>  <b_lp_Chiralities_Consistent>  (66) 
1

>  <s_lp_Variant>  (66) 
30:0-3

>  <s_i_glide_gridfile>  (66) 
pfpi4k_grid

>  <i_i_glide_lignum>  (66) 
38

>  <i_i_glide_rotatable_bonds>  (66) 
5

>  <r_i_docking_score>  (66) 
-2.79793

>  <r_i_glide_ligand_efficiency>  (66) 
-0.0736297

>  <r_i_glide_ligand_efficiency_sa>  (66) 
-0.247541

>  <r_i_glide_ligand_efficiency_ln>  (66) 
-0.603316

>  <r_i_glide_gscore>  (66) 
-2.79793

>  <r_i_glide_lipo>  (66) 
-0.313547

>  <r_i_glide_hbond>  (66) 
-0.136854

>  <r_i_glide_metal>  (66) 
-0

>  <r_i_glide_rewards>  (66) 
-0.500961

>  <r_i_glide_evdw>  (66) 
-19.6347

>  <r_i_glide_ecoul>  (66) 
-5.44066

>  <r_i_glide_erotb>  (66) 
0.0714653

>  <r_i_glide_esite>  (66) 
-0.120196

>  <r_i_glide_emodel>  (66) 
-33.3212

>  <r_i_glide_energy>  (66) 
-25.0754

>  <r_i_glide_einternal>  (66) 
2.19311

>  <r_i_glide_intrahb_reward>  (66) 
-0.5

>  <i_i_glide_confnum>  (66) 
1

>  <i_i_glide_posenum>  (66) 
17

>  <r_i_glide_eff_state_penalty>  (66) 
0

>  <ligand_id>  (66) 
30

>  <original_smiles>  (66) 
COC1C2C3C4(O)CC5OC(O)C6C7(C)C(O)C(OC(C)(C)OC7C(C)C36C)C4OC52CC(=NO)C1(C)C

>  <smiles>  (66) 
[H]ON=C1C([H])([H])C23OC4([H])C5([H])OC(C([H])([H])[H])(C([H])([H])[H])OC6([H])C([H])(C([H])([H])[H])C7(C([H])([H])[H])C([H])(C2([H])C([H])(OC([H])([H])[H])C1(C([H])([H])[H])C([H])([H])[H])C4(O[H])C([H])([H])C3([H])OC([H])(O[H])C7([H])C6(C([H])([H])[H])C5([H])O[H]

$$$$
30:2:1
     RDKit          3D

 81 87  0  0  1  0  0  0  0  0999 V2000
    0.7981   -2.5081    2.9611 C   0  0  0  0  0  0  0  0  0  0  0  0
    1.1207   -3.9308    2.8749 O   0  0  0  0  0  0  0  0  0  0  0  0
    2.0245   -4.4559    3.9043 C   0  0  2  0  0  0  0  0  0  0  0  0
    3.0435   -5.6139    3.3759 C   0  0  2  0  0  0  0  0  0  0  0  0
    4.1645   -5.7497    2.0098 C   0  0  2  0  0  0  0  0  0  0  0  0
    3.6281   -6.6678    0.9939 C   0  0  1  0  0  0  0  0  0  0  0  0
    4.2290   -6.8635   -0.3071 O   0  0  0  0  0  0  0  0  0  0  0  0
    3.7724   -8.0047    1.7835 C   0  0  0  0  0  0  0  0  0  0  0  0
    3.7205   -7.7053    3.3171 C   0  0  1  0  0  0  0  0  0  0  0  0
    4.9871   -7.0487    4.0141 O   0  0  0  0  0  0  0  0  0  0  0  0
    5.6183   -5.6232    4.1712 C   0  0  1  0  0  0  0  0  0  0  0  0
    6.8580   -5.7699    4.8226 O   0  0  0  0  0  0  0  0  0  0  0  0
    5.9015   -4.6787    2.8150 C   0  0  2  0  0  0  0  0  0  0  0  0
    5.1561   -3.2867    2.1195 C   0  0  2  0  0  0  0  0  0  0  0  0
    5.4866   -2.0560    2.9753 C   0  0  0  0  0  0  0  0  0  0  0  0
    3.6276   -3.0586    1.5296 C   0  0  1  0  0  0  0  0  0  0  0  0
    3.3206   -1.6954    1.2447 O   0  0  0  0  0  0  0  0  0  0  0  0
    2.7974   -4.1434    0.5430 C   0  0  1  0  0  0  0  0  0  0  0  0
    3.5677   -4.2324   -0.6701 O   0  0  0  0  0  0  0  0  0  0  0  0
    4.3280   -3.1687   -1.2132 C   0  0  0  0  0  0  0  0  0  0  0  0
    5.0363   -3.6989   -2.4629 C   0  0  0  0  0  0  0  0  0  0  0  0
    3.3994   -2.0615   -1.7261 C   0  0  0  0  0  0  0  0  0  0  0  0
    5.3086   -2.5919   -0.3670 O   0  0  0  0  0  0  0  0  0  0  0  0
    5.8937   -3.2860    0.7698 C   0  0  2  0  0  0  0  0  0  0  0  0
    6.2350   -4.7605    0.5256 C   0  0  1  0  0  0  0  0  0  0  0  0
    7.7355   -4.8342    0.1311 C   0  0  0  0  0  0  0  0  0  0  0  0
    5.7389   -5.6084    1.7626 C   0  0  2  0  0  0  0  0  0  0  0  0
    6.7039   -6.8573    1.8213 C   0  0  0  0  0  0  0  0  0  0  0  0
    2.3983   -5.8026    0.8451 C   0  0  2  0  0  0  0  0  0  0  0  0
    1.6621   -6.4112    1.9890 O   0  0  0  0  0  0  0  0  0  0  0  0
    2.3618   -6.8615    3.2463 C   0  0  2  0  0  0  0  0  0  0  0  0
    1.3709   -7.3343    4.3344 C   0  0  0  0  0  0  0  0  0  0  0  0
    0.4432   -6.2359    4.8451 C   0  0  0  0  0  0  0  0  0  0  0  0
   -0.7996   -6.3598    5.0638 N   0  0  0  0  0  0  0  0  0  0  0  0
   -1.2821   -7.6810    4.7771 O   0  0  0  0  0  0  0  0  0  0  0  0
    1.1792   -4.9201    5.1568 C   0  0  0  0  0  0  0  0  0  0  0  0
    2.0754   -5.1045    6.3960 C   0  0  0  0  0  0  0  0  0  0  0  0
    0.1969   -3.8187    5.6046 C   0  0  0  0  0  0  0  0  0  0  0  0
    0.7119   -2.1004    1.9519 H   0  0  0  0  0  0  0  0  0  0  0  0
    1.5927   -1.8987    3.3806 H   0  0  0  0  0  0  0  0  0  0  0  0
   -0.1235   -2.2680    3.4722 H   0  0  0  0  0  0  0  0  0  0  0  0
    2.6303   -3.6302    4.2808 H   0  0  0  0  0  0  0  0  0  0  0  0
    3.3718   -5.6965    4.3760 H   0  0  0  0  0  0  0  0  0  0  0  0
    3.7144   -4.9448    2.4438 H   0  0  0  0  0  0  0  0  0  0  0  0
    3.8091   -6.3146   -0.9379 H   0  0  0  0  0  0  0  0  0  0  0  0
    3.0087   -8.7248    1.4886 H   0  0  0  0  0  0  0  0  0  0  0  0
    4.7150   -8.5139    1.5634 H   0  0  0  0  0  0  0  0  0  0  0  0
    3.5809   -8.6640    3.8212 H   0  0  0  0  0  0  0  0  0  0  0  0
    5.0975   -5.0331    4.9258 H   0  0  0  0  0  0  0  0  0  0  0  0
    7.4188   -6.3053    4.2739 H   0  0  0  0  0  0  0  0  0  0  0  0
    6.9713   -4.5910    2.7530 H   0  0  0  0  0  0  0  0  0  0  0  0
    5.3558   -1.0990    2.4678 H   0  0  0  0  0  0  0  0  0  0  0  0
    6.5044   -2.1002    3.2689 H   0  0  0  0  0  0  0  0  0  0  0  0
    4.9529   -2.0421    3.9257 H   0  0  0  0  0  0  0  0  0  0  0  0
    3.1469   -2.9888    2.4578 H   0  0  0  0  0  0  0  0  0  0  0  0
    2.5105   -1.6379    0.7530 H   0  0  0  0  0  0  0  0  0  0  0  0
    1.8474   -3.6621    0.2990 H   0  0  0  0  0  0  0  0  0  0  0  0
    5.8007   -4.4145   -2.2123 H   0  0  0  0  0  0  0  0  0  0  0  0
    5.5140   -2.8845   -3.0047 H   0  0  0  0  0  0  0  0  0  0  0  0
    4.3231   -4.1968   -3.1190 H   0  0  0  0  0  0  0  0  0  0  0  0
    2.6232   -1.8489   -1.0055 H   0  0  0  0  0  0  0  0  0  0  0  0
    2.8961   -2.3563   -2.6448 H   0  0  0  0  0  0  0  0  0  0  0  0
    3.9608   -1.1470   -1.9019 H   0  0  0  0  0  0  0  0  0  0  0  0
    6.8252   -2.7504    0.9651 H   0  0  0  0  0  0  0  0  0  0  0  0
    5.7262   -5.1268   -0.3357 H   0  0  0  0  0  0  0  0  0  0  0  0
    8.4234   -4.5639    0.9368 H   0  0  0  0  0  0  0  0  0  0  0  0
    7.9238   -4.1484   -0.6915 H   0  0  0  0  0  0  0  0  0  0  0  0
    8.0217   -5.8253   -0.2215 H   0  0  0  0  0  0  0  0  0  0  0  0
    7.7433   -6.5680    2.0006 H   0  0  0  0  0  0  0  0  0  0  0  0
    6.6942   -7.3861    0.8778 H   0  0  0  0  0  0  0  0  0  0  0  0
    6.5251   -7.6308    2.5628 H   0  0  0  0  0  0  0  0  0  0  0  0
    1.8415   -6.1460   -0.0237 H   0  0  0  0  0  0  0  0  0  0  0  0
    0.8239   -8.1943    3.9440 H   0  0  0  0  0  0  0  0  0  0  0  0
    1.9111   -7.7280    5.1955 H   0  0  0  0  0  0  0  0  0  0  0  0
   -0.4942   -8.1801    4.6042 H   0  0  0  0  0  0  0  0  0  0  0  0
    2.6987   -4.2236    6.5499 H   0  0  0  0  0  0  0  0  0  0  0  0
    2.7389   -5.9661    6.3302 H   0  0  0  0  0  0  0  0  0  0  0  0
    1.4786   -5.2562    7.2901 H   0  0  0  0  0  0  0  0  0  0  0  0
    0.6914   -2.8513    5.6958 H   0  0  0  0  0  0  0  0  0  0  0  0
   -0.3046   -4.0368    6.5475 H   0  0  0  0  0  0  0  0  0  0  0  0
   -0.5833   -3.7268    4.8680 H   0  0  0  0  0  0  0  0  0  0  0  0
  1  2  1  0
  1 39  1  0
  1 40  1  0
  1 41  1  0
  2  3  1  0
  3 36  1  0
  3  4  1  0
  3 42  1  1
  4 31  1  0
  4  5  1  0
  4 43  1  1
  5 27  1  0
  5  6  1  0
  5 44  1  6
  6 29  1  0
  6  7  1  6
  6  8  1  0
  7 45  1  0
  8  9  1  0
  8 46  1  0
  8 47  1  0
  9 31  1  0
  9 10  1  0
  9 48  1  1
 10 11  1  0
 11 12  1  0
 11 13  1  0
 11 49  1  1
 12 50  1  0
 13 27  1  0
 13 14  1  0
 13 51  1  1
 14 24  1  0
 14 15  1  1
 14 16  1  0
 15 52  1  0
 15 53  1  0
 15 54  1  0
 16 17  1  0
 16 18  1  0
 16 55  1  1
 17 56  1  0
 18 19  1  0
 18 29  1  0
 18 57  1  6
 19 20  1  0
 20 21  1  0
 20 22  1  0
 20 23  1  0
 21 58  1  0
 21 59  1  0
 21 60  1  0
 22 61  1  0
 22 62  1  0
 22 63  1  0
 23 24  1  0
 24 25  1  0
 24 64  1  1
 25 26  1  0
 25 27  1  0
 25 65  1  6
 26 66  1  0
 26 67  1  0
 26 68  1  0
 27 28  1  1
 28 69  1  0
 28 70  1  0
 28 71  1  0
 29 30  1  0
 29 72  1  6
 30 31  1  0
 31 32  1  1
 32 33  1  0
 32 73  1  0
 32 74  1  0
 33 34  2  3
 33 36  1  0
 34 35  1  0
 35 75  1  0
 36 37  1  0
 36 38  1  0
 37 76  1  0
 37 77  1  0
 37 78  1  0
 38 79  1  0
 38 80  1  0
 38 81  1  0
M  END
>  <i_m_ct_stereo_status>  (67) 
1

>  <s_m_source_file>  (67) 
/var/tmp/pbs.5076255.sched01/tmppz0entnt/04_lepiep.sdf

>  <i_m_source_file_index>  (67) 
38

>  <i_lp_mmshare_version>  (67) 
48012

>  <i_f3d_flags>  (67) 
0

>  <s_epik_input>  (67) 
W09IXS9OPUMoXFtDSDJdMSlDKFtDSDNdKShbQ0gzXSlbQ0BIXShPW0NIM10pW0NAQEhdKFtDQF0xMjMpW0NAQEhdNFtDQF01KFtPSF0pW0NAQEhdKE8zKVtDQEhdNltDQEhdKFtPSF0pW0NAQF03KFtDSDNdKVtDQEhdKFtDQEhdKFtPSF0pT1tDQEBIXTJbQ0gyXTUpW0NAQF00KFtDSDNdKVtDQEhdKFtDSDNdKVtDQEhdN09DKE82KShbQ0gzXSlbQ0gzXQ==

>  <s_epik_cmdline>  (67) 
J2VwaWtfcHl0aG9uJywgJy1waHQnLCAnMi4wJywgJy1waCcsICc3LjAnLCAnLXRuJywgJzgnLCAnLW1hJywgJzIwMCcsICctaW1hZScsICc8aW5maWxlLm1hZT4nLCAnLW9tYWUnLCAnPG91dGZpbGUubWFlPic=

>  <r_lp_tautomer_probability>  (67) 
1

>  <r_epik_Ionization_Penalty>  (67) 
5.39925e-06

>  <r_epik_Ionization_Penalty_Charging>  (67) 
0

>  <r_epik_Ionization_Penalty_Neutral>  (67) 
5.39925e-06

>  <r_epik_State_Penalty>  (67) 
-0

>  <r_epik_Charging_Adjusted_Penalty>  (67) 
0

>  <i_epik_Tot_Q>  (67) 
0

>  <i_epik_Tot_abs_Q>  (67) 
0

>  <s_epik_Chemistry_Notes>  (67) 
This compound has an imine and may undergo hydrolysis. This compound contains an acetal/aminal-like group ( X-CH(R)-Y where X, Y are N, S, or O) that may be acid/base labile, releasing an aldehyde.

>  <s_lp_Force_Field>  (67) 
OPLS3e

>  <r_lp_Energy>  (67) 
505.809

>  <b_lp_Chiralities_Consistent>  (67) 
1

>  <s_lp_Variant>  (67) 
30:0-3

>  <s_i_glide_gridfile>  (67) 
pfpi4k_grid

>  <i_i_glide_lignum>  (67) 
38

>  <i_i_glide_rotatable_bonds>  (67) 
5

>  <r_i_docking_score>  (67) 
-2.41902

>  <r_i_glide_ligand_efficiency>  (67) 
-0.0636585

>  <r_i_glide_ligand_efficiency_sa>  (67) 
-0.214018

>  <r_i_glide_ligand_efficiency_ln>  (67) 
-0.521613

>  <r_i_glide_gscore>  (67) 
-2.41902

>  <r_i_glide_lipo>  (67) 
-0.681981

>  <r_i_glide_hbond>  (67) 
0

>  <r_i_glide_metal>  (67) 
-0

>  <r_i_glide_rewards>  (67) 
-0.500812

>  <r_i_glide_evdw>  (67) 
-7.20932

>  <r_i_glide_ecoul>  (67) 
-5.66742

>  <r_i_glide_erotb>  (67) 
0.0714653

>  <r_i_glide_esite>  (67) 
-0.0971172

>  <r_i_glide_emodel>  (67) 
-17.8142

>  <r_i_glide_energy>  (67) 
-12.8767

>  <r_i_glide_einternal>  (67) 
3.74528

>  <r_i_glide_intrahb_reward>  (67) 
-0.5

>  <i_i_glide_confnum>  (67) 
2

>  <i_i_glide_posenum>  (67) 
38

>  <r_i_glide_eff_state_penalty>  (67) 
0

>  <ligand_id>  (67) 
30

>  <original_smiles>  (67) 
COC1C2C3C4(O)CC5OC(O)C6C7(C)C(O)C(OC(C)(C)OC7C(C)C36C)C4OC52CC(=NO)C1(C)C

>  <smiles>  (67) 
[H]ON=C1C([H])([H])C23OC4([H])C5([H])OC(C([H])([H])[H])(C([H])([H])[H])OC6([H])C([H])(C([H])([H])[H])C7(C([H])([H])[H])C([H])(C2([H])C([H])(OC([H])([H])[H])C1(C([H])([H])[H])C([H])([H])[H])C4(O[H])C([H])([H])C3([H])OC([H])(O[H])C7([H])C6(C([H])([H])[H])C5([H])O[H]

$$$$
30:2:2
     RDKit          3D

 81 87  0  0  1  0  0  0  0  0999 V2000
    1.1053   -2.3120    2.6314 C   0  0  0  0  0  0  0  0  0  0  0  0
    1.4844   -3.7022    2.4995 O   0  0  0  0  0  0  0  0  0  0  0  0
    2.4054   -4.3137    3.4337 C   0  0  2  0  0  0  0  0  0  0  0  0
    3.4644   -5.3473    2.7776 C   0  0  2  0  0  0  0  0  0  0  0  0
    4.5734   -5.2635    1.4124 C   0  0  2  0  0  0  0  0  0  0  0  0
    4.0397   -6.0803    0.3307 C   0  0  1  0  0  0  0  0  0  0  0  0
    4.6664   -6.0148   -0.8619 O   0  0  0  0  0  0  0  0  0  0  0  0
    4.3231   -7.5113    0.9077 C   0  0  0  0  0  0  0  0  0  0  0  0
    4.2711   -7.4061    2.4498 C   0  0  1  0  0  0  0  0  0  0  0  0
    5.5082   -6.7491    3.1956 O   0  0  0  0  0  0  0  0  0  0  0  0
    6.0541   -5.3146    3.5181 C   0  0  1  0  0  0  0  0  0  0  0  0
    7.2838   -5.5131    4.1501 O   0  0  0  0  0  0  0  0  0  0  0  0
    6.2337   -4.1561    2.2693 C   0  0  2  0  0  0  0  0  0  0  0  0
    5.3837   -2.7499    1.7476 C   0  0  2  0  0  0  0  0  0  0  0  0
    5.5999   -1.5862    2.7296 C   0  0  0  0  0  0  0  0  0  0  0  0
    3.8463   -2.5813    1.2186 C   0  0  1  0  0  0  0  0  0  0  0  0
    3.4808   -1.2173    1.0681 O   0  0  0  0  0  0  0  0  0  0  0  0
    3.0532   -3.6036    0.1275 C   0  0  1  0  0  0  0  0  0  0  0  0
    3.7789   -3.4934   -1.1081 O   0  0  0  0  0  0  0  0  0  0  0  0
    4.4479   -2.3371   -1.5345 C   0  0  0  0  0  0  0  0  0  0  0  0
    5.1398   -2.7047   -2.8384 C   0  0  0  0  0  0  0  0  0  0  0  0
    3.4391   -1.2267   -1.8999 C   0  0  0  0  0  0  0  0  0  0  0  0
    5.4545   -1.7921   -0.6756 O   0  0  0  0  0  0  0  0  0  0  0  0
    6.1040   -2.5357    0.3967 C   0  0  2  0  0  0  0  0  0  0  0  0
    6.5603   -3.9302   -0.0321 C   0  0  1  0  0  0  0  0  0  0  0  0
    8.0557   -3.7984   -0.4766 C   0  0  0  0  0  0  0  0  0  0  0  0
    6.1388   -4.9581    1.1193 C   0  0  2  0  0  0  0  0  0  0  0  0
    7.2021   -6.1219    1.0341 C   0  0  0  0  0  0  0  0  0  0  0  0
    2.7491   -5.2940    0.2570 C   0  0  2  0  0  0  0  0  0  0  0  0
    2.1002   -6.0891    1.3304 O   0  0  0  0  0  0  0  0  0  0  0  0
    2.8682   -6.6368    2.5073 C   0  0  2  0  0  0  0  0  0  0  0  0
    1.9399   -7.2999    3.5432 C   0  0  0  0  0  0  0  0  0  0  0  0
    0.9567   -6.3281    4.1932 C   0  0  0  0  0  0  0  0  0  0  0  0
   -0.2763   -6.5719    4.4245 N   0  0  0  0  0  0  0  0  0  0  0  0
   -0.6718   -7.8899    4.0260 O   0  0  0  0  0  0  0  0  0  0  0  0
    1.6064   -4.9890    4.6136 C   0  0  0  0  0  0  0  0  0  0  0  0
    2.5541   -5.2760    5.8267 C   0  0  0  0  0  0  0  0  0  0  0  0
    0.5523   -4.0118    5.1774 C   0  0  0  0  0  0  0  0  0  0  0  0
    0.7619   -1.9037    1.6655 H   0  0  0  0  0  0  0  0  0  0  0  0
    1.9146   -1.6462    2.8856 H   0  0  0  0  0  0  0  0  0  0  0  0
    0.2749   -2.1244    3.3313 H   0  0  0  0  0  0  0  0  0  0  0  0
    2.9790   -3.5073    3.9257 H   0  0  0  0  0  0  0  0  0  0  0  0
    3.8362   -5.5388    3.7507 H   0  0  0  0  0  0  0  0  0  0  0  0
    4.0627   -4.5416    1.9060 H   0  0  0  0  0  0  0  0  0  0  0  0
    4.0607   -6.1454   -1.5871 H   0  0  0  0  0  0  0  0  0  0  0  0
    3.6144   -8.2301    0.5168 H   0  0  0  0  0  0  0  0  0  0  0  0
    5.2951   -7.8910    0.5889 H   0  0  0  0  0  0  0  0  0  0  0  0
    4.2238   -8.4180    2.8259 H   0  0  0  0  0  0  0  0  0  0  0  0
    5.5171   -4.8490    4.3453 H   0  0  0  0  0  0  0  0  0  0  0  0
    7.9051   -5.8238    3.5014 H   0  0  0  0  0  0  0  0  0  0  0  0
    7.2830   -3.9336    2.1479 H   0  0  0  0  0  0  0  0  0  0  0  0
    5.3595   -0.5933    2.3467 H   0  0  0  0  0  0  0  0  0  0  0  0
    6.6551   -1.5383    2.8655 H   0  0  0  0  0  0  0  0  0  0  0  0
    5.1097   -1.7457    3.6941 H   0  0  0  0  0  0  0  0  0  0  0  0
    3.4438   -2.6451    2.1556 H   0  0  0  0  0  0  0  0  0  0  0  0
    2.7378   -1.1453    0.4784 H   0  0  0  0  0  0  0  0  0  0  0  0
    2.0752   -3.1431   -0.0267 H   0  0  0  0  0  0  0  0  0  0  0  0
    6.0292   -3.3234   -2.7062 H   0  0  0  0  0  0  0  0  0  0  0  0
    5.3985   -1.7450   -3.2737 H   0  0  0  0  0  0  0  0  0  0  0  0
    4.4465   -3.1868   -3.5194 H   0  0  0  0  0  0  0  0  0  0  0  0
    2.6479   -1.1336   -1.1741 H   0  0  0  0  0  0  0  0  0  0  0  0
    2.9471   -1.4308   -2.8494 H   0  0  0  0  0  0  0  0  0  0  0  0
    3.9626   -0.2651   -1.9663 H   0  0  0  0  0  0  0  0  0  0  0  0
    6.9878   -1.9530    0.6387 H   0  0  0  0  0  0  0  0  0  0  0  0
    6.0407   -4.2213   -0.9161 H   0  0  0  0  0  0  0  0  0  0  0  0
    8.7002   -3.5286    0.3677 H   0  0  0  0  0  0  0  0  0  0  0  0
    8.1162   -2.9966   -1.2256 H   0  0  0  0  0  0  0  0  0  0  0  0
    8.4968   -4.6436   -0.9488 H   0  0  0  0  0  0  0  0  0  0  0  0
    8.2183   -5.7770    1.2183 H   0  0  0  0  0  0  0  0  0  0  0  0
    7.2276   -6.4996    0.0335 H   0  0  0  0  0  0  0  0  0  0  0  0
    7.0680   -7.0063    1.6434 H   0  0  0  0  0  0  0  0  0  0  0  0
    2.2061   -5.5559   -0.6358 H   0  0  0  0  0  0  0  0  0  0  0  0
    1.4490   -8.1421    3.0627 H   0  0  0  0  0  0  0  0  0  0  0  0
    2.5349   -7.7471    4.3375 H   0  0  0  0  0  0  0  0  0  0  0  0
    0.1498   -8.3519    3.9119 H   0  0  0  0  0  0  0  0  0  0  0  0
    3.1246   -4.3845    6.0749 H   0  0  0  0  0  0  0  0  0  0  0  0
    3.2671   -6.0741    5.6442 H   0  0  0  0  0  0  0  0  0  0  0  0
    1.9916   -5.5790    6.7151 H   0  0  0  0  0  0  0  0  0  0  0  0
    1.0041   -3.0450    5.4000 H   0  0  0  0  0  0  0  0  0  0  0  0
    0.0906   -4.3734    6.0947 H   0  0  0  0  0  0  0  0  0  0  0  0
   -0.2592   -3.8455    4.4687 H   0  0  0  0  0  0  0  0  0  0  0  0
  1  2  1  0
  1 39  1  0
  1 40  1  0
  1 41  1  0
  2  3  1  0
  3 36  1  0
  3  4  1  0
  3 42  1  1
  4 31  1  0
  4  5  1  0
  4 43  1  1
  5 27  1  0
  5  6  1  0
  5 44  1  6
  6 29  1  0
  6  7  1  6
  6  8  1  0
  7 45  1  0
  8  9  1  0
  8 46  1  0
  8 47  1  0
  9 31  1  0
  9 10  1  0
  9 48  1  1
 10 11  1  0
 11 12  1  0
 11 13  1  0
 11 49  1  1
 12 50  1  0
 13 27  1  0
 13 14  1  0
 13 51  1  1
 14 24  1  0
 14 15  1  1
 14 16  1  0
 15 52  1  0
 15 53  1  0
 15 54  1  0
 16 17  1  0
 16 18  1  0
 16 55  1  1
 17 56  1  0
 18 19  1  0
 18 29  1  0
 18 57  1  6
 19 20  1  0
 20 21  1  0
 20 22  1  0
 20 23  1  0
 21 58  1  0
 21 59  1  0
 21 60  1  0
 22 61  1  0
 22 62  1  0
 22 63  1  0
 23 24  1  0
 24 25  1  0
 24 64  1  1
 25 26  1  0
 25 27  1  0
 25 65  1  6
 26 66  1  0
 26 67  1  0
 26 68  1  0
 27 28  1  1
 28 69  1  0
 28 70  1  0
 28 71  1  0
 29 30  1  0
 29 72  1  6
 30 31  1  0
 31 32  1  1
 32 33  1  0
 32 73  1  0
 32 74  1  0
 33 34  2  3
 33 36  1  0
 34 35  1  0
 35 75  1  0
 36 37  1  0
 36 38  1  0
 37 76  1  0
 37 77  1  0
 37 78  1  0
 38 79  1  0
 38 80  1  0
 38 81  1  0
M  END
>  <i_m_ct_stereo_status>  (68) 
1

>  <s_m_source_file>  (68) 
/var/tmp/pbs.5076255.sched01/tmppz0entnt/04_lepiep.sdf

>  <i_m_source_file_index>  (68) 
38

>  <i_lp_mmshare_version>  (68) 
48012

>  <i_f3d_flags>  (68) 
0

>  <s_epik_input>  (68) 
W09IXS9OPUMoXFtDSDJdMSlDKFtDSDNdKShbQ0gzXSlbQ0BIXShPW0NIM10pW0NAQEhdKFtDQF0xMjMpW0NAQEhdNFtDQF01KFtPSF0pW0NAQEhdKE8zKVtDQEhdNltDQEhdKFtPSF0pW0NAQF03KFtDSDNdKVtDQEhdKFtDQEhdKFtPSF0pT1tDQEBIXTJbQ0gyXTUpW0NAQF00KFtDSDNdKVtDQEhdKFtDSDNdKVtDQEhdN09DKE82KShbQ0gzXSlbQ0gzXQ==

>  <s_epik_cmdline>  (68) 
J2VwaWtfcHl0aG9uJywgJy1waHQnLCAnMi4wJywgJy1waCcsICc3LjAnLCAnLXRuJywgJzgnLCAnLW1hJywgJzIwMCcsICctaW1hZScsICc8aW5maWxlLm1hZT4nLCAnLW9tYWUnLCAnPG91dGZpbGUubWFlPic=

>  <r_lp_tautomer_probability>  (68) 
1

>  <r_epik_Ionization_Penalty>  (68) 
5.39925e-06

>  <r_epik_Ionization_Penalty_Charging>  (68) 
0

>  <r_epik_Ionization_Penalty_Neutral>  (68) 
5.39925e-06

>  <r_epik_State_Penalty>  (68) 
-0

>  <r_epik_Charging_Adjusted_Penalty>  (68) 
0

>  <i_epik_Tot_Q>  (68) 
0

>  <i_epik_Tot_abs_Q>  (68) 
0

>  <s_epik_Chemistry_Notes>  (68) 
This compound has an imine and may undergo hydrolysis. This compound contains an acetal/aminal-like group ( X-CH(R)-Y where X, Y are N, S, or O) that may be acid/base labile, releasing an aldehyde.

>  <s_lp_Force_Field>  (68) 
OPLS3e

>  <r_lp_Energy>  (68) 
505.809

>  <b_lp_Chiralities_Consistent>  (68) 
1

>  <s_lp_Variant>  (68) 
30:0-3

>  <s_i_glide_gridfile>  (68) 
pfpi4k_grid

>  <i_i_glide_lignum>  (68) 
38

>  <i_i_glide_rotatable_bonds>  (68) 
5

>  <r_i_docking_score>  (68) 
-2.31825

>  <r_i_glide_ligand_efficiency>  (68) 
-0.0610067

>  <r_i_glide_ligand_efficiency_sa>  (68) 
-0.205103

>  <r_i_glide_ligand_efficiency_ln>  (68) 
-0.499884

>  <r_i_glide_gscore>  (68) 
-2.31825

>  <r_i_glide_lipo>  (68) 
-0.977942

>  <r_i_glide_hbond>  (68) 
0

>  <r_i_glide_metal>  (68) 
-0

>  <r_i_glide_rewards>  (68) 
-0.00822196

>  <r_i_glide_evdw>  (68) 
-1.66263

>  <r_i_glide_ecoul>  (68) 
-8.53496

>  <r_i_glide_erotb>  (68) 
0.0714653

>  <r_i_glide_esite>  (68) 
-0.128665

>  <r_i_glide_emodel>  (68) 
-7.97112

>  <r_i_glide_energy>  (68) 
-10.1976

>  <r_i_glide_einternal>  (68) 
4.02603

>  <r_i_glide_intrahb_reward>  (68) 
-0

>  <i_i_glide_confnum>  (68) 
2

>  <i_i_glide_posenum>  (68) 
18

>  <r_i_glide_eff_state_penalty>  (68) 
0

>  <ligand_id>  (68) 
30

>  <original_smiles>  (68) 
COC1C2C3C4(O)CC5OC(O)C6C7(C)C(O)C(OC(C)(C)OC7C(C)C36C)C4OC52CC(=NO)C1(C)C

>  <smiles>  (68) 
[H]ON=C1C([H])([H])C23OC4([H])C5([H])OC(C([H])([H])[H])(C([H])([H])[H])OC6([H])C([H])(C([H])([H])[H])C7(C([H])([H])[H])C([H])(C2([H])C([H])(OC([H])([H])[H])C1(C([H])([H])[H])C([H])([H])[H])C4(O[H])C([H])([H])C3([H])OC([H])(O[H])C7([H])C6(C([H])([H])[H])C5([H])O[H]

$$$$
30:3:0
     RDKit          3D

 81 87  0  0  1  0  0  0  0  0999 V2000
   -1.7643    0.6145    4.7063 C   0  0  0  0  0  0  0  0  0  0  0  0
   -0.5577   -0.0441    4.3008 O   0  0  0  0  0  0  0  0  0  0  0  0
    0.7500    0.5801    4.1750 C   0  0  2  0  0  0  0  0  0  0  0  0
    1.7116    0.7917    5.4586 C   0  0  2  0  0  0  0  0  0  0  0  0
    2.1260   -0.1848    6.8835 C   0  0  2  0  0  0  0  0  0  0  0  0
    1.3847    0.3216    8.0621 C   0  0  1  0  0  0  0  0  0  0  0  0
    1.3075   -0.2892    9.3349 O   0  0  0  0  0  0  0  0  0  0  0  0
    2.1302    1.6900    8.2360 C   0  0  0  0  0  0  0  0  0  0  0  0
    2.7283    2.1408    6.8571 C   0  0  1  0  0  0  0  0  0  0  0  0
    4.0013    1.3834    6.2902 O   0  0  0  0  0  0  0  0  0  0  0  0
    4.3297    0.0707    5.5035 C   0  0  1  0  0  0  0  0  0  0  0  0
    5.7275   -0.0301    5.4315 O   0  0  0  0  0  0  0  0  0  0  0  0
    3.7839   -1.4114    6.0782 C   0  0  2  0  0  0  0  0  0  0  0  0
    2.5406   -2.5039    5.6254 C   0  0  2  0  0  0  0  0  0  0  0  0
    3.0563   -3.2578    4.3817 C   0  0  0  0  0  0  0  0  0  0  0  0
    0.8944   -2.2868    5.5048 C   0  0  1  0  0  0  0  0  0  0  0  0
    0.2392   -3.4032    4.9206 O   0  0  0  0  0  0  0  0  0  0  0  0
   -0.0545   -1.5250    6.6908 C   0  0  1  0  0  0  0  0  0  0  0  0
    0.0154   -2.3093    7.8990 O   0  0  0  0  0  0  0  0  0  0  0  0
    0.2247   -3.7058    7.9182 C   0  0  0  0  0  0  0  0  0  0  0  0
    0.4016   -4.1277    9.3978 C   0  0  0  0  0  0  0  0  0  0  0  0
   -1.0558   -4.4215    7.4219 C   0  0  0  0  0  0  0  0  0  0  0  0
    1.3415   -4.1847    7.1728 O   0  0  0  0  0  0  0  0  0  0  0  0
    2.5347   -3.3968    6.8896 C   0  0  2  0  0  0  0  0  0  0  0  0
    3.0023   -2.4823    8.0224 C   0  0  1  0  0  0  0  0  0  0  0  0
    4.0925   -3.2217    8.8441 C   0  0  0  0  0  0  0  0  0  0  0  0
    3.3501   -1.0756    7.3987 C   0  0  2  0  0  0  0  0  0  0  0  0
    4.4298   -0.4583    8.3679 C   0  0  0  0  0  0  0  0  0  0  0  0
    0.0849    0.0898    7.3307 C   0  0  2  0  0  0  0  0  0  0  0  0
    0.1090    1.4242    6.6448 O   0  0  0  0  0  0  0  0  0  0  0  0
    1.3560    2.0160    6.0718 C   0  0  2  0  0  0  0  0  0  0  0  0
    1.0872    3.2763    5.1967 C   0  0  0  0  0  0  0  0  0  0  0  0
    0.2514    3.0650    3.9420 C   0  0  0  0  0  0  0  0  0  0  0  0
   -0.6842    3.9109    3.7157 N   0  0  0  0  0  0  0  0  0  0  0  0
   -1.3880    3.6715    2.4922 O   0  0  0  0  0  0  0  0  0  0  0  0
    0.7105    1.7998    3.1637 C   0  0  0  0  0  0  0  0  0  0  0  0
    2.1156    2.1057    2.5504 C   0  0  0  0  0  0  0  0  0  0  0  0
   -0.1177    1.3884    1.9221 C   0  0  0  0  0  0  0  0  0  0  0  0
   -2.5846   -0.0483    4.4611 H   0  0  0  0  0  0  0  0  0  0  0  0
   -1.9507    1.5735    4.2320 H   0  0  0  0  0  0  0  0  0  0  0  0
   -1.8913    0.7225    5.7762 H   0  0  0  0  0  0  0  0  0  0  0  0
    1.3027   -0.1369    3.5663 H   0  0  0  0  0  0  0  0  0  0  0  0
    2.4681    1.1257    4.7962 H   0  0  0  0  0  0  0  0  0  0  0  0
    1.7893   -0.4457    5.9474 H   0  0  0  0  0  0  0  0  0  0  0  0
    2.1846   -0.3436    9.6987 H   0  0  0  0  0  0  0  0  0  0  0  0
    1.4563    2.4484    8.6438 H   0  0  0  0  0  0  0  0  0  0  0  0
    2.9390    1.6175    8.9579 H   0  0  0  0  0  0  0  0  0  0  0  0
    3.0255    3.1769    6.9699 H   0  0  0  0  0  0  0  0  0  0  0  0
    4.0829    0.1440    4.4394 H   0  0  0  0  0  0  0  0  0  0  0  0
    6.0387    0.6487    4.8431 H   0  0  0  0  0  0  0  0  0  0  0  0
    4.6889   -2.0215    6.1572 H   0  0  0  0  0  0  0  0  0  0  0  0
    2.5294   -4.1983    4.2137 H   0  0  0  0  0  0  0  0  0  0  0  0
    4.1178   -3.4983    4.4652 H   0  0  0  0  0  0  0  0  0  0  0  0
    2.9299   -2.6424    3.4894 H   0  0  0  0  0  0  0  0  0  0  0  0
    0.8108   -1.7681    4.5833 H   0  0  0  0  0  0  0  0  0  0  0  0
    0.4272   -4.1500    5.4812 H   0  0  0  0  0  0  0  0  0  0  0  0
   -1.0787   -1.6115    6.3343 H   0  0  0  0  0  0  0  0  0  0  0  0
    1.3263   -3.7763    9.8430 H   0  0  0  0  0  0  0  0  0  0  0  0
    0.3900   -5.2133    9.4847 H   0  0  0  0  0  0  0  0  0  0  0  0
   -0.4155   -3.7251    9.9958 H   0  0  0  0  0  0  0  0  0  0  0  0
   -1.4718   -3.9716    6.5245 H   0  0  0  0  0  0  0  0  0  0  0  0
   -1.8334   -4.3991    8.1867 H   0  0  0  0  0  0  0  0  0  0  0  0
   -0.8208   -5.4648    7.2100 H   0  0  0  0  0  0  0  0  0  0  0  0
    3.3173   -4.1370    6.7226 H   0  0  0  0  0  0  0  0  0  0  0  0
    2.2228   -2.3228    8.7349 H   0  0  0  0  0  0  0  0  0  0  0  0
    5.0158   -3.3680    8.2815 H   0  0  0  0  0  0  0  0  0  0  0  0
    3.7379   -4.2092    9.1398 H   0  0  0  0  0  0  0  0  0  0  0  0
    4.3361   -2.7055    9.7732 H   0  0  0  0  0  0  0  0  0  0  0  0
    5.3561   -1.0325    8.3496 H   0  0  0  0  0  0  0  0  0  0  0  0
    4.0758   -0.4564    9.3987 H   0  0  0  0  0  0  0  0  0  0  0  0
    4.7575    0.5577    8.1884 H   0  0  0  0  0  0  0  0  0  0  0  0
   -0.7281    0.2109    8.0451 H   0  0  0  0  0  0  0  0  0  0  0  0
    0.6075    4.0257    5.8322 H   0  0  0  0  0  0  0  0  0  0  0  0
    2.0338    3.7271    4.8949 H   0  0  0  0  0  0  0  0  0  0  0  0
   -0.7528    3.9918    1.8098 H   0  0  0  0  0  0  0  0  0  0  0  0
    2.5585    1.2228    2.0817 H   0  0  0  0  0  0  0  0  0  0  0  0
    2.8557    2.4767    3.2613 H   0  0  0  0  0  0  0  0  0  0  0  0
    2.0530    2.8801    1.7802 H   0  0  0  0  0  0  0  0  0  0  0  0
    0.2555    0.4598    1.4933 H   0  0  0  0  0  0  0  0  0  0  0  0
   -0.0457    2.1238    1.1210 H   0  0  0  0  0  0  0  0  0  0  0  0
   -1.1729    1.2410    2.1362 H   0  0  0  0  0  0  0  0  0  0  0  0
  1  2  1  0
  1 39  1  0
  1 40  1  0
  1 41  1  0
  2  3  1  0
  3 36  1  0
  3  4  1  0
  3 42  1  6
  4 31  1  0
  4  5  1  0
  4 43  1  6
  5 27  1  0
  5  6  1  0
  5 44  1  6
  6 29  1  0
  6  7  1  1
  6  8  1  0
  7 45  1  0
  8  9  1  0
  8 46  1  0
  8 47  1  0
  9 31  1  0
  9 10  1  0
  9 48  1  1
 10 11  1  0
 11 12  1  0
 11 13  1  0
 11 49  1  6
 12 50  1  0
 13 27  1  0
 13 14  1  0
 13 51  1  1
 14 24  1  0
 14 15  1  6
 14 16  1  0
 15 52  1  0
 15 53  1  0
 15 54  1  0
 16 17  1  0
 16 18  1  0
 16 55  1  6
 17 56  1  0
 18 19  1  0
 18 29  1  0
 18 57  1  6
 19 20  1  0
 20 21  1  0
 20 22  1  0
 20 23  1  0
 21 58  1  0
 21 59  1  0
 21 60  1  0
 22 61  1  0
 22 62  1  0
 22 63  1  0
 23 24  1  0
 24 25  1  0
 24 64  1  6
 25 26  1  0
 25 27  1  0
 25 65  1  1
 26 66  1  0
 26 67  1  0
 26 68  1  0
 27 28  1  1
 28 69  1  0
 28 70  1  0
 28 71  1  0
 29 30  1  0
 29 72  1  1
 30 31  1  0
 31 32  1  6
 32 33  1  0
 32 73  1  0
 32 74  1  0
 33 34  2  3
 33 36  1  0
 34 35  1  0
 35 75  1  0
 36 37  1  0
 36 38  1  0
 37 76  1  0
 37 77  1  0
 37 78  1  0
 38 79  1  0
 38 80  1  0
 38 81  1  0
M  END
>  <i_m_ct_stereo_status>  (69) 
1

>  <s_m_source_file>  (69) 
/var/tmp/pbs.5076255.sched01/tmppz0entnt/04_lepiep.sdf

>  <i_m_source_file_index>  (69) 
39

>  <i_lp_mmshare_version>  (69) 
48012

>  <i_f3d_flags>  (69) 
0

>  <s_epik_input>  (69) 
W09IXS9OPUMoXFtDSDJdMSlDKFtDSDNdKShbQ0gzXSlbQ0BIXShPW0NIM10pW0NAQEhdKFtDQF0xMjMpW0NAQEhdNFtDQF01KFtPSF0pW0NAQEhdKE8zKVtDQEhdNltDQEhdKFtPSF0pW0NAQF03KFtDSDNdKVtDQEhdKFtDQEhdKFtPSF0pT1tDQEBIXTJbQ0gyXTUpW0NAQF00KFtDSDNdKVtDQEhdKFtDSDNdKVtDQEhdN09DKE82KShbQ0gzXSlbQ0gzXQ==

>  <s_epik_cmdline>  (69) 
J2VwaWtfcHl0aG9uJywgJy1waHQnLCAnMi4wJywgJy1waCcsICc3LjAnLCAnLXRuJywgJzgnLCAnLW1hJywgJzIwMCcsICctaW1hZScsICc8aW5maWxlLm1hZT4nLCAnLW9tYWUnLCAnPG91dGZpbGUubWFlPic=

>  <r_lp_tautomer_probability>  (69) 
1

>  <r_epik_Ionization_Penalty>  (69) 
5.39925e-06

>  <r_epik_Ionization_Penalty_Charging>  (69) 
0

>  <r_epik_Ionization_Penalty_Neutral>  (69) 
5.39925e-06

>  <r_epik_State_Penalty>  (69) 
-0

>  <r_epik_Charging_Adjusted_Penalty>  (69) 
0

>  <i_epik_Tot_Q>  (69) 
0

>  <i_epik_Tot_abs_Q>  (69) 
0

>  <s_epik_Chemistry_Notes>  (69) 
This compound has an imine and may undergo hydrolysis. This compound contains an acetal/aminal-like group ( X-CH(R)-Y where X, Y are N, S, or O) that may be acid/base labile, releasing an aldehyde.

>  <s_lp_Force_Field>  (69) 
OPLS3e

>  <r_lp_Energy>  (69) 
511.679

>  <b_lp_Chiralities_Consistent>  (69) 
1

>  <s_lp_Variant>  (69) 
30:0-4

>  <s_i_glide_gridfile>  (69) 
pfpi4k_grid

>  <i_i_glide_lignum>  (69) 
39

>  <i_i_glide_rotatable_bonds>  (69) 
5

>  <r_i_docking_score>  (69) 
-2.82245

>  <r_i_glide_ligand_efficiency>  (69) 
-0.074275

>  <r_i_glide_ligand_efficiency_sa>  (69) 
-0.249711

>  <r_i_glide_ligand_efficiency_ln>  (69) 
-0.608603

>  <r_i_glide_gscore>  (69) 
-2.82245

>  <r_i_glide_lipo>  (69) 
0

>  <r_i_glide_hbond>  (69) 
-0.167688

>  <r_i_glide_metal>  (69) 
-0

>  <r_i_glide_rewards>  (69) 
-0.51064

>  <r_i_glide_evdw>  (69) 
-15.9753

>  <r_i_glide_ecoul>  (69) 
-7.65062

>  <r_i_glide_erotb>  (69) 
0.0714653

>  <r_i_glide_esite>  (69) 
-0.269229

>  <r_i_glide_emodel>  (69) 
-32.0513

>  <r_i_glide_energy>  (69) 
-23.6259

>  <r_i_glide_einternal>  (69) 
3.88604

>  <r_i_glide_intrahb_reward>  (69) 
-0.5

>  <i_i_glide_confnum>  (69) 
1

>  <i_i_glide_posenum>  (69) 
24

>  <r_i_glide_eff_state_penalty>  (69) 
0

>  <ligand_id>  (69) 
30

>  <original_smiles>  (69) 
COC1C2C3C4(O)CC5OC(O)C6C7(C)C(O)C(OC(C)(C)OC7C(C)C36C)C4OC52CC(=NO)C1(C)C

>  <smiles>  (69) 
[H]ON=C1C([H])([H])C23OC4([H])C5([H])OC(C([H])([H])[H])(C([H])([H])[H])OC6([H])C([H])(C([H])([H])[H])C7(C([H])([H])[H])C([H])(C2([H])C([H])(OC([H])([H])[H])C1(C([H])([H])[H])C([H])([H])[H])C4(O[H])C([H])([H])C3([H])OC([H])(O[H])C7([H])C6(C([H])([H])[H])C5([H])O[H]

$$$$
30:3:1
     RDKit          3D

 81 87  0  0  1  0  0  0  0  0999 V2000
   -1.7625    0.6427    4.7060 C   0  0  0  0  0  0  0  0  0  0  0  0
   -0.5614   -0.0223    4.2947 O   0  0  0  0  0  0  0  0  0  0  0  0
    0.7462    0.5983    4.1552 C   0  0  2  0  0  0  0  0  0  0  0  0
    1.7180    0.7984    5.4408 C   0  0  2  0  0  0  0  0  0  0  0  0
    2.1328   -0.1809    6.8654 C   0  0  2  0  0  0  0  0  0  0  0  0
    1.4006    0.3319    8.0480 C   0  0  1  0  0  0  0  0  0  0  0  0
    1.3657   -0.2724    9.3278 O   0  0  0  0  0  0  0  0  0  0  0  0
    2.1638    1.6962    8.2134 C   0  0  0  0  0  0  0  0  0  0  0  0
    2.7485    2.1453    6.8316 C   0  0  1  0  0  0  0  0  0  0  0  0
    4.0191    1.3849    6.2533 O   0  0  0  0  0  0  0  0  0  0  0  0
    4.3291    0.0724    5.4640 C   0  0  1  0  0  0  0  0  0  0  0  0
    5.7312   -0.0287    5.3843 O   0  0  0  0  0  0  0  0  0  0  0  0
    3.7874   -1.4097    6.0393 C   0  0  2  0  0  0  0  0  0  0  0  0
    2.5315   -2.5005    5.5968 C   0  0  2  0  0  0  0  0  0  0  0  0
    3.0322   -3.2540    4.3463 C   0  0  0  0  0  0  0  0  0  0  0  0
    0.8819   -2.2743    5.4913 C   0  0  1  0  0  0  0  0  0  0  0  0
    0.2048   -3.3623    4.8848 O   0  0  0  0  0  0  0  0  0  0  0  0
   -0.0565   -1.5063    6.6839 C   0  0  1  0  0  0  0  0  0  0  0  0
    0.0244   -2.2922    7.8914 O   0  0  0  0  0  0  0  0  0  0  0  0
    0.2265   -3.6896    7.9071 C   0  0  0  0  0  0  0  0  0  0  0  0
    0.4077   -4.1099    9.3830 C   0  0  0  0  0  0  0  0  0  0  0  0
   -1.0550   -4.4011    7.4125 C   0  0  0  0  0  0  0  0  0  0  0  0
    1.3464   -4.1761    7.1717 O   0  0  0  0  0  0  0  0  0  0  0  0
    2.5350   -3.3909    6.8640 C   0  0  2  0  0  0  0  0  0  0  0  0
    3.0126   -2.4792    7.9925 C   0  0  1  0  0  0  0  0  0  0  0  0
    4.1033   -3.2274    8.8057 C   0  0  0  0  0  0  0  0  0  0  0  0
    3.3643   -1.0783    7.3675 C   0  0  2  0  0  0  0  0  0  0  0  0
    4.4492   -0.4629    8.3271 C   0  0  0  0  0  0  0  0  0  0  0  0
    0.0920    0.1074    7.3234 C   0  0  2  0  0  0  0  0  0  0  0  0
    0.1198    1.4447    6.6372 O   0  0  0  0  0  0  0  0  0  0  0  0
    1.3700    2.0321    6.0533 C   0  0  2  0  0  0  0  0  0  0  0  0
    1.0992    3.2939    5.1814 C   0  0  0  0  0  0  0  0  0  0  0  0
    0.2530    3.0781    3.9275 C   0  0  0  0  0  0  0  0  0  0  0  0
   -0.6795    3.9383    3.6988 N   0  0  0  0  0  0  0  0  0  0  0  0
   -1.3853    3.7122    2.4805 O   0  0  0  0  0  0  0  0  0  0  0  0
    0.7100    1.8183    3.1458 C   0  0  0  0  0  0  0  0  0  0  0  0
    2.1142    2.1195    2.5286 C   0  0  0  0  0  0  0  0  0  0  0  0
   -0.1321    1.4102    1.9092 C   0  0  0  0  0  0  0  0  0  0  0  0
   -2.5870   -0.0179    4.4649 H   0  0  0  0  0  0  0  0  0  0  0  0
   -1.9507    1.5994    4.2258 H   0  0  0  0  0  0  0  0  0  0  0  0
   -1.8745    0.7635    5.7772 H   0  0  0  0  0  0  0  0  0  0  0  0
    1.2908   -0.1218    3.5472 H   0  0  0  0  0  0  0  0  0  0  0  0
    2.4724    1.1264    4.7701 H   0  0  0  0  0  0  0  0  0  0  0  0
    1.7896   -0.4404    5.9343 H   0  0  0  0  0  0  0  0  0  0  0  0
    0.8744    0.2858    9.9090 H   0  0  0  0  0  0  0  0  0  0  0  0
    1.4972    2.4611    8.6293 H   0  0  0  0  0  0  0  0  0  0  0  0
    2.9724    1.6101    8.9298 H   0  0  0  0  0  0  0  0  0  0  0  0
    3.0515    3.1830    6.9432 H   0  0  0  0  0  0  0  0  0  0  0  0
    4.0840    0.1448    4.4045 H   0  0  0  0  0  0  0  0  0  0  0  0
    6.0429    0.6788    4.8435 H   0  0  0  0  0  0  0  0  0  0  0  0
    4.6835   -2.0246    6.1132 H   0  0  0  0  0  0  0  0  0  0  0  0
    2.5085   -4.1953    4.1833 H   0  0  0  0  0  0  0  0  0  0  0  0
    4.0930   -3.4957    4.4220 H   0  0  0  0  0  0  0  0  0  0  0  0
    2.9069   -2.6365    3.4557 H   0  0  0  0  0  0  0  0  0  0  0  0
    0.8104   -1.7469    4.5767 H   0  0  0  0  0  0  0  0  0  0  0  0
    0.7020   -3.6371    4.1312 H   0  0  0  0  0  0  0  0  0  0  0  0
   -1.0813   -1.5896    6.3293 H   0  0  0  0  0  0  0  0  0  0  0  0
    1.3390   -3.7659    9.8200 H   0  0  0  0  0  0  0  0  0  0  0  0
    0.3935   -5.1964    9.4685 H   0  0  0  0  0  0  0  0  0  0  0  0
   -0.4036   -3.7052    9.9877 H   0  0  0  0  0  0  0  0  0  0  0  0
   -1.4711   -3.9489    6.5176 H   0  0  0  0  0  0  0  0  0  0  0  0
   -1.8313   -4.3775    8.1784 H   0  0  0  0  0  0  0  0  0  0  0  0
   -0.8270   -5.4439    7.1938 H   0  0  0  0  0  0  0  0  0  0  0  0
    3.3077   -4.1369    6.6879 H   0  0  0  0  0  0  0  0  0  0  0  0
    2.2383   -2.3095    8.7100 H   0  0  0  0  0  0  0  0  0  0  0  0
    5.0216   -3.3785    8.2365 H   0  0  0  0  0  0  0  0  0  0  0  0
    3.7454   -4.2127    9.1016 H   0  0  0  0  0  0  0  0  0  0  0  0
    4.3540   -2.7133    9.7325 H   0  0  0  0  0  0  0  0  0  0  0  0
    5.3728   -1.0428    8.3057 H   0  0  0  0  0  0  0  0  0  0  0  0
    4.0928   -0.4611    9.3577 H   0  0  0  0  0  0  0  0  0  0  0  0
    4.7793    0.5521    8.1473 H   0  0  0  0  0  0  0  0  0  0  0  0
   -0.7206    0.2308    8.0307 H   0  0  0  0  0  0  0  0  0  0  0  0
    0.6294    4.0431    5.8170 H   0  0  0  0  0  0  0  0  0  0  0  0
    2.0479    3.7377    4.8718 H   0  0  0  0  0  0  0  0  0  0  0  0
   -0.7545    4.0251    1.8076 H   0  0  0  0  0  0  0  0  0  0  0  0
    2.5488    1.2363    2.0581 H   0  0  0  0  0  0  0  0  0  0  0  0
    2.8558    2.4846    3.2370 H   0  0  0  0  0  0  0  0  0  0  0  0
    2.0499    2.8937    1.7610 H   0  0  0  0  0  0  0  0  0  0  0  0
    0.2326    0.4818    1.4786 H   0  0  0  0  0  0  0  0  0  0  0  0
   -0.0610    2.1458    1.1099 H   0  0  0  0  0  0  0  0  0  0  0  0
   -1.1864    1.2695    2.1294 H   0  0  0  0  0  0  0  0  0  0  0  0
  1  2  1  0
  1 39  1  0
  1 40  1  0
  1 41  1  0
  2  3  1  0
  3 36  1  0
  3  4  1  0
  3 42  1  6
  4 31  1  0
  4  5  1  0
  4 43  1  6
  5 27  1  0
  5  6  1  0
  5 44  1  6
  6 29  1  0
  6  7  1  1
  6  8  1  0
  7 45  1  0
  8  9  1  0
  8 46  1  0
  8 47  1  0
  9 31  1  0
  9 10  1  0
  9 48  1  1
 10 11  1  0
 11 12  1  0
 11 13  1  0
 11 49  1  6
 12 50  1  0
 13 27  1  0
 13 14  1  0
 13 51  1  1
 14 24  1  0
 14 15  1  6
 14 16  1  0
 15 52  1  0
 15 53  1  0
 15 54  1  0
 16 17  1  0
 16 18  1  0
 16 55  1  6
 17 56  1  0
 18 19  1  0
 18 29  1  0
 18 57  1  6
 19 20  1  0
 20 21  1  0
 20 22  1  0
 20 23  1  0
 21 58  1  0
 21 59  1  0
 21 60  1  0
 22 61  1  0
 22 62  1  0
 22 63  1  0
 23 24  1  0
 24 25  1  0
 24 64  1  6
 25 26  1  0
 25 27  1  0
 25 65  1  1
 26 66  1  0
 26 67  1  0
 26 68  1  0
 27 28  1  1
 28 69  1  0
 28 70  1  0
 28 71  1  0
 29 30  1  0
 29 72  1  1
 30 31  1  0
 31 32  1  6
 32 33  1  0
 32 73  1  0
 32 74  1  0
 33 34  2  3
 33 36  1  0
 34 35  1  0
 35 75  1  0
 36 37  1  0
 36 38  1  0
 37 76  1  0
 37 77  1  0
 37 78  1  0
 38 79  1  0
 38 80  1  0
 38 81  1  0
M  END
>  <i_m_ct_stereo_status>  (70) 
1

>  <s_m_source_file>  (70) 
/var/tmp/pbs.5076255.sched01/tmppz0entnt/04_lepiep.sdf

>  <i_m_source_file_index>  (70) 
39

>  <i_lp_mmshare_version>  (70) 
48012

>  <i_f3d_flags>  (70) 
0

>  <s_epik_input>  (70) 
W09IXS9OPUMoXFtDSDJdMSlDKFtDSDNdKShbQ0gzXSlbQ0BIXShPW0NIM10pW0NAQEhdKFtDQF0xMjMpW0NAQEhdNFtDQF01KFtPSF0pW0NAQEhdKE8zKVtDQEhdNltDQEhdKFtPSF0pW0NAQF03KFtDSDNdKVtDQEhdKFtDQEhdKFtPSF0pT1tDQEBIXTJbQ0gyXTUpW0NAQF00KFtDSDNdKVtDQEhdKFtDSDNdKVtDQEhdN09DKE82KShbQ0gzXSlbQ0gzXQ==

>  <s_epik_cmdline>  (70) 
J2VwaWtfcHl0aG9uJywgJy1waHQnLCAnMi4wJywgJy1waCcsICc3LjAnLCAnLXRuJywgJzgnLCAnLW1hJywgJzIwMCcsICctaW1hZScsICc8aW5maWxlLm1hZT4nLCAnLW9tYWUnLCAnPG91dGZpbGUubWFlPic=

>  <r_lp_tautomer_probability>  (70) 
1

>  <r_epik_Ionization_Penalty>  (70) 
5.39925e-06

>  <r_epik_Ionization_Penalty_Charging>  (70) 
0

>  <r_epik_Ionization_Penalty_Neutral>  (70) 
5.39925e-06

>  <r_epik_State_Penalty>  (70) 
-0

>  <r_epik_Charging_Adjusted_Penalty>  (70) 
0

>  <i_epik_Tot_Q>  (70) 
0

>  <i_epik_Tot_abs_Q>  (70) 
0

>  <s_epik_Chemistry_Notes>  (70) 
This compound has an imine and may undergo hydrolysis. This compound contains an acetal/aminal-like group ( X-CH(R)-Y where X, Y are N, S, or O) that may be acid/base labile, releasing an aldehyde.

>  <s_lp_Force_Field>  (70) 
OPLS3e

>  <r_lp_Energy>  (70) 
511.679

>  <b_lp_Chiralities_Consistent>  (70) 
1

>  <s_lp_Variant>  (70) 
30:0-4

>  <s_i_glide_gridfile>  (70) 
pfpi4k_grid

>  <i_i_glide_lignum>  (70) 
39

>  <i_i_glide_rotatable_bonds>  (70) 
5

>  <r_i_docking_score>  (70) 
-2.5806

>  <r_i_glide_ligand_efficiency>  (70) 
-0.0679106

>  <r_i_glide_ligand_efficiency_sa>  (70) 
-0.228314

>  <r_i_glide_ligand_efficiency_ln>  (70) 
-0.556454

>  <r_i_glide_gscore>  (70) 
-2.5806

>  <r_i_glide_lipo>  (70) 
-1.03489e-05

>  <r_i_glide_hbond>  (70) 
-0.161549

>  <r_i_glide_metal>  (70) 
-0

>  <r_i_glide_rewards>  (70) 
-0.0110962

>  <r_i_glide_evdw>  (70) 
-15.5616

>  <r_i_glide_ecoul>  (70) 
-9.52206

>  <r_i_glide_erotb>  (70) 
0.0714653

>  <r_i_glide_esite>  (70) 
-0.273026

>  <r_i_glide_emodel>  (70) 
-28.0661

>  <r_i_glide_energy>  (70) 
-25.0836

>  <r_i_glide_einternal>  (70) 
4.01651

>  <r_i_glide_intrahb_reward>  (70) 
-0

>  <i_i_glide_confnum>  (70) 
1

>  <i_i_glide_posenum>  (70) 
28

>  <r_i_glide_eff_state_penalty>  (70) 
0

>  <ligand_id>  (70) 
30

>  <original_smiles>  (70) 
COC1C2C3C4(O)CC5OC(O)C6C7(C)C(O)C(OC(C)(C)OC7C(C)C36C)C4OC52CC(=NO)C1(C)C

>  <smiles>  (70) 
[H]ON=C1C([H])([H])C23OC4([H])C5([H])OC(C([H])([H])[H])(C([H])([H])[H])OC6([H])C([H])(C([H])([H])[H])C7(C([H])([H])[H])C([H])(C2([H])C([H])(OC([H])([H])[H])C1(C([H])([H])[H])C([H])([H])[H])C4(O[H])C([H])([H])C3([H])OC([H])(O[H])C7([H])C6(C([H])([H])[H])C5([H])O[H]

$$$$
31:0:0
     RDKit          3D

 49 53  0  0  1  0  0  0  0  0999 V2000
    3.7460   -5.8887    0.4073 C   0  0  0  0  0  0  0  0  0  0  0  0
    2.5544   -4.9922    0.0902 C   0  0  0  0  0  0  0  0  0  0  0  0
    1.4166   -5.4629    0.1026 O   0  0  0  0  0  0  0  0  0  0  0  0
    2.7597   -3.4814   -0.2442 C   0  0  2  0  0  0  0  0  0  0  0  0
    3.7377   -3.2604   -1.5114 C   0  0  1  0  0  0  0  0  0  0  0  0
    3.0245   -2.5903   -2.7032 C   0  0  0  0  0  0  0  0  0  0  0  0
    5.1734   -2.5550   -1.2985 C   0  0  0  0  0  0  0  0  0  0  0  0
    5.8106   -2.6098    0.1580 C   0  0  1  0  0  0  0  0  0  0  0  0
    6.6734   -3.9564    0.4707 C   0  0  0  0  0  0  0  0  0  0  0  0
    6.5037   -4.7959    1.8736 C   0  0  0  0  0  0  0  0  0  0  0  0
    5.5091   -4.2191    3.0156 C   0  0  2  0  0  0  0  0  0  0  0  0
    4.0809   -4.7257    3.5786 C   0  0  0  0  0  0  0  0  0  0  0  0
    2.7765   -3.8409    3.1802 C   0  0  0  0  0  0  0  0  0  0  0  0
    3.0303   -2.4978    2.4459 N   0  0  1  0  0  0  0  0  0  0  0  0
    4.3821   -1.9379    2.9476 C   0  0  2  0  0  0  0  0  0  0  0  0
    5.3232   -0.7583    2.2353 C   0  0  1  0  0  0  0  0  0  0  0  0
    6.1596   -0.2548    3.2386 O   0  0  0  0  0  0  0  0  0  0  0  0
    6.3091   -1.2429    0.9544 C   0  0  0  0  0  0  0  0  0  0  0  0
    5.1173   -3.0045    2.3204 C   0  0  1  0  0  0  0  0  0  0  0  0
    4.6272   -2.8176    0.9315 C   0  0  2  0  0  0  0  0  0  0  0  0
    3.1574   -2.5021    0.9142 C   0  0  1  0  0  0  0  0  0  0  0  0
    4.5332   -5.7316   -0.3385 H   0  0  0  0  0  0  0  0  0  0  0  0
    3.4414   -6.9622    0.4090 H   0  0  0  0  0  0  0  0  0  0  0  0
    4.1037   -5.6079    1.3598 H   0  0  0  0  0  0  0  0  0  0  0  0
    1.7811   -3.1477   -0.5692 H   0  0  0  0  0  0  0  0  0  0  0  0
    3.9665   -4.2534   -1.8807 H   0  0  0  0  0  0  0  0  0  0  0  0
    2.7578   -1.5569   -2.4971 H   0  0  0  0  0  0  0  0  0  0  0  0
    2.1190   -3.1205   -2.9939 H   0  0  0  0  0  0  0  0  0  0  0  0
    3.6730   -2.5869   -3.5769 H   0  0  0  0  0  0  0  0  0  0  0  0
    5.8734   -2.9998   -1.9953 H   0  0  0  0  0  0  0  0  0  0  0  0
    5.0998   -1.5046   -1.5965 H   0  0  0  0  0  0  0  0  0  0  0  0
    6.5161   -4.6792   -0.3293 H   0  0  0  0  0  0  0  0  0  0  0  0
    7.7261   -3.7140    0.3816 H   0  0  0  0  0  0  0  0  0  0  0  0
    6.2611   -5.8401    1.6669 H   0  0  0  0  0  0  0  0  0  0  0  0
    7.4854   -4.8404    2.3382 H   0  0  0  0  0  0  0  0  0  0  0  0
    6.0920   -3.9881    3.9059 H   0  0  0  0  0  0  0  0  0  0  0  0
    3.9052   -5.7682    3.3378 H   0  0  0  0  0  0  0  0  0  0  0  0
    4.1553   -4.7280    4.6610 H   0  0  0  0  0  0  0  0  0  0  0  0
    2.0286   -4.4378    2.6612 H   0  0  0  0  0  0  0  0  0  0  0  0
    2.3035   -3.5723    4.1177 H   0  0  0  0  0  0  0  0  0  0  0  0
    4.4398   -1.9404    4.0527 H   0  0  0  0  0  0  0  0  0  0  0  0
    4.6574    0.0377    1.8979 H   0  0  0  0  0  0  0  0  0  0  0  0
    6.8636    0.2220    2.7996 H   0  0  0  0  0  0  0  0  0  0  0  0
    7.3264   -1.4440    1.3089 H   0  0  0  0  0  0  0  0  0  0  0  0
    6.3797   -0.4248    0.2263 H   0  0  0  0  0  0  0  0  0  0  0  0
    4.6510   -3.8261    1.8078 H   0  0  0  0  0  0  0  0  0  0  0  0
    4.3976   -1.8337    0.5438 H   0  0  0  0  0  0  0  0  0  0  0  0
    2.6925   -1.5135    0.6558 H   0  0  0  0  0  0  0  0  0  0  0  0
    2.2603   -1.8774    2.6920 H   0  0  0  0  0  0  0  0  0  0  0  0
  1  2  1  0
  1 22  1  0
  1 23  1  0
  1 24  1  0
  2  3  2  0
  2  4  1  0
  4 21  1  0
  4  5  1  0
  4 25  1  6
  5  6  1  0
  5  7  1  0
  5 26  1  6
  6 27  1  0
  6 28  1  0
  6 29  1  0
  8  7  1  6
  7 30  1  0
  7 31  1  0
  8 18  1  0
  8 20  1  0
  8  9  1  0
  9 10  1  0
  9 32  1  0
  9 33  1  0
 10 11  1  0
 10 34  1  0
 10 35  1  0
 11 19  1  0
 11 12  1  0
 11 36  1  1
 12 13  1  0
 12 37  1  0
 12 38  1  0
 13 14  1  0
 13 39  1  0
 13 40  1  0
 14 21  1  0
 14 15  1  0
 14 49  1  6
 15 16  1  0
 15 19  1  0
 15 41  1  1
 16 17  1  0
 16 18  1  0
 16 42  1  6
 17 43  1  0
 18 44  1  0
 18 45  1  0
 19 20  1  0
 19 46  1  6
 20 21  1  0
 20 47  1  6
 21 48  1  6
M  CHG  1  14   1
M  END
>  <i_m_ct_stereo_status>  (71) 
1

>  <s_m_source_file>  (71) 
/var/tmp/pbs.5076255.sched01/tmppz0entnt/04_lepiep.sdf

>  <i_m_source_file_index>  (71) 
40

>  <i_lp_mmshare_version>  (71) 
48012

>  <i_f3d_flags>  (71) 
0

>  <s_epik_input>  (71) 
W0NIM11DKD1PKVtDQEhdKFtDQEBIXShbQ0gzXSlbQ0gyXTEpW0NASF0yTihbQ0BASF0zW0NAQEhdKFtPSF0pW0NIMl00KVtDSDJdW0NIMl1bQ0BASF0oW0NIMl1bQ0gyXTUpW0NAQEhdM1tDQEhdMltDQEBdMTQ1

>  <s_epik_cmdline>  (71) 
J2VwaWtfcHl0aG9uJywgJy1waHQnLCAnMi4wJywgJy1waCcsICc3LjAnLCAnLXRuJywgJzgnLCAnLW1hJywgJzIwMCcsICctaW1hZScsICc8aW5maWxlLm1hZT4nLCAnLW9tYWUnLCAnPG91dGZpbGUubWFlPic=

>  <r_lp_tautomer_probability>  (71) 
1

>  <r_epik_Ionization_Penalty>  (71) 
0.00126565

>  <r_epik_Ionization_Penalty_Charging>  (71) 
0.00126565

>  <r_epik_Ionization_Penalty_Neutral>  (71) 
3.81205e-09

>  <r_epik_State_Penalty>  (71) 
0.000838245

>  <r_epik_Charging_Adjusted_Penalty>  (71) 
0.00210389

>  <i_epik_Tot_Q>  (71) 
1

>  <i_epik_Tot_abs_Q>  (71) 
1

>  <s_lp_Force_Field>  (71) 
OPLS3e

>  <r_lp_Energy>  (71) 
356.104

>  <b_lp_Chiralities_Consistent>  (71) 
1

>  <s_lp_Variant>  (71) 
31:0-1

>  <s_i_glide_gridfile>  (71) 
pfpi4k_grid

>  <i_i_glide_lignum>  (71) 
40

>  <i_i_glide_rotatable_bonds>  (71) 
2

>  <r_i_docking_score>  (71) 
-4.77035

>  <r_i_glide_ligand_efficiency>  (71) 
-0.227159

>  <r_i_glide_ligand_efficiency_sa>  (71) 
-0.626715

>  <r_i_glide_ligand_efficiency_ln>  (71) 
-1.17946

>  <r_i_glide_gscore>  (71) 
-4.77035

>  <r_i_glide_lipo>  (71) 
-0.569258

>  <r_i_glide_hbond>  (71) 
-0.436244

>  <r_i_glide_metal>  (71) 
-0

>  <r_i_glide_rewards>  (71) 
-1.42895

>  <r_i_glide_evdw>  (71) 
-17.7993

>  <r_i_glide_ecoul>  (71) 
-9.26185

>  <r_i_glide_erotb>  (71) 
0

>  <r_i_glide_esite>  (71) 
-0.0566509

>  <r_i_glide_emodel>  (71) 
-32.9897

>  <r_i_glide_energy>  (71) 
-27.0611

>  <r_i_glide_einternal>  (71) 
1.91586

>  <r_i_glide_intrahb_reward>  (71) 
-0

>  <i_i_glide_confnum>  (71) 
1

>  <i_i_glide_posenum>  (71) 
4

>  <r_i_glide_eff_state_penalty>  (71) 
0

>  <ligand_id>  (71) 
31

>  <original_smiles>  (71) 
CC(=O)C1C(C)CC23CCC4CCN5C(C(O)C2)C4C3C15

>  <smiles>  (71) 
[H]OC1([H])C([H])([H])C23C([H])([H])C([H])([H])C4([H])C([H])([H])C([H])([H])[N+]5([H])C1([H])C4([H])C2([H])C5([H])C([H])(C(=O)C([H])([H])[H])C([H])(C([H])([H])[H])C3([H])[H]

$$$$
31:0:1
     RDKit          3D

 49 53  0  0  1  0  0  0  0  0999 V2000
    3.7723   -5.9283    0.3947 C   0  0  0  0  0  0  0  0  0  0  0  0
    2.5310   -5.0663    0.0927 C   0  0  0  0  0  0  0  0  0  0  0  0
    1.4114   -5.5856    0.0995 O   0  0  0  0  0  0  0  0  0  0  0  0
    2.6769   -3.5662   -0.2234 C   0  0  2  0  0  0  0  0  0  0  0  0
    3.6904   -3.2773   -1.4501 C   0  0  1  0  0  0  0  0  0  0  0  0
    2.9893   -2.6295   -2.6588 C   0  0  0  0  0  0  0  0  0  0  0  0
    5.0804   -2.4987   -1.1818 C   0  0  0  0  0  0  0  0  0  0  0  0
    5.6679   -2.5369    0.2940 C   0  0  1  0  0  0  0  0  0  0  0  0
    6.5859   -3.8407    0.6173 C   0  0  0  0  0  0  0  0  0  0  0  0
    6.4151   -4.7042    2.0072 C   0  0  0  0  0  0  0  0  0  0  0  0
    5.3579   -4.1900    3.1319 C   0  0  2  0  0  0  0  0  0  0  0  0
    3.9369   -4.7830    3.6174 C   0  0  0  0  0  0  0  0  0  0  0  0
    2.5934   -3.9620    3.1943 C   0  0  0  0  0  0  0  0  0  0  0  0
    2.8045   -2.6064    2.4803 N   0  0  1  0  0  0  0  0  0  0  0  0
    4.1013   -1.9795    3.0388 C   0  0  2  0  0  0  0  0  0  0  0  0
    4.9980   -0.7356    2.3719 C   0  0  1  0  0  0  0  0  0  0  0  0
    5.7905   -0.2228    3.4179 O   0  0  0  0  0  0  0  0  0  0  0  0
    6.0577   -1.1506    1.1289 C   0  0  0  0  0  0  0  0  0  0  0  0
    4.9190   -2.9936    2.4299 C   0  0  1  0  0  0  0  0  0  0  0  0
    4.4727   -2.8250    1.0245 C   0  0  2  0  0  0  0  0  0  0  0  0
    2.9835   -2.5785    0.9592 C   0  0  1  0  0  0  0  0  0  0  0  0
    4.5483   -5.7305   -0.3499 H   0  0  0  0  0  0  0  0  0  0  0  0
    3.5392   -7.0095    0.3743 H   0  0  0  0  0  0  0  0  0  0  0  0
    4.1429   -5.6499    1.3506 H   0  0  0  0  0  0  0  0  0  0  0  0
    1.6954   -3.2786   -0.5845 H   0  0  0  0  0  0  0  0  0  0  0  0
    3.9876   -4.2538   -1.8278 H   0  0  0  0  0  0  0  0  0  0  0  0
    2.6608   -1.6138   -2.4504 H   0  0  0  0  0  0  0  0  0  0  0  0
    2.1218   -3.2013   -2.9871 H   0  0  0  0  0  0  0  0  0  0  0  0
    3.6691   -2.5805   -3.5088 H   0  0  0  0  0  0  0  0  0  0  0  0
    5.8323   -2.8965   -1.8559 H   0  0  0  0  0  0  0  0  0  0  0  0
    4.9591   -1.4498   -1.4697 H   0  0  0  0  0  0  0  0  0  0  0  0
    6.4979   -4.5574   -0.2037 H   0  0  0  0  0  0  0  0  0  0  0  0
    7.6272   -3.5387    0.5788 H   0  0  0  0  0  0  0  0  0  0  0  0
    6.2281   -5.7579    1.7888 H   0  0  0  0  0  0  0  0  0  0  0  0
    7.3874   -4.7096    2.4870 H   0  0  0  0  0  0  0  0  0  0  0  0
    5.8914   -3.9141    4.0442 H   0  0  0  0  0  0  0  0  0  0  0  0
    3.8212   -5.8250    3.3325 H   0  0  0  0  0  0  0  0  0  0  0  0
    3.9676   -4.8045    4.7065 H   0  0  0  0  0  0  0  0  0  0  0  0
    1.8924   -4.5890    2.6465 H   0  0  0  0  0  0  0  0  0  0  0  0
    2.0829   -3.7281    4.1198 H   0  0  0  0  0  0  0  0  0  0  0  0
    4.1158   -1.9942    4.1472 H   0  0  0  0  0  0  0  0  0  0  0  0
    4.2961    0.0286    2.0267 H   0  0  0  0  0  0  0  0  0  0  0  0
    5.2214    0.1732    4.0591 H   0  0  0  0  0  0  0  0  0  0  0  0
    7.0643   -1.2982    1.5340 H   0  0  0  0  0  0  0  0  0  0  0  0
    6.1219   -0.3162    0.4188 H   0  0  0  0  0  0  0  0  0  0  0  0
    4.5164   -3.8259    1.8751 H   0  0  0  0  0  0  0  0  0  0  0  0
    4.2032   -1.8515    0.6373 H   0  0  0  0  0  0  0  0  0  0  0  0
    2.4862   -1.6079    0.7031 H   0  0  0  0  0  0  0  0  0  0  0  0
    1.9888   -2.0190    2.7052 H   0  0  0  0  0  0  0  0  0  0  0  0
  1  2  1  0
  1 22  1  0
  1 23  1  0
  1 24  1  0
  2  3  2  0
  2  4  1  0
  4 21  1  0
  4  5  1  0
  4 25  1  6
  5  6  1  0
  5  7  1  0
  5 26  1  6
  6 27  1  0
  6 28  1  0
  6 29  1  0
  8  7  1  6
  7 30  1  0
  7 31  1  0
  8 18  1  0
  8 20  1  0
  8  9  1  0
  9 10  1  0
  9 32  1  0
  9 33  1  0
 10 11  1  0
 10 34  1  0
 10 35  1  0
 11 19  1  0
 11 12  1  0
 11 36  1  1
 12 13  1  0
 12 37  1  0
 12 38  1  0
 13 14  1  0
 13 39  1  0
 13 40  1  0
 14 21  1  0
 14 15  1  0
 14 49  1  6
 15 16  1  0
 15 19  1  0
 15 41  1  1
 16 17  1  0
 16 18  1  0
 16 42  1  6
 17 43  1  0
 18 44  1  0
 18 45  1  0
 19 20  1  0
 19 46  1  6
 20 21  1  0
 20 47  1  6
 21 48  1  6
M  CHG  1  14   1
M  END
>  <i_m_ct_stereo_status>  (72) 
1

>  <s_m_source_file>  (72) 
/var/tmp/pbs.5076255.sched01/tmppz0entnt/04_lepiep.sdf

>  <i_m_source_file_index>  (72) 
40

>  <i_lp_mmshare_version>  (72) 
48012

>  <i_f3d_flags>  (72) 
0

>  <s_epik_input>  (72) 
W0NIM11DKD1PKVtDQEhdKFtDQEBIXShbQ0gzXSlbQ0gyXTEpW0NASF0yTihbQ0BASF0zW0NAQEhdKFtPSF0pW0NIMl00KVtDSDJdW0NIMl1bQ0BASF0oW0NIMl1bQ0gyXTUpW0NAQEhdM1tDQEhdMltDQEBdMTQ1

>  <s_epik_cmdline>  (72) 
J2VwaWtfcHl0aG9uJywgJy1waHQnLCAnMi4wJywgJy1waCcsICc3LjAnLCAnLXRuJywgJzgnLCAnLW1hJywgJzIwMCcsICctaW1hZScsICc8aW5maWxlLm1hZT4nLCAnLW9tYWUnLCAnPG91dGZpbGUubWFlPic=

>  <r_lp_tautomer_probability>  (72) 
1

>  <r_epik_Ionization_Penalty>  (72) 
0.00126565

>  <r_epik_Ionization_Penalty_Charging>  (72) 
0.00126565

>  <r_epik_Ionization_Penalty_Neutral>  (72) 
3.81205e-09

>  <r_epik_State_Penalty>  (72) 
0.000838245

>  <r_epik_Charging_Adjusted_Penalty>  (72) 
0.00210389

>  <i_epik_Tot_Q>  (72) 
1

>  <i_epik_Tot_abs_Q>  (72) 
1

>  <s_lp_Force_Field>  (72) 
OPLS3e

>  <r_lp_Energy>  (72) 
356.104

>  <b_lp_Chiralities_Consistent>  (72) 
1

>  <s_lp_Variant>  (72) 
31:0-1

>  <s_i_glide_gridfile>  (72) 
pfpi4k_grid

>  <i_i_glide_lignum>  (72) 
40

>  <i_i_glide_rotatable_bonds>  (72) 
2

>  <r_i_docking_score>  (72) 
-4.25683

>  <r_i_glide_ligand_efficiency>  (72) 
-0.202706

>  <r_i_glide_ligand_efficiency_sa>  (72) 
-0.559251

>  <r_i_glide_ligand_efficiency_ln>  (72) 
-1.05249

>  <r_i_glide_gscore>  (72) 
-4.25683

>  <r_i_glide_lipo>  (72) 
-0.588467

>  <r_i_glide_hbond>  (72) 
-0.126612

>  <r_i_glide_metal>  (72) 
-0

>  <r_i_glide_rewards>  (72) 
-1.42895

>  <r_i_glide_evdw>  (72) 
-19.3035

>  <r_i_glide_ecoul>  (72) 
-7.24735

>  <r_i_glide_erotb>  (72) 
0

>  <r_i_glide_esite>  (72) 
-0.0605222

>  <r_i_glide_emodel>  (72) 
-31.8111

>  <r_i_glide_energy>  (72) 
-26.5509

>  <r_i_glide_einternal>  (72) 
1.76051

>  <r_i_glide_intrahb_reward>  (72) 
-0

>  <i_i_glide_confnum>  (72) 
2

>  <i_i_glide_posenum>  (72) 
7

>  <r_i_glide_eff_state_penalty>  (72) 
0

>  <ligand_id>  (72) 
31

>  <original_smiles>  (72) 
CC(=O)C1C(C)CC23CCC4CCN5C(C(O)C2)C4C3C15

>  <smiles>  (72) 
[H]OC1([H])C([H])([H])C23C([H])([H])C([H])([H])C4([H])C([H])([H])C([H])([H])[N+]5([H])C1([H])C4([H])C2([H])C5([H])C([H])(C(=O)C([H])([H])[H])C([H])(C([H])([H])[H])C3([H])[H]

$$$$
31:0:2
     RDKit          3D

 49 53  0  0  1  0  0  0  0  0999 V2000
    3.5565   -5.8141    0.5385 C   0  0  0  0  0  0  0  0  0  0  0  0
    2.4787   -4.9294   -0.0959 C   0  0  0  0  0  0  0  0  0  0  0  0
    1.3572   -5.3657   -0.3164 O   0  0  0  0  0  0  0  0  0  0  0  0
    2.8122   -3.4703   -0.4737 C   0  0  2  0  0  0  0  0  0  0  0  0
    3.9994   -3.3756   -1.5719 C   0  0  1  0  0  0  0  0  0  0  0  0
    3.5183   -2.7701   -2.9052 C   0  0  0  0  0  0  0  0  0  0  0  0
    5.4163   -2.7102   -1.1797 C   0  0  0  0  0  0  0  0  0  0  0  0
    5.8034   -2.6799    0.3595 C   0  0  1  0  0  0  0  0  0  0  0  0
    6.5522   -4.0220    0.8882 C   0  0  0  0  0  0  0  0  0  0  0  0
    6.1112   -4.7731    2.2785 C   0  0  0  0  0  0  0  0  0  0  0  0
    5.0118   -4.0632    3.2462 C   0  0  2  0  0  0  0  0  0  0  0  0
    3.4814   -4.4846    3.6240 C   0  0  0  0  0  0  0  0  0  0  0  0
    2.2814   -3.6010    2.9536 C   0  0  0  0  0  0  0  0  0  0  0  0
    2.7034   -2.3326    2.1654 N   0  0  1  0  0  0  0  0  0  0  0  0
    3.9810   -1.7697    2.8471 C   0  0  2  0  0  0  0  0  0  0  0  0
    5.0685   -0.6800    2.2221 C   0  0  1  0  0  0  0  0  0  0  0  0
    5.7559   -0.1273    3.3237 O   0  0  0  0  0  0  0  0  0  0  0  0
    6.2205   -1.2679    1.1417 C   0  0  0  0  0  0  0  0  0  0  0  0
    4.7607   -2.9136    2.3997 C   0  0  1  0  0  0  0  0  0  0  0  0
    4.5022   -2.8073    0.9491 C   0  0  2  0  0  0  0  0  0  0  0  0
    3.0681   -2.4347    0.6742 C   0  0  1  0  0  0  0  0  0  0  0  0
    4.5085   -5.7263   -0.0016 H   0  0  0  0  0  0  0  0  0  0  0  0
    3.2542   -6.8790    0.5965 H   0  0  0  0  0  0  0  0  0  0  0  0
    3.6920   -5.4194    1.5159 H   0  0  0  0  0  0  0  0  0  0  0  0
    1.9094   -3.1289   -0.9668 H   0  0  0  0  0  0  0  0  0  0  0  0
    4.2505   -4.4062   -1.8255 H   0  0  0  0  0  0  0  0  0  0  0  0
    3.2656   -1.7166   -2.8051 H   0  0  0  0  0  0  0  0  0  0  0  0
    2.6468   -3.2856   -3.3051 H   0  0  0  0  0  0  0  0  0  0  0  0
    4.2962   -2.8412   -3.6632 H   0  0  0  0  0  0  0  0  0  0  0  0
    6.2020   -3.2073   -1.7308 H   0  0  0  0  0  0  0  0  0  0  0  0
    5.4191   -1.6763   -1.5406 H   0  0  0  0  0  0  0  0  0  0  0  0
    6.5138   -4.7869    0.1049 H   0  0  0  0  0  0  0  0  0  0  0  0
    7.6155   -3.8127    0.9665 H   0  0  0  0  0  0  0  0  0  0  0  0
    5.8615   -5.8212    2.1169 H   0  0  0  0  0  0  0  0  0  0  0  0
    7.0149   -4.8319    2.8672 H   0  0  0  0  0  0  0  0  0  0  0  0
    5.4926   -3.7743    4.1804 H   0  0  0  0  0  0  0  0  0  0  0  0
    3.3098   -5.5391    3.4592 H   0  0  0  0  0  0  0  0  0  0  0  0
    3.3835   -4.3980    4.7013 H   0  0  0  0  0  0  0  0  0  0  0  0
    1.6181   -4.2179    2.3587 H   0  0  0  0  0  0  0  0  0  0  0  0
    1.6706   -3.2483    3.7721 H   0  0  0  0  0  0  0  0  0  0  0  0
    3.8559   -1.7004    3.9324 H   0  0  0  0  0  0  0  0  0  0  0  0
    4.5016    0.1194    1.7446 H   0  0  0  0  0  0  0  0  0  0  0  0
    6.2566   -0.8144    3.7408 H   0  0  0  0  0  0  0  0  0  0  0  0
    7.1576   -1.4612    1.6648 H   0  0  0  0  0  0  0  0  0  0  0  0
    6.4416   -0.5025    0.3923 H   0  0  0  0  0  0  0  0  0  0  0  0
    4.3195   -3.7397    1.8952 H   0  0  0  0  0  0  0  0  0  0  0  0
    4.3779   -1.8454    0.4643 H   0  0  0  0  0  0  0  0  0  0  0  0
    2.6921   -1.4525    0.3013 H   0  0  0  0  0  0  0  0  0  0  0  0
    1.9253   -1.6558    2.2429 H   0  0  0  0  0  0  0  0  0  0  0  0
  1  2  1  0
  1 22  1  0
  1 23  1  0
  1 24  1  0
  2  3  2  0
  2  4  1  0
  4 21  1  0
  4  5  1  0
  4 25  1  6
  5  6  1  0
  5  7  1  0
  5 26  1  6
  6 27  1  0
  6 28  1  0
  6 29  1  0
  8  7  1  6
  7 30  1  0
  7 31  1  0
  8 18  1  0
  8 20  1  0
  8  9  1  0
  9 10  1  0
  9 32  1  0
  9 33  1  0
 10 11  1  0
 10 34  1  0
 10 35  1  0
 11 19  1  0
 11 12  1  0
 11 36  1  1
 12 13  1  0
 12 37  1  0
 12 38  1  0
 13 14  1  0
 13 39  1  0
 13 40  1  0
 14 21  1  0
 14 15  1  0
 14 49  1  6
 15 16  1  0
 15 19  1  0
 15 41  1  1
 16 17  1  0
 16 18  1  0
 16 42  1  6
 17 43  1  0
 18 44  1  0
 18 45  1  0
 19 20  1  0
 19 46  1  6
 20 21  1  0
 20 47  1  6
 21 48  1  6
M  CHG  1  14   1
M  END
>  <i_m_ct_stereo_status>  (73) 
1

>  <s_m_source_file>  (73) 
/var/tmp/pbs.5076255.sched01/tmppz0entnt/04_lepiep.sdf

>  <i_m_source_file_index>  (73) 
40

>  <i_lp_mmshare_version>  (73) 
48012

>  <i_f3d_flags>  (73) 
0

>  <s_epik_input>  (73) 
W0NIM11DKD1PKVtDQEhdKFtDQEBIXShbQ0gzXSlbQ0gyXTEpW0NASF0yTihbQ0BASF0zW0NAQEhdKFtPSF0pW0NIMl00KVtDSDJdW0NIMl1bQ0BASF0oW0NIMl1bQ0gyXTUpW0NAQEhdM1tDQEhdMltDQEBdMTQ1

>  <s_epik_cmdline>  (73) 
J2VwaWtfcHl0aG9uJywgJy1waHQnLCAnMi4wJywgJy1waCcsICc3LjAnLCAnLXRuJywgJzgnLCAnLW1hJywgJzIwMCcsICctaW1hZScsICc8aW5maWxlLm1hZT4nLCAnLW9tYWUnLCAnPG91dGZpbGUubWFlPic=

>  <r_lp_tautomer_probability>  (73) 
1

>  <r_epik_Ionization_Penalty>  (73) 
0.00126565

>  <r_epik_Ionization_Penalty_Charging>  (73) 
0.00126565

>  <r_epik_Ionization_Penalty_Neutral>  (73) 
3.81205e-09

>  <r_epik_State_Penalty>  (73) 
0.000838245

>  <r_epik_Charging_Adjusted_Penalty>  (73) 
0.00210389

>  <i_epik_Tot_Q>  (73) 
1

>  <i_epik_Tot_abs_Q>  (73) 
1

>  <s_lp_Force_Field>  (73) 
OPLS3e

>  <r_lp_Energy>  (73) 
356.104

>  <b_lp_Chiralities_Consistent>  (73) 
1

>  <s_lp_Variant>  (73) 
31:0-1

>  <s_i_glide_gridfile>  (73) 
pfpi4k_grid

>  <i_i_glide_lignum>  (73) 
40

>  <i_i_glide_rotatable_bonds>  (73) 
2

>  <r_i_docking_score>  (73) 
-4.16128

>  <r_i_glide_ligand_efficiency>  (73) 
-0.198156

>  <r_i_glide_ligand_efficiency_sa>  (73) 
-0.546698

>  <r_i_glide_ligand_efficiency_ln>  (73) 
-1.02887

>  <r_i_glide_gscore>  (73) 
-4.16128

>  <r_i_glide_lipo>  (73) 
-0.551269

>  <r_i_glide_hbond>  (73) 
-0.252728

>  <r_i_glide_metal>  (73) 
-0

>  <r_i_glide_rewards>  (73) 
-1.42895

>  <r_i_glide_evdw>  (73) 
-16.0386

>  <r_i_glide_ecoul>  (73) 
-7.01461

>  <r_i_glide_erotb>  (73) 
0

>  <r_i_glide_esite>  (73) 
-0.0742081

>  <r_i_glide_emodel>  (73) 
-27.8472

>  <r_i_glide_energy>  (73) 
-23.0532

>  <r_i_glide_einternal>  (73) 
1.4366

>  <r_i_glide_intrahb_reward>  (73) 
-0

>  <i_i_glide_confnum>  (73) 
1

>  <i_i_glide_posenum>  (73) 
10

>  <r_i_glide_eff_state_penalty>  (73) 
0

>  <ligand_id>  (73) 
31

>  <original_smiles>  (73) 
CC(=O)C1C(C)CC23CCC4CCN5C(C(O)C2)C4C3C15

>  <smiles>  (73) 
[H]OC1([H])C([H])([H])C23C([H])([H])C([H])([H])C4([H])C([H])([H])C([H])([H])[N+]5([H])C1([H])C4([H])C2([H])C5([H])C([H])(C(=O)C([H])([H])[H])C([H])(C([H])([H])[H])C3([H])[H]

$$$$
33:0:0
     RDKit          3D

 49 53  0  0  1  0  0  0  0  0999 V2000
    3.2104   -2.6952   -0.0135 C   0  0  0  0  0  0  0  0  0  0  0  0
    4.4519   -2.7531    0.9213 C   0  0  1  0  0  0  0  0  0  0  0  0
    4.1099   -3.5010    2.2388 C   0  0  0  0  0  0  0  0  0  0  0  0
    3.7642   -4.9817    2.0220 C   0  0  0  0  0  0  0  0  0  0  0  0
    4.6212   -5.6929    0.9400 C   0  0  2  0  0  0  0  0  0  0  0  0
    4.8704   -7.1482    1.3318 C   0  0  0  0  0  0  0  0  0  0  0  0
    3.7984   -8.0574    1.2916 C   0  0  0  0  0  0  0  0  0  0  0  0
    3.9816   -9.3977    1.6725 C   0  0  0  0  0  0  0  0  0  0  0  0
    5.2372   -9.8327    2.1182 C   0  0  0  0  0  0  0  0  0  0  0  0
    5.4057  -11.1364    2.4744 O   0  0  0  0  0  0  0  0  0  0  0  0
    6.3184   -8.9360    2.1605 C   0  0  0  0  0  0  0  0  0  0  0  0
    6.1444   -7.5939    1.7618 C   0  0  0  0  0  0  0  0  0  0  0  0
    7.3526   -6.6721    1.7552 C   0  0  0  0  0  0  0  0  0  0  0  0
    6.9948   -5.1844    1.6672 C   0  0  0  0  0  0  0  0  0  0  0  0
    5.9225   -4.9368    0.5846 C   0  0  2  0  0  0  0  0  0  0  0  0
    5.6384   -3.4550    0.1884 C   0  0  2  0  0  0  0  0  0  0  0  0
    6.8252   -2.4755    0.2048 C   0  0  0  0  0  0  0  0  0  0  0  0
    6.1524   -1.1002    0.2052 C   0  0  0  0  0  0  0  0  0  0  0  0
    4.9869   -1.2887    1.1836 C   0  0  0  0  0  0  0  0  0  0  0  0
    4.0206   -0.3153    0.9774 O   0  0  0  0  0  0  0  0  0  0  0  0
    3.3438   -0.2038    2.2150 C   0  0  0  0  0  0  0  0  0  0  0  0
    4.4605   -0.4903    3.2262 C   0  0  0  0  0  0  0  0  0  0  0  0
    5.4773   -1.1400    2.4785 O   0  0  0  0  0  0  0  0  0  0  0  0
    2.3511   -2.2395    0.4752 H   0  0  0  0  0  0  0  0  0  0  0  0
    2.9001   -3.6854   -0.3453 H   0  0  0  0  0  0  0  0  0  0  0  0
    3.4200   -2.1163   -0.9119 H   0  0  0  0  0  0  0  0  0  0  0  0
    4.9565   -3.4543    2.9270 H   0  0  0  0  0  0  0  0  0  0  0  0
    3.2688   -3.0425    2.7577 H   0  0  0  0  0  0  0  0  0  0  0  0
    3.8979   -5.4759    2.9829 H   0  0  0  0  0  0  0  0  0  0  0  0
    2.7060   -5.0850    1.7749 H   0  0  0  0  0  0  0  0  0  0  0  0
    4.0260   -5.7103    0.0270 H   0  0  0  0  0  0  0  0  0  0  0  0
    2.8227   -7.7298    0.9740 H   0  0  0  0  0  0  0  0  0  0  0  0
    3.1610  -10.0943    1.6197 H   0  0  0  0  0  0  0  0  0  0  0  0
    4.8702  -11.6929    1.9044 H   0  0  0  0  0  0  0  0  0  0  0  0
    7.2929   -9.2789    2.4671 H   0  0  0  0  0  0  0  0  0  0  0  0
    7.9662   -6.8547    2.6376 H   0  0  0  0  0  0  0  0  0  0  0  0
    7.9582   -6.9414    0.8868 H   0  0  0  0  0  0  0  0  0  0  0  0
    6.6323   -4.8580    2.6453 H   0  0  0  0  0  0  0  0  0  0  0  0
    7.9089   -4.6255    1.4770 H   0  0  0  0  0  0  0  0  0  0  0  0
    6.3076   -5.3968   -0.3243 H   0  0  0  0  0  0  0  0  0  0  0  0
    5.3398   -3.5079   -0.8590 H   0  0  0  0  0  0  0  0  0  0  0  0
    7.4105   -2.5577    1.1218 H   0  0  0  0  0  0  0  0  0  0  0  0
    7.5025   -2.6241   -0.6387 H   0  0  0  0  0  0  0  0  0  0  0  0
    6.8151   -0.2925    0.5149 H   0  0  0  0  0  0  0  0  0  0  0  0
    5.7574   -0.8728   -0.7870 H   0  0  0  0  0  0  0  0  0  0  0  0
    2.8813    0.7771    2.3526 H   0  0  0  0  0  0  0  0  0  0  0  0
    2.5611   -0.9636    2.2869 H   0  0  0  0  0  0  0  0  0  0  0  0
    4.8486    0.4198    3.6907 H   0  0  0  0  0  0  0  0  0  0  0  0
    4.1193   -1.1570    4.0163 H   0  0  0  0  0  0  0  0  0  0  0  0
  2  1  1  6
  1 24  1  0
  1 25  1  0
  1 26  1  0
  2 16  1  0
  2 19  1  0
  2  3  1  0
  3  4  1  0
  3 27  1  0
  3 28  1  0
  4  5  1  0
  4 29  1  0
  4 30  1  0
  5 15  1  0
  5  6  1  0
  5 31  1  6
  6 12  2  0
  6  7  1  0
  7  8  2  0
  7 32  1  0
  8  9  1  0
  8 33  1  0
  9 10  1  0
  9 11  2  0
 10 34  1  0
 11 12  1  0
 11 35  1  0
 12 13  1  0
 13 14  1  0
 13 36  1  0
 13 37  1  0
 14 15  1  0
 14 38  1  0
 14 39  1  0
 15 16  1  0
 15 40  1  6
 16 17  1  0
 16 41  1  6
 17 18  1  0
 17 42  1  0
 17 43  1  0
 18 19  1  0
 18 44  1  0
 18 45  1  0
 19 23  1  0
 19 20  1  0
 20 21  1  0
 21 22  1  0
 21 46  1  0
 21 47  1  0
 22 23  1  0
 22 48  1  0
 22 49  1  0
M  END
>  <i_m_ct_stereo_status>  (74) 
1

>  <s_m_source_file>  (74) 
/var/tmp/pbs.5076255.sched01/tmpaqd8m8vp/41rn73ajce.sdf

>  <i_m_source_file_index>  (74) 
1

>  <i_lp_mmshare_version>  (74) 
48012

>  <i_f3d_flags>  (74) 
0

>  <s_epik_input>  (74) 
TzFbQ0gyXVtDSDJdT0MxMltDQEBdMyhbQ0gzXSlbQ0BASF0oW0NIMl1bQ0gyXTIpW0NAQEhdNFtDQEhdKFtDSDJdW0NIMl0zKWM1YyhbQ0gyXVtDSDJdNClbY0hdYyhbT0hdKVtjSF1bY0hdNQ==

>  <s_epik_cmdline>  (74) 
J2VwaWtfcHl0aG9uJywgJy1waHQnLCAnMi4wJywgJy1waCcsICc3LjAnLCAnLXRuJywgJzgnLCAnLW1hJywgJzIwMCcsICctaW1hZScsICc8aW5maWxlLm1hZT4nLCAnLW9tYWUnLCAnPG91dGZpbGUubWFlPic=

>  <r_lp_tautomer_probability>  (74) 
1

>  <r_epik_Ionization_Penalty>  (74) 
0.000145087

>  <r_epik_Ionization_Penalty_Charging>  (74) 
0

>  <r_epik_Ionization_Penalty_Neutral>  (74) 
0.000145087

>  <r_epik_State_Penalty>  (74) 
-0

>  <r_epik_Charging_Adjusted_Penalty>  (74) 
0

>  <i_epik_Tot_Q>  (74) 
0

>  <i_epik_Tot_abs_Q>  (74) 
0

>  <s_lp_Force_Field>  (74) 
OPLS3e

>  <r_lp_Energy>  (74) 
26.7436

>  <b_lp_Chiralities_Consistent>  (74) 
1

>  <s_lp_Variant>  (74) 
33:0-1

>  <s_i_glide_gridfile>  (74) 
pfpi4k_grid

>  <i_i_glide_lignum>  (74) 
1

>  <i_i_glide_rotatable_bonds>  (74) 
1

>  <r_i_docking_score>  (74) 
-4.2189

>  <r_i_glide_ligand_efficiency>  (74) 
-0.18343

>  <r_i_glide_ligand_efficiency_sa>  (74) 
-0.521652

>  <r_i_glide_ligand_efficiency_ln>  (74) 
-1.02017

>  <r_i_glide_gscore>  (74) 
-4.2189

>  <r_i_glide_lipo>  (74) 
-0.741472

>  <r_i_glide_hbond>  (74) 
-0.16

>  <r_i_glide_metal>  (74) 
-0

>  <r_i_glide_rewards>  (74) 
-1.36851

>  <r_i_glide_evdw>  (74) 
-25.1308

>  <r_i_glide_ecoul>  (74) 
-4.61584

>  <r_i_glide_erotb>  (74) 
0

>  <r_i_glide_esite>  (74) 
0

>  <r_i_glide_emodel>  (74) 
-36.6928

>  <r_i_glide_energy>  (74) 
-29.7466

>  <r_i_glide_einternal>  (74) 
1.1412

>  <r_i_glide_intrahb_reward>  (74) 
-0

>  <i_i_glide_confnum>  (74) 
2

>  <i_i_glide_posenum>  (74) 
29

>  <r_i_glide_eff_state_penalty>  (74) 
0

>  <ligand_id>  (74) 
33

>  <original_smiles>  (74) 
CC12CCC3c4ccc(O)cc4CCC3C1CCC21OCCO1

>  <smiles>  (74) 
[H]Oc1c([H])c([H])c2c(c1[H])C([H])([H])C([H])([H])C1([H])C2([H])C([H])([H])C([H])([H])C2(C([H])([H])[H])C3(OC([H])([H])C([H])([H])O3)C([H])([H])C([H])([H])C12[H]

$$$$
33:0:1
     RDKit          3D

 49 53  0  0  1  0  0  0  0  0999 V2000
    4.8040   -3.9797   -1.1792 C   0  0  0  0  0  0  0  0  0  0  0  0
    5.0666   -3.9578    0.3514 C   0  0  1  0  0  0  0  0  0  0  0  0
    3.8152   -3.4420    1.1099 C   0  0  0  0  0  0  0  0  0  0  0  0
    2.6120   -4.3814    1.0035 C   0  0  0  0  0  0  0  0  0  0  0  0
    2.9596   -5.8892    1.0547 C   0  0  2  0  0  0  0  0  0  0  0  0
    1.8533   -6.6586    1.7761 C   0  0  0  0  0  0  0  0  0  0  0  0
    0.6084   -6.8237    1.1406 C   0  0  0  0  0  0  0  0  0  0  0  0
   -0.4335   -7.5119    1.7861 C   0  0  0  0  0  0  0  0  0  0  0  0
   -0.2453   -8.0282    3.0784 C   0  0  0  0  0  0  0  0  0  0  0  0
   -1.2892   -8.6641    3.6865 O   0  0  0  0  0  0  0  0  0  0  0  0
    0.9997   -7.8826    3.7145 C   0  0  0  0  0  0  0  0  0  0  0  0
    2.0512   -7.2022    3.0699 C   0  0  0  0  0  0  0  0  0  0  0  0
    3.4002   -7.1224    3.7682 C   0  0  0  0  0  0  0  0  0  0  0  0
    4.3486   -6.0801    3.1646 C   0  0  0  0  0  0  0  0  0  0  0  0
    4.3685   -6.1798    1.6243 C   0  0  2  0  0  0  0  0  0  0  0  0
    5.4674   -5.3787    0.8599 C   0  0  2  0  0  0  0  0  0  0  0  0
    6.8327   -5.2410    1.5494 C   0  0  0  0  0  0  0  0  0  0  0  0
    7.4970   -4.0854    0.8013 C   0  0  0  0  0  0  0  0  0  0  0  0
    6.3461   -3.0872    0.6315 C   0  0  0  0  0  0  0  0  0  0  0  0
    6.6125   -2.1897   -0.3937 O   0  0  0  0  0  0  0  0  0  0  0  0
    5.8214   -1.0569   -0.0901 C   0  0  0  0  0  0  0  0  0  0  0  0
    5.8255   -1.0515    1.4404 C   0  0  0  0  0  0  0  0  0  0  0  0
    6.2098   -2.3630    1.8093 O   0  0  0  0  0  0  0  0  0  0  0  0
    4.4762   -3.0237   -1.5772 H   0  0  0  0  0  0  0  0  0  0  0  0
    3.9981   -4.6557   -1.4245 H   0  0  0  0  0  0  0  0  0  0  0  0
    5.6869   -4.2895   -1.7378 H   0  0  0  0  0  0  0  0  0  0  0  0
    4.0415   -3.3163    2.1689 H   0  0  0  0  0  0  0  0  0  0  0  0
    3.4944   -2.4675    0.7493 H   0  0  0  0  0  0  0  0  0  0  0  0
    1.9455   -4.1234    1.8248 H   0  0  0  0  0  0  0  0  0  0  0  0
    2.0680   -4.1699    0.0834 H   0  0  0  0  0  0  0  0  0  0  0  0
    2.9692   -6.2481    0.0247 H   0  0  0  0  0  0  0  0  0  0  0  0
    0.4583   -6.4474    0.1409 H   0  0  0  0  0  0  0  0  0  0  0  0
   -1.3725   -7.6894    1.2885 H   0  0  0  0  0  0  0  0  0  0  0  0
   -1.0689   -9.2981    4.3620 H   0  0  0  0  0  0  0  0  0  0  0  0
    1.1589   -8.3135    4.6926 H   0  0  0  0  0  0  0  0  0  0  0  0
    3.2554   -6.9278    4.8313 H   0  0  0  0  0  0  0  0  0  0  0  0
    3.8606   -8.1084    3.6825 H   0  0  0  0  0  0  0  0  0  0  0  0
    4.0248   -5.0870    3.4818 H   0  0  0  0  0  0  0  0  0  0  0  0
    5.3348   -6.2390    3.5963 H   0  0  0  0  0  0  0  0  0  0  0  0
    4.5795   -7.2294    1.4137 H   0  0  0  0  0  0  0  0  0  0  0  0
    5.6635   -5.9693   -0.0355 H   0  0  0  0  0  0  0  0  0  0  0  0
    6.7328   -4.9467    2.5937 H   0  0  0  0  0  0  0  0  0  0  0  0
    7.4164   -6.1608    1.5147 H   0  0  0  0  0  0  0  0  0  0  0  0
    8.3356   -3.6424    1.3353 H   0  0  0  0  0  0  0  0  0  0  0  0
    7.8414   -4.4194   -0.1781 H   0  0  0  0  0  0  0  0  0  0  0  0
    6.2409   -0.1501   -0.5163 H   0  0  0  0  0  0  0  0  0  0  0  0
    4.8066   -1.1767   -0.4795 H   0  0  0  0  0  0  0  0  0  0  0  0
    6.5461   -0.3444    1.8482 H   0  0  0  0  0  0  0  0  0  0  0  0
    4.8421   -0.7986    1.8377 H   0  0  0  0  0  0  0  0  0  0  0  0
  2  1  1  6
  1 24  1  0
  1 25  1  0
  1 26  1  0
  2 16  1  0
  2 19  1  0
  2  3  1  0
  3  4  1  0
  3 27  1  0
  3 28  1  0
  4  5  1  0
  4 29  1  0
  4 30  1  0
  5 15  1  0
  5  6  1  0
  5 31  1  6
  6 12  2  0
  6  7  1  0
  7  8  2  0
  7 32  1  0
  8  9  1  0
  8 33  1  0
  9 10  1  0
  9 11  2  0
 10 34  1  0
 11 12  1  0
 11 35  1  0
 12 13  1  0
 13 14  1  0
 13 36  1  0
 13 37  1  0
 14 15  1  0
 14 38  1  0
 14 39  1  0
 15 16  1  0
 15 40  1  1
 16 17  1  0
 16 41  1  6
 17 18  1  0
 17 42  1  0
 17 43  1  0
 18 19  1  0
 18 44  1  0
 18 45  1  0
 19 23  1  0
 19 20  1  0
 20 21  1  0
 21 22  1  0
 21 46  1  0
 21 47  1  0
 22 23  1  0
 22 48  1  0
 22 49  1  0
M  END
>  <i_m_ct_stereo_status>  (75) 
1

>  <s_m_source_file>  (75) 
/var/tmp/pbs.5076255.sched01/tmpaqd8m8vp/41rn73ajce.sdf

>  <i_m_source_file_index>  (75) 
1

>  <i_lp_mmshare_version>  (75) 
48012

>  <i_f3d_flags>  (75) 
0

>  <s_epik_input>  (75) 
TzFbQ0gyXVtDSDJdT0MxMltDQEBdMyhbQ0gzXSlbQ0BASF0oW0NIMl1bQ0gyXTIpW0NAQEhdNFtDQEhdKFtDSDJdW0NIMl0zKWM1YyhbQ0gyXVtDSDJdNClbY0hdYyhbT0hdKVtjSF1bY0hdNQ==

>  <s_epik_cmdline>  (75) 
J2VwaWtfcHl0aG9uJywgJy1waHQnLCAnMi4wJywgJy1waCcsICc3LjAnLCAnLXRuJywgJzgnLCAnLW1hJywgJzIwMCcsICctaW1hZScsICc8aW5maWxlLm1hZT4nLCAnLW9tYWUnLCAnPG91dGZpbGUubWFlPic=

>  <r_lp_tautomer_probability>  (75) 
1

>  <r_epik_Ionization_Penalty>  (75) 
0.000145087

>  <r_epik_Ionization_Penalty_Charging>  (75) 
0

>  <r_epik_Ionization_Penalty_Neutral>  (75) 
0.000145087

>  <r_epik_State_Penalty>  (75) 
-0

>  <r_epik_Charging_Adjusted_Penalty>  (75) 
0

>  <i_epik_Tot_Q>  (75) 
0

>  <i_epik_Tot_abs_Q>  (75) 
0

>  <s_lp_Force_Field>  (75) 
OPLS3e

>  <r_lp_Energy>  (75) 
26.7436

>  <b_lp_Chiralities_Consistent>  (75) 
1

>  <s_lp_Variant>  (75) 
33:0-1

>  <s_i_glide_gridfile>  (75) 
pfpi4k_grid

>  <i_i_glide_lignum>  (75) 
1

>  <i_i_glide_rotatable_bonds>  (75) 
1

>  <r_i_docking_score>  (75) 
-3.63293

>  <r_i_glide_ligand_efficiency>  (75) 
-0.157953

>  <r_i_glide_ligand_efficiency_sa>  (75) 
-0.449199

>  <r_i_glide_ligand_efficiency_ln>  (75) 
-0.878476

>  <r_i_glide_gscore>  (75) 
-3.63293

>  <r_i_glide_lipo>  (75) 
-0.541068

>  <r_i_glide_hbond>  (75) 
-0.0896588

>  <r_i_glide_metal>  (75) 
-0

>  <r_i_glide_rewards>  (75) 
-1.37897

>  <r_i_glide_evdw>  (75) 
-23.715

>  <r_i_glide_ecoul>  (75) 
-2.91658

>  <r_i_glide_erotb>  (75) 
0

>  <r_i_glide_esite>  (75) 
0

>  <r_i_glide_emodel>  (75) 
-32.9283

>  <r_i_glide_energy>  (75) 
-26.6316

>  <r_i_glide_einternal>  (75) 
0.509175

>  <r_i_glide_intrahb_reward>  (75) 
-0

>  <i_i_glide_confnum>  (75) 
2

>  <i_i_glide_posenum>  (75) 
30

>  <r_i_glide_eff_state_penalty>  (75) 
0

>  <ligand_id>  (75) 
33

>  <original_smiles>  (75) 
CC12CCC3c4ccc(O)cc4CCC3C1CCC21OCCO1

>  <smiles>  (75) 
[H]Oc1c([H])c([H])c2c(c1[H])C([H])([H])C([H])([H])C1([H])C2([H])C([H])([H])C([H])([H])C2(C([H])([H])[H])C3(OC([H])([H])C([H])([H])O3)C([H])([H])C([H])([H])C12[H]

$$$$
33:0:2
     RDKit          3D

 49 53  0  0  1  0  0  0  0  0999 V2000
    5.5232   -4.6865   -0.1859 C   0  0  0  0  0  0  0  0  0  0  0  0
    4.5454   -3.6132    0.3620 C   0  0  1  0  0  0  0  0  0  0  0  0
    3.0973   -3.9088   -0.1144 C   0  0  0  0  0  0  0  0  0  0  0  0
    2.5396   -5.2277    0.4411 C   0  0  0  0  0  0  0  0  0  0  0  0
    2.9299   -5.5265    1.9090 C   0  0  2  0  0  0  0  0  0  0  0  0
    1.7875   -6.2438    2.6237 C   0  0  0  0  0  0  0  0  0  0  0  0
    1.4885   -7.5764    2.2763 C   0  0  0  0  0  0  0  0  0  0  0  0
    0.4289   -8.2598    2.9019 C   0  0  0  0  0  0  0  0  0  0  0  0
   -0.3489   -7.6139    3.8751 C   0  0  0  0  0  0  0  0  0  0  0  0
   -1.3919   -8.2555    4.4898 O   0  0  0  0  0  0  0  0  0  0  0  0
   -0.0473   -6.2819    4.2279 C   0  0  0  0  0  0  0  0  0  0  0  0
    1.0166   -5.5916    3.6154 C   0  0  0  0  0  0  0  0  0  0  0  0
    1.3364   -4.1751    4.0749 C   0  0  0  0  0  0  0  0  0  0  0  0
    2.2591   -3.4032    3.1231 C   0  0  0  0  0  0  0  0  0  0  0  0
    3.4447   -4.2831    2.6763 C   0  0  2  0  0  0  0  0  0  0  0  0
    4.6131   -3.5819    1.9163 C   0  0  2  0  0  0  0  0  0  0  0  0
    4.9521   -2.1386    2.3225 C   0  0  0  0  0  0  0  0  0  0  0  0
    5.7907   -1.6205    1.1510 C   0  0  0  0  0  0  0  0  0  0  0  0
    5.0462   -2.1768   -0.0689 C   0  0  0  0  0  0  0  0  0  0  0  0
    5.8759   -2.2011   -1.1866 O   0  0  0  0  0  0  0  0  0  0  0  0
    4.9801   -2.1730   -2.2861 C   0  0  0  0  0  0  0  0  0  0  0  0
    3.8349   -1.3048   -1.7594 C   0  0  0  0  0  0  0  0  0  0  0  0
    3.9806   -1.3298   -0.3480 O   0  0  0  0  0  0  0  0  0  0  0  0
    5.4724   -4.7568   -1.2715 H   0  0  0  0  0  0  0  0  0  0  0  0
    5.3107   -5.6826    0.2010 H   0  0  0  0  0  0  0  0  0  0  0  0
    6.5543   -4.4591    0.0856 H   0  0  0  0  0  0  0  0  0  0  0  0
    2.4290   -3.1030    0.1874 H   0  0  0  0  0  0  0  0  0  0  0  0
    3.0315   -3.9688   -1.1981 H   0  0  0  0  0  0  0  0  0  0  0  0
    1.4581   -5.1844    0.3428 H   0  0  0  0  0  0  0  0  0  0  0  0
    2.8573   -6.0590   -0.1878 H   0  0  0  0  0  0  0  0  0  0  0  0
    3.7619   -6.2319    1.8794 H   0  0  0  0  0  0  0  0  0  0  0  0
    2.0752   -8.0866    1.5282 H   0  0  0  0  0  0  0  0  0  0  0  0
    0.2204   -9.2831    2.6348 H   0  0  0  0  0  0  0  0  0  0  0  0
   -1.4133   -9.2060    4.4091 H   0  0  0  0  0  0  0  0  0  0  0  0
   -0.6291   -5.7937    4.9926 H   0  0  0  0  0  0  0  0  0  0  0  0
    0.4153   -3.6117    4.2342 H   0  0  0  0  0  0  0  0  0  0  0  0
    1.8296   -4.2598    5.0459 H   0  0  0  0  0  0  0  0  0  0  0  0
    1.6801   -3.0711    2.2594 H   0  0  0  0  0  0  0  0  0  0  0  0
    2.5917   -2.5000    3.6287 H   0  0  0  0  0  0  0  0  0  0  0  0
    3.8851   -4.6501    3.6063 H   0  0  0  0  0  0  0  0  0  0  0  0
    5.4967   -4.1607    2.1866 H   0  0  0  0  0  0  0  0  0  0  0  0
    4.0606   -1.5133    2.3929 H   0  0  0  0  0  0  0  0  0  0  0  0
    5.4780   -2.0902    3.2755 H   0  0  0  0  0  0  0  0  0  0  0  0
    5.8567   -0.5333    1.1175 H   0  0  0  0  0  0  0  0  0  0  0  0
    6.7974   -2.0428    1.1948 H   0  0  0  0  0  0  0  0  0  0  0  0
    5.4083   -1.7656   -3.1947 H   0  0  0  0  0  0  0  0  0  0  0  0
    4.6285   -3.1811   -2.5205 H   0  0  0  0  0  0  0  0  0  0  0  0
    3.8948   -0.2815   -2.1332 H   0  0  0  0  0  0  0  0  0  0  0  0
    2.8672   -1.7188   -2.0381 H   0  0  0  0  0  0  0  0  0  0  0  0
  2  1  1  6
  1 24  1  0
  1 25  1  0
  1 26  1  0
  2 16  1  0
  2 19  1  0
  2  3  1  0
  3  4  1  0
  3 27  1  0
  3 28  1  0
  4  5  1  0
  4 29  1  0
  4 30  1  0
  5 15  1  0
  5  6  1  0
  5 31  1  6
  6 12  2  0
  6  7  1  0
  7  8  2  0
  7 32  1  0
  8  9  1  0
  8 33  1  0
  9 10  1  0
  9 11  2  0
 10 34  1  0
 11 12  1  0
 11 35  1  0
 12 13  1  0
 13 14  1  0
 13 36  1  0
 13 37  1  0
 14 15  1  0
 14 38  1  0
 14 39  1  0
 15 16  1  0
 15 40  1  1
 16 17  1  0
 16 41  1  6
 17 18  1  0
 17 42  1  0
 17 43  1  0
 18 19  1  0
 18 44  1  0
 18 45  1  0
 19 23  1  0
 19 20  1  0
 20 21  1  0
 21 22  1  0
 21 46  1  0
 21 47  1  0
 22 23  1  0
 22 48  1  0
 22 49  1  0
M  END
>  <i_m_ct_stereo_status>  (76) 
1

>  <s_m_source_file>  (76) 
/var/tmp/pbs.5076255.sched01/tmpaqd8m8vp/41rn73ajce.sdf

>  <i_m_source_file_index>  (76) 
1

>  <i_lp_mmshare_version>  (76) 
48012

>  <i_f3d_flags>  (76) 
0

>  <s_epik_input>  (76) 
TzFbQ0gyXVtDSDJdT0MxMltDQEBdMyhbQ0gzXSlbQ0BASF0oW0NIMl1bQ0gyXTIpW0NAQEhdNFtDQEhdKFtDSDJdW0NIMl0zKWM1YyhbQ0gyXVtDSDJdNClbY0hdYyhbT0hdKVtjSF1bY0hdNQ==

>  <s_epik_cmdline>  (76) 
J2VwaWtfcHl0aG9uJywgJy1waHQnLCAnMi4wJywgJy1waCcsICc3LjAnLCAnLXRuJywgJzgnLCAnLW1hJywgJzIwMCcsICctaW1hZScsICc8aW5maWxlLm1hZT4nLCAnLW9tYWUnLCAnPG91dGZpbGUubWFlPic=

>  <r_lp_tautomer_probability>  (76) 
1

>  <r_epik_Ionization_Penalty>  (76) 
0.000145087

>  <r_epik_Ionization_Penalty_Charging>  (76) 
0

>  <r_epik_Ionization_Penalty_Neutral>  (76) 
0.000145087

>  <r_epik_State_Penalty>  (76) 
-0

>  <r_epik_Charging_Adjusted_Penalty>  (76) 
0

>  <i_epik_Tot_Q>  (76) 
0

>  <i_epik_Tot_abs_Q>  (76) 
0

>  <s_lp_Force_Field>  (76) 
OPLS3e

>  <r_lp_Energy>  (76) 
26.7436

>  <b_lp_Chiralities_Consistent>  (76) 
1

>  <s_lp_Variant>  (76) 
33:0-1

>  <s_i_glide_gridfile>  (76) 
pfpi4k_grid

>  <i_i_glide_lignum>  (76) 
1

>  <i_i_glide_rotatable_bonds>  (76) 
1

>  <r_i_docking_score>  (76) 
-3.56202

>  <r_i_glide_ligand_efficiency>  (76) 
-0.15487

>  <r_i_glide_ligand_efficiency_sa>  (76) 
-0.440431

>  <r_i_glide_ligand_efficiency_ln>  (76) 
-0.861328

>  <r_i_glide_gscore>  (76) 
-3.56202

>  <r_i_glide_lipo>  (76) 
-0.343861

>  <r_i_glide_hbond>  (76) 
-0.1163

>  <r_i_glide_metal>  (76) 
-0

>  <r_i_glide_rewards>  (76) 
-1.26533

>  <r_i_glide_evdw>  (76) 
-26.0987

>  <r_i_glide_ecoul>  (76) 
-3.52541

>  <r_i_glide_erotb>  (76) 
0

>  <r_i_glide_esite>  (76) 
-0.00278447

>  <r_i_glide_emodel>  (76) 
-36.3395

>  <r_i_glide_energy>  (76) 
-29.6241

>  <r_i_glide_einternal>  (76) 
0.249893

>  <r_i_glide_intrahb_reward>  (76) 
-0

>  <i_i_glide_confnum>  (76) 
4

>  <i_i_glide_posenum>  (76) 
13

>  <r_i_glide_eff_state_penalty>  (76) 
0

>  <ligand_id>  (76) 
33

>  <original_smiles>  (76) 
CC12CCC3c4ccc(O)cc4CCC3C1CCC21OCCO1

>  <smiles>  (76) 
[H]Oc1c([H])c([H])c2c(c1[H])C([H])([H])C([H])([H])C1([H])C2([H])C([H])([H])C([H])([H])C2(C([H])([H])[H])C3(OC([H])([H])C([H])([H])O3)C([H])([H])C([H])([H])C12[H]

$$$$
34:0:0
     RDKit          3D

 58 63  0  0  1  0  0  0  0  0999 V2000
    2.2591   -3.0498   -3.8802 O   0  0  0  0  0  0  0  0  0  0  0  0
    3.3142   -3.0754   -3.0163 C   0  0  0  0  0  0  0  0  0  0  0  0
    4.6059   -3.1756   -3.5418 C   0  0  0  0  0  0  0  0  0  0  0  0
    5.7164   -3.2241   -2.6880 C   0  0  0  0  0  0  0  0  0  0  0  0
    5.5324   -3.1956   -1.2954 C   0  0  0  0  0  0  0  0  0  0  0  0
    4.2217   -3.1227   -0.7425 C   0  0  0  0  0  0  0  0  0  0  0  0
    3.1149   -3.0451   -1.6299 C   0  0  0  0  0  0  0  0  0  0  0  0
    4.0063   -2.9855    0.7858 C   0  0  2  0  0  0  0  0  0  0  0  0
    3.9793   -1.4496    1.0434 C   0  0  0  0  0  0  0  0  0  0  0  0
    5.3031   -0.7585    0.6821 C   0  0  0  0  0  0  0  0  0  0  0  0
    6.4595   -1.4658    1.2809 N   0  0  0  0  0  0  0  0  0  0  0  0
    6.4954   -2.9399    1.0616 C   0  0  2  0  0  0  0  0  0  0  0  0
    6.7782   -3.2337   -0.4183 C   0  0  0  0  0  0  0  0  0  0  0  0
    5.1867   -3.6409    1.5593 C   0  0  2  0  0  0  0  0  0  0  0  0
    5.2337   -5.1917    1.2730 C   0  0  0  0  0  0  0  0  0  0  0  0
    3.9051   -5.9853    1.3815 C   0  0  0  0  0  0  0  0  0  0  0  0
    2.6755   -5.1896    0.9122 C   0  0  1  0  0  0  0  0  0  0  0  0
    1.4688   -5.8011    1.3480 O   0  0  0  0  0  0  0  0  0  0  0  0
    2.7128   -3.6938    1.3311 C   0  0  1  0  0  0  0  0  0  0  0  0
    2.5048   -3.5664    2.8148 N   0  0  2  0  0  0  0  0  0  0  0  0
    1.7521   -2.3719    3.2719 C   0  0  0  0  0  0  0  0  0  0  0  0
    0.7933   -2.7146    4.4005 C   0  0  0  0  0  0  0  0  0  0  0  0
   -0.1128   -1.6390    4.9588 C   0  0  0  0  0  0  0  0  0  0  0  0
    1.0228   -2.1626    5.7937 C   0  0  0  0  0  0  0  0  0  0  0  0
    3.6787   -3.8826    3.6751 C   0  0  0  0  0  0  0  0  0  0  0  0
    5.0150   -3.4001    3.0934 C   0  0  0  0  0  0  0  0  0  0  0  0
    1.4280   -3.2740   -3.4859 H   0  0  0  0  0  0  0  0  0  0  0  0
    4.7351   -3.2374   -4.6058 H   0  0  0  0  0  0  0  0  0  0  0  0
    6.7111   -3.2926   -3.1055 H   0  0  0  0  0  0  0  0  0  0  0  0
    2.1075   -2.9472   -1.2591 H   0  0  0  0  0  0  0  0  0  0  0  0
    3.1670   -0.9866    0.4783 H   0  0  0  0  0  0  0  0  0  0  0  0
    3.7788   -1.1987    2.0799 H   0  0  0  0  0  0  0  0  0  0  0  0
    5.4213   -0.6776   -0.4008 H   0  0  0  0  0  0  0  0  0  0  0  0
    5.2922    0.2652    1.0566 H   0  0  0  0  0  0  0  0  0  0  0  0
    7.3023   -1.0547    0.9055 H   0  0  0  0  0  0  0  0  0  0  0  0
    7.3406   -3.3214    1.6396 H   0  0  0  0  0  0  0  0  0  0  0  0
    7.2180   -4.2253   -0.5016 H   0  0  0  0  0  0  0  0  0  0  0  0
    7.5386   -2.5593   -0.8139 H   0  0  0  0  0  0  0  0  0  0  0  0
    5.5843   -5.3904    0.2635 H   0  0  0  0  0  0  0  0  0  0  0  0
    5.9738   -5.6581    1.9249 H   0  0  0  0  0  0  0  0  0  0  0  0
    3.9888   -6.8921    0.7805 H   0  0  0  0  0  0  0  0  0  0  0  0
    3.7628   -6.3645    2.3899 H   0  0  0  0  0  0  0  0  0  0  0  0
    2.6603   -5.2427   -0.1753 H   0  0  0  0  0  0  0  0  0  0  0  0
    1.5691   -6.1395    2.2268 H   0  0  0  0  0  0  0  0  0  0  0  0
    1.8541   -3.2312    0.8559 H   0  0  0  0  0  0  0  0  0  0  0  0
    2.4249   -1.5963    3.6367 H   0  0  0  0  0  0  0  0  0  0  0  0
    1.1638   -1.9401    2.4581 H   0  0  0  0  0  0  0  0  0  0  0  0
    0.3312   -3.7021    4.3265 H   0  0  0  0  0  0  0  0  0  0  0  0
   -0.0231   -0.6308    4.5548 H   0  0  0  0  0  0  0  0  0  0  0  0
   -1.1179   -1.9348    5.2525 H   0  0  0  0  0  0  0  0  0  0  0  0
    0.7734   -2.8104    6.6322 H   0  0  0  0  0  0  0  0  0  0  0  0
    1.8786   -1.5055    5.9528 H   0  0  0  0  0  0  0  0  0  0  0  0
    3.5427   -3.4608    4.6711 H   0  0  0  0  0  0  0  0  0  0  0  0
    3.7277   -4.9523    3.8579 H   0  0  0  0  0  0  0  0  0  0  0  0
    5.8083   -3.8984    3.6500 H   0  0  0  0  0  0  0  0  0  0  0  0
    5.1120   -2.3429    3.3449 H   0  0  0  0  0  0  0  0  0  0  0  0
    6.4542   -1.2938    2.2768 H   0  0  0  0  0  0  0  0  0  0  0  0
    1.8498   -4.3071    3.0030 H   0  0  0  0  0  0  0  0  0  0  0  0
  1  2  1  0
  1 27  1  0
  2  7  2  0
  2  3  1  0
  3  4  2  0
  3 28  1  0
  4  5  1  0
  4 29  1  0
  5 13  1  0
  5  6  2  0
  6  7  1  0
  6  8  1  0
  7 30  1  0
  8 14  1  0
  8 19  1  0
  8  9  1  6
  9 10  1  0
  9 31  1  0
  9 32  1  0
 10 11  1  0
 10 33  1  0
 10 34  1  0
 11 12  1  0
 11 35  1  0
 11 57  1  0
 12 13  1  0
 12 14  1  0
 12 36  1  1
 13 37  1  0
 13 38  1  0
 14 26  1  1
 14 15  1  0
 15 16  1  0
 15 39  1  0
 15 40  1  0
 16 17  1  0
 16 41  1  0
 16 42  1  0
 17 18  1  0
 17 19  1  0
 17 43  1  6
 18 44  1  0
 19 20  1  0
 19 45  1  6
 20 21  1  0
 20 25  1  0
 20 58  1  1
 21 22  1  0
 21 46  1  0
 21 47  1  0
 22 24  1  0
 22 23  1  0
 22 48  1  0
 23 24  1  0
 23 49  1  0
 23 50  1  0
 24 51  1  0
 24 52  1  0
 25 26  1  0
 25 53  1  0
 25 54  1  0
 26 55  1  0
 26 56  1  0
M  CHG  2  11   1  20   1
M  END
>  <i_m_ct_stereo_status>  (77) 
1

>  <s_m_source_file>  (77) 
/var/tmp/pbs.5076255.sched01/tmpaqd8m8vp/41rn73ajce.sdf

>  <i_m_source_file_index>  (77) 
2

>  <i_lp_mmshare_version>  (77) 
48012

>  <i_f3d_flags>  (77) 
0

>  <s_epik_input>  (77) 
W2NIXTFbY0hdYyhbT0hdKVtjSF1jMmMxW0NIMl1bQ0BASF0oW05IXVtDSDJdW0NIMl0zKVtDQEBdNChbQ0BdMjM1KVtDSDJdW0NIMl1bQ0BASF0oW09IXSlbQ0BIXTVOKFtDSDJdW0NIMl00KVtDSDJdW0NIXTZbQ0gyXVtDSDJdNg==

>  <s_epik_cmdline>  (77) 
J2VwaWtfcHl0aG9uJywgJy1waHQnLCAnMi4wJywgJy1waCcsICc3LjAnLCAnLXRuJywgJzgnLCAnLW1hJywgJzIwMCcsICctaW1hZScsICc8aW5maWxlLm1hZT4nLCAnLW9tYWUnLCAnPG91dGZpbGUubWFlPic=

>  <r_lp_tautomer_probability>  (77) 
1

>  <r_epik_Ionization_Penalty>  (77) 
0.044108

>  <r_epik_Ionization_Penalty_Charging>  (77) 
0.0318858

>  <r_epik_Ionization_Penalty_Neutral>  (77) 
0.0122222

>  <r_epik_State_Penalty>  (77) 
0.0179195

>  <r_epik_Charging_Adjusted_Penalty>  (77) 
0.0498053

>  <i_epik_Tot_Q>  (77) 
2

>  <i_epik_Tot_abs_Q>  (77) 
2

>  <s_lp_Force_Field>  (77) 
OPLS3e

>  <r_lp_Energy>  (77) 
87.4819

>  <b_lp_Chiralities_Consistent>  (77) 
1

>  <s_lp_Variant>  (77) 
34:0-1

>  <s_i_glide_gridfile>  (77) 
pfpi4k_grid

>  <i_i_glide_lignum>  (77) 
2

>  <i_i_glide_rotatable_bonds>  (77) 
4

>  <r_i_docking_score>  (77) 
-4.78842

>  <r_i_glide_ligand_efficiency>  (77) 
-0.18417

>  <r_i_glide_ligand_efficiency_sa>  (77) 
-0.545603

>  <r_i_glide_ligand_efficiency_ln>  (77) 
-1.12455

>  <r_i_glide_gscore>  (77) 
-4.78842

>  <r_i_glide_lipo>  (77) 
-1.1406

>  <r_i_glide_hbond>  (77) 
-0.278731

>  <r_i_glide_metal>  (77) 
-0

>  <r_i_glide_rewards>  (77) 
-0.978398

>  <r_i_glide_evdw>  (77) 
-29.1037

>  <r_i_glide_ecoul>  (77) 
-8.23173

>  <r_i_glide_erotb>  (77) 
0.301087

>  <r_i_glide_esite>  (77) 
-0.00183309

>  <r_i_glide_emodel>  (77) 
-50.627

>  <r_i_glide_energy>  (77) 
-37.3355

>  <r_i_glide_einternal>  (77) 
0.847673

>  <r_i_glide_intrahb_reward>  (77) 
-0

>  <i_i_glide_confnum>  (77) 
5

>  <i_i_glide_posenum>  (77) 
11

>  <r_i_glide_eff_state_penalty>  (77) 
0

>  <ligand_id>  (77) 
34

>  <original_smiles>  (77) 
Oc1ccc2c(c1)C13CCNC(C2)C12CCC(O)C3N(CC1CC1)CC2

>  <smiles>  (77) 
[H]Oc1c([H])c([H])c2c(c1[H])C13C([H])([H])C([H])([H])[N+]([H])([H])C([H])(C2([H])[H])C12C([H])([H])C([H])([H])C([H])(O[H])C3([H])[N+]([H])(C([H])([H])C1([H])C([H])([H])C1([H])[H])C([H])([H])C2([H])[H]

$$$$
34:0:1
     RDKit          3D

 58 63  0  0  1  0  0  0  0  0999 V2000
    2.3195   -3.0534   -3.9140 O   0  0  0  0  0  0  0  0  0  0  0  0
    3.3666   -3.0725   -3.0431 C   0  0  0  0  0  0  0  0  0  0  0  0
    4.6643   -3.1618   -3.5528 C   0  0  0  0  0  0  0  0  0  0  0  0
    5.7682   -3.1943   -2.6895 C   0  0  0  0  0  0  0  0  0  0  0  0
    5.5725   -3.1672   -1.2994 C   0  0  0  0  0  0  0  0  0  0  0  0
    4.2523   -3.1084   -0.7585 C   0  0  0  0  0  0  0  0  0  0  0  0
    3.1567   -3.0433   -1.6563 C   0  0  0  0  0  0  0  0  0  0  0  0
    4.0197   -2.9743    0.7673 C   0  0  2  0  0  0  0  0  0  0  0  0
    3.9690   -1.4360    1.0234 C   0  0  0  0  0  0  0  0  0  0  0  0
    5.2894   -0.7293    0.6742 C   0  0  0  0  0  0  0  0  0  0  0  0
    6.4502   -1.4241    1.2816 N   0  0  0  0  0  0  0  0  0  0  0  0
    6.5048   -2.8988    1.0654 C   0  0  2  0  0  0  0  0  0  0  0  0
    6.8090   -3.1913   -0.4102 C   0  0  0  0  0  0  0  0  0  0  0  0
    5.2000   -3.6125    1.5523 C   0  0  2  0  0  0  0  0  0  0  0  0
    5.2698   -5.1637    1.2714 C   0  0  0  0  0  0  0  0  0  0  0  0
    3.9523   -5.9724    1.3645 C   0  0  0  0  0  0  0  0  0  0  0  0
    2.7207   -5.1995    0.8708 C   0  0  1  0  0  0  0  0  0  0  0  0
    1.5389   -5.8430    1.3210 O   0  0  0  0  0  0  0  0  0  0  0  0
    2.7317   -3.7040    1.2958 C   0  0  1  0  0  0  0  0  0  0  0  0
    2.5026   -3.5850    2.7783 N   0  0  2  0  0  0  0  0  0  0  0  0
    1.7356   -2.3922    3.2283 C   0  0  0  0  0  0  0  0  0  0  0  0
    0.7521   -2.7434    4.3307 C   0  0  0  0  0  0  0  0  0  0  0  0
   -0.0508   -1.6491    5.0011 C   0  0  0  0  0  0  0  0  0  0  0  0
    1.0350   -2.3555    5.7670 C   0  0  0  0  0  0  0  0  0  0  0  0
    3.6752   -3.8773    3.6506 C   0  0  0  0  0  0  0  0  0  0  0  0
    5.0100   -3.3716    3.0827 C   0  0  0  0  0  0  0  0  0  0  0  0
    1.4863   -3.2807   -3.5220 H   0  0  0  0  0  0  0  0  0  0  0  0
    4.8067   -3.2265   -4.6151 H   0  0  0  0  0  0  0  0  0  0  0  0
    6.7676   -3.2497   -3.0991 H   0  0  0  0  0  0  0  0  0  0  0  0
    2.1435   -2.9570   -1.2976 H   0  0  0  0  0  0  0  0  0  0  0  0
    3.1558   -0.9829    0.4515 H   0  0  0  0  0  0  0  0  0  0  0  0
    3.7538   -1.1879    2.0563 H   0  0  0  0  0  0  0  0  0  0  0  0
    5.4169   -0.6454   -0.4062 H   0  0  0  0  0  0  0  0  0  0  0  0
    5.2640    0.2959    1.0441 H   0  0  0  0  0  0  0  0  0  0  0  0
    7.2911   -1.0040    0.9121 H   0  0  0  0  0  0  0  0  0  0  0  0
    7.3482   -3.2649    1.6536 H   0  0  0  0  0  0  0  0  0  0  0  0
    7.2633   -4.1768   -0.4946 H   0  0  0  0  0  0  0  0  0  0  0  0
    7.5644   -2.5067   -0.7977 H   0  0  0  0  0  0  0  0  0  0  0  0
    5.6307   -5.3590    0.2657 H   0  0  0  0  0  0  0  0  0  0  0  0
    6.0100   -5.6215    1.9275 H   0  0  0  0  0  0  0  0  0  0  0  0
    4.0572   -6.8797    0.7682 H   0  0  0  0  0  0  0  0  0  0  0  0
    3.7952   -6.3522    2.3704 H   0  0  0  0  0  0  0  0  0  0  0  0
    2.7104   -5.2621   -0.2161 H   0  0  0  0  0  0  0  0  0  0  0  0
    1.6129   -6.7735    1.1437 H   0  0  0  0  0  0  0  0  0  0  0  0
    1.8701   -3.2497    0.8137 H   0  0  0  0  0  0  0  0  0  0  0  0
    2.3993   -1.6179    3.6133 H   0  0  0  0  0  0  0  0  0  0  0  0
    1.1699   -1.9475    2.4082 H   0  0  0  0  0  0  0  0  0  0  0  0
    0.2066   -3.6735    4.1659 H   0  0  0  0  0  0  0  0  0  0  0  0
    0.1313   -0.6182    4.6983 H   0  0  0  0  0  0  0  0  0  0  0  0
   -1.0781   -1.8751    5.2812 H   0  0  0  0  0  0  0  0  0  0  0  0
    0.7319   -3.0591    6.5409 H   0  0  0  0  0  0  0  0  0  0  0  0
    1.9524   -1.8041    5.9738 H   0  0  0  0  0  0  0  0  0  0  0  0
    3.5251   -3.4566    4.6453 H   0  0  0  0  0  0  0  0  0  0  0  0
    3.7364   -4.9442    3.8425 H   0  0  0  0  0  0  0  0  0  0  0  0
    5.8127   -3.8498    3.6463 H   0  0  0  0  0  0  0  0  0  0  0  0
    5.0894   -2.3125    3.3339 H   0  0  0  0  0  0  0  0  0  0  0  0
    6.4366   -1.2490    2.2759 H   0  0  0  0  0  0  0  0  0  0  0  0
    1.8631   -4.3502    2.9456 H   0  0  0  0  0  0  0  0  0  0  0  0
  1  2  1  0
  1 27  1  0
  2  7  2  0
  2  3  1  0
  3  4  2  0
  3 28  1  0
  4  5  1  0
  4 29  1  0
  5 13  1  0
  5  6  2  0
  6  7  1  0
  6  8  1  0
  7 30  1  0
  8 14  1  0
  8 19  1  0
  8  9  1  6
  9 10  1  0
  9 31  1  0
  9 32  1  0
 10 11  1  0
 10 33  1  0
 10 34  1  0
 11 12  1  0
 11 35  1  0
 11 57  1  0
 12 13  1  0
 12 14  1  0
 12 36  1  1
 13 37  1  0
 13 38  1  0
 14 26  1  1
 14 15  1  0
 15 16  1  0
 15 39  1  0
 15 40  1  0
 16 17  1  0
 16 41  1  0
 16 42  1  0
 17 18  1  0
 17 19  1  0
 17 43  1  6
 18 44  1  0
 19 20  1  0
 19 45  1  6
 20 21  1  0
 20 25  1  0
 20 58  1  1
 21 22  1  0
 21 46  1  0
 21 47  1  0
 22 24  1  0
 22 23  1  0
 22 48  1  0
 23 24  1  0
 23 49  1  0
 23 50  1  0
 24 51  1  0
 24 52  1  0
 25 26  1  0
 25 53  1  0
 25 54  1  0
 26 55  1  0
 26 56  1  0
M  CHG  2  11   1  20   1
M  END
>  <i_m_ct_stereo_status>  (78) 
1

>  <s_m_source_file>  (78) 
/var/tmp/pbs.5076255.sched01/tmpaqd8m8vp/41rn73ajce.sdf

>  <i_m_source_file_index>  (78) 
2

>  <i_lp_mmshare_version>  (78) 
48012

>  <i_f3d_flags>  (78) 
0

>  <s_epik_input>  (78) 
W2NIXTFbY0hdYyhbT0hdKVtjSF1jMmMxW0NIMl1bQ0BASF0oW05IXVtDSDJdW0NIMl0zKVtDQEBdNChbQ0BdMjM1KVtDSDJdW0NIMl1bQ0BASF0oW09IXSlbQ0BIXTVOKFtDSDJdW0NIMl00KVtDSDJdW0NIXTZbQ0gyXVtDSDJdNg==

>  <s_epik_cmdline>  (78) 
J2VwaWtfcHl0aG9uJywgJy1waHQnLCAnMi4wJywgJy1waCcsICc3LjAnLCAnLXRuJywgJzgnLCAnLW1hJywgJzIwMCcsICctaW1hZScsICc8aW5maWxlLm1hZT4nLCAnLW9tYWUnLCAnPG91dGZpbGUubWFlPic=

>  <r_lp_tautomer_probability>  (78) 
1

>  <r_epik_Ionization_Penalty>  (78) 
0.044108

>  <r_epik_Ionization_Penalty_Charging>  (78) 
0.0318858

>  <r_epik_Ionization_Penalty_Neutral>  (78) 
0.0122222

>  <r_epik_State_Penalty>  (78) 
0.0179195

>  <r_epik_Charging_Adjusted_Penalty>  (78) 
0.0498053

>  <i_epik_Tot_Q>  (78) 
2

>  <i_epik_Tot_abs_Q>  (78) 
2

>  <s_lp_Force_Field>  (78) 
OPLS3e

>  <r_lp_Energy>  (78) 
87.4819

>  <b_lp_Chiralities_Consistent>  (78) 
1

>  <s_lp_Variant>  (78) 
34:0-1

>  <s_i_glide_gridfile>  (78) 
pfpi4k_grid

>  <i_i_glide_lignum>  (78) 
2

>  <i_i_glide_rotatable_bonds>  (78) 
4

>  <r_i_docking_score>  (78) 
-4.70261

>  <r_i_glide_ligand_efficiency>  (78) 
-0.18087

>  <r_i_glide_ligand_efficiency_sa>  (78) 
-0.535825

>  <r_i_glide_ligand_efficiency_ln>  (78) 
-1.10439

>  <r_i_glide_gscore>  (78) 
-4.70261

>  <r_i_glide_lipo>  (78) 
-1.13289

>  <r_i_glide_hbond>  (78) 
-0.249298

>  <r_i_glide_metal>  (78) 
-0

>  <r_i_glide_rewards>  (78) 
-0.978398

>  <r_i_glide_evdw>  (78) 
-29.0164

>  <r_i_glide_ecoul>  (78) 
-7.93492

>  <r_i_glide_erotb>  (78) 
0.301087

>  <r_i_glide_esite>  (78) 
-0.00205132

>  <r_i_glide_emodel>  (78) 
-50.0262

>  <r_i_glide_energy>  (78) 
-36.9513

>  <r_i_glide_einternal>  (78) 
0.956856

>  <r_i_glide_intrahb_reward>  (78) 
-0

>  <i_i_glide_confnum>  (78) 
5

>  <i_i_glide_posenum>  (78) 
27

>  <r_i_glide_eff_state_penalty>  (78) 
0

>  <ligand_id>  (78) 
34

>  <original_smiles>  (78) 
Oc1ccc2c(c1)C13CCNC(C2)C12CCC(O)C3N(CC1CC1)CC2

>  <smiles>  (78) 
[H]Oc1c([H])c([H])c2c(c1[H])C13C([H])([H])C([H])([H])[N+]([H])([H])C([H])(C2([H])[H])C12C([H])([H])C([H])([H])C([H])(O[H])C3([H])[N+]([H])(C([H])([H])C1([H])C([H])([H])C1([H])[H])C([H])([H])C2([H])[H]

$$$$
34:0:2
     RDKit          3D

 58 63  0  0  1  0  0  0  0  0999 V2000
    2.5908   -3.4182   -3.8263 O   0  0  0  0  0  0  0  0  0  0  0  0
    3.3058   -2.8405   -2.8179 C   0  0  0  0  0  0  0  0  0  0  0  0
    4.1203   -1.7360   -3.1049 C   0  0  0  0  0  0  0  0  0  0  0  0
    4.8724   -1.1443   -2.0796 C   0  0  0  0  0  0  0  0  0  0  0  0
    4.8280   -1.6587   -0.7704 C   0  0  0  0  0  0  0  0  0  0  0  0
    4.0064   -2.7812   -0.4637 C   0  0  0  0  0  0  0  0  0  0  0  0
    3.2286   -3.3452   -1.5091 C   0  0  0  0  0  0  0  0  0  0  0  0
    3.8573   -3.2879    0.9981 C   0  0  2  0  0  0  0  0  0  0  0  0
    2.6532   -2.4917    1.5786 C   0  0  0  0  0  0  0  0  0  0  0  0
    2.8732   -0.9754    1.6100 C   0  0  0  0  0  0  0  0  0  0  0  0
    4.1683   -0.6482    2.2446 N   0  0  0  0  0  0  0  0  0  0  0  0
    5.3452   -1.4085    1.7300 C   0  0  2  0  0  0  0  0  0  0  0  0
    5.6610   -0.9582    0.2974 C   0  0  0  0  0  0  0  0  0  0  0  0
    5.1346   -2.9587    1.8184 C   0  0  2  0  0  0  0  0  0  0  0  0
    6.3699   -3.7341    1.2159 C   0  0  0  0  0  0  0  0  0  0  0  0
    6.1975   -5.2463    0.9174 C   0  0  0  0  0  0  0  0  0  0  0  0
    4.7938   -5.6148    0.4128 C   0  0  1  0  0  0  0  0  0  0  0  0
    4.5643   -7.0111    0.4774 O   0  0  0  0  0  0  0  0  0  0  0  0
    3.6597   -4.8483    1.1349 C   0  0  1  0  0  0  0  0  0  0  0  0
    3.5227   -5.3338    2.5525 N   0  0  2  0  0  0  0  0  0  0  0  0
    2.1347   -5.3559    3.0873 C   0  0  0  0  0  0  0  0  0  0  0  0
    1.5393   -6.7490    3.0336 C   0  0  0  0  0  0  0  0  0  0  0  0
    0.5068   -7.0770    1.9798 C   0  0  0  0  0  0  0  0  0  0  0  0
    0.0897   -6.9518    3.4207 C   0  0  0  0  0  0  0  0  0  0  0  0
    4.5426   -4.8392    3.5214 C   0  0  0  0  0  0  0  0  0  0  0  0
    4.9251   -3.3680    3.3096 C   0  0  0  0  0  0  0  0  0  0  0  0
    2.0283   -4.1238   -3.5308 H   0  0  0  0  0  0  0  0  0  0  0  0
    4.1624   -1.3290   -4.1025 H   0  0  0  0  0  0  0  0  0  0  0  0
    5.4705   -0.2737   -2.2996 H   0  0  0  0  0  0  0  0  0  0  0  0
    2.5622   -4.1715   -1.3157 H   0  0  0  0  0  0  0  0  0  0  0  0
    1.7788   -2.6863    0.9669 H   0  0  0  0  0  0  0  0  0  0  0  0
    2.3908   -2.7863    2.5935 H   0  0  0  0  0  0  0  0  0  0  0  0
    2.8115   -0.5497    0.6067 H   0  0  0  0  0  0  0  0  0  0  0  0
    2.0710   -0.5038    2.1811 H   0  0  0  0  0  0  0  0  0  0  0  0
    4.3223    0.3388    2.1024 H   0  0  0  0  0  0  0  0  0  0  0  0
    6.1862   -1.1241    2.3660 H   0  0  0  0  0  0  0  0  0  0  0  0
    6.7105   -1.1552    0.0887 H   0  0  0  0  0  0  0  0  0  0  0  0
    5.5506    0.1214    0.2062 H   0  0  0  0  0  0  0  0  0  0  0  0
    6.6767   -3.3018    0.2674 H   0  0  0  0  0  0  0  0  0  0  0  0
    7.2304   -3.6127    1.8651 H   0  0  0  0  0  0  0  0  0  0  0  0
    6.9338   -5.5353    0.1659 H   0  0  0  0  0  0  0  0  0  0  0  0
    6.4757   -5.8485    1.7790 H   0  0  0  0  0  0  0  0  0  0  0  0
    4.7661   -5.3641   -0.6475 H   0  0  0  0  0  0  0  0  0  0  0  0
    4.7471   -7.3570    1.3371 H   0  0  0  0  0  0  0  0  0  0  0  0
    2.7404   -5.1343    0.6260 H   0  0  0  0  0  0  0  0  0  0  0  0
    2.1009   -5.0309    4.1272 H   0  0  0  0  0  0  0  0  0  0  0  0
    1.4677   -4.6943    2.5361 H   0  0  0  0  0  0  0  0  0  0  0  0
    2.2092   -7.5502    3.3579 H   0  0  0  0  0  0  0  0  0  0  0  0
    0.2265   -6.2804    1.2932 H   0  0  0  0  0  0  0  0  0  0  0  0
    0.5432   -8.0760    1.5491 H   0  0  0  0  0  0  0  0  0  0  0  0
   -0.1761   -7.8743    3.9353 H   0  0  0  0  0  0  0  0  0  0  0  0
   -0.4838   -6.0759    3.7202 H   0  0  0  0  0  0  0  0  0  0  0  0
    4.2128   -4.9875    4.5501 H   0  0  0  0  0  0  0  0  0  0  0  0
    5.4316   -5.4642    3.4694 H   0  0  0  0  0  0  0  0  0  0  0  0
    5.8179   -3.1541    3.8944 H   0  0  0  0  0  0  0  0  0  0  0  0
    4.1568   -2.7669    3.7896 H   0  0  0  0  0  0  0  0  0  0  0  0
    4.0840   -0.8202    3.2338 H   0  0  0  0  0  0  0  0  0  0  0  0
    3.7223   -6.3182    2.4846 H   0  0  0  0  0  0  0  0  0  0  0  0
  1  2  1  0
  1 27  1  0
  2  7  2  0
  2  3  1  0
  3  4  2  0
  3 28  1  0
  4  5  1  0
  4 29  1  0
  5 13  1  0
  5  6  2  0
  6  7  1  0
  6  8  1  0
  7 30  1  0
  8 14  1  0
  8 19  1  0
  8  9  1  1
  9 10  1  0
  9 31  1  0
  9 32  1  0
 10 11  1  0
 10 33  1  0
 10 34  1  0
 11 12  1  0
 11 35  1  0
 11 57  1  0
 12 13  1  0
 12 14  1  0
 12 36  1  1
 13 37  1  0
 13 38  1  0
 14 26  1  1
 14 15  1  0
 15 16  1  0
 15 39  1  0
 15 40  1  0
 16 17  1  0
 16 41  1  0
 16 42  1  0
 17 18  1  0
 17 19  1  0
 17 43  1  6
 18 44  1  0
 19 20  1  0
 19 45  1  6
 20 21  1  0
 20 25  1  0
 20 58  1  6
 21 22  1  0
 21 46  1  0
 21 47  1  0
 22 24  1  0
 22 23  1  0
 22 48  1  0
 23 24  1  0
 23 49  1  0
 23 50  1  0
 24 51  1  0
 24 52  1  0
 25 26  1  0
 25 53  1  0
 25 54  1  0
 26 55  1  0
 26 56  1  0
M  CHG  2  11   1  20   1
M  END
>  <i_m_ct_stereo_status>  (79) 
1

>  <s_m_source_file>  (79) 
/var/tmp/pbs.5076255.sched01/tmpaqd8m8vp/41rn73ajce.sdf

>  <i_m_source_file_index>  (79) 
2

>  <i_lp_mmshare_version>  (79) 
48012

>  <i_f3d_flags>  (79) 
0

>  <s_epik_input>  (79) 
W2NIXTFbY0hdYyhbT0hdKVtjSF1jMmMxW0NIMl1bQ0BASF0oW05IXVtDSDJdW0NIMl0zKVtDQEBdNChbQ0BdMjM1KVtDSDJdW0NIMl1bQ0BASF0oW09IXSlbQ0BIXTVOKFtDSDJdW0NIMl00KVtDSDJdW0NIXTZbQ0gyXVtDSDJdNg==

>  <s_epik_cmdline>  (79) 
J2VwaWtfcHl0aG9uJywgJy1waHQnLCAnMi4wJywgJy1waCcsICc3LjAnLCAnLXRuJywgJzgnLCAnLW1hJywgJzIwMCcsICctaW1hZScsICc8aW5maWxlLm1hZT4nLCAnLW9tYWUnLCAnPG91dGZpbGUubWFlPic=

>  <r_lp_tautomer_probability>  (79) 
1

>  <r_epik_Ionization_Penalty>  (79) 
0.044108

>  <r_epik_Ionization_Penalty_Charging>  (79) 
0.0318858

>  <r_epik_Ionization_Penalty_Neutral>  (79) 
0.0122222

>  <r_epik_State_Penalty>  (79) 
0.0179195

>  <r_epik_Charging_Adjusted_Penalty>  (79) 
0.0498053

>  <i_epik_Tot_Q>  (79) 
2

>  <i_epik_Tot_abs_Q>  (79) 
2

>  <s_lp_Force_Field>  (79) 
OPLS3e

>  <r_lp_Energy>  (79) 
87.4819

>  <b_lp_Chiralities_Consistent>  (79) 
1

>  <s_lp_Variant>  (79) 
34:0-1

>  <s_i_glide_gridfile>  (79) 
pfpi4k_grid

>  <i_i_glide_lignum>  (79) 
2

>  <i_i_glide_rotatable_bonds>  (79) 
4

>  <r_i_docking_score>  (79) 
-4.27506

>  <r_i_glide_ligand_efficiency>  (79) 
-0.164425

>  <r_i_glide_ligand_efficiency_sa>  (79) 
-0.48711

>  <r_i_glide_ligand_efficiency_ln>  (79) 
-1.00398

>  <r_i_glide_gscore>  (79) 
-4.27506

>  <r_i_glide_lipo>  (79) 
-0.781254

>  <r_i_glide_hbond>  (79) 
-0.153153

>  <r_i_glide_metal>  (79) 
-0

>  <r_i_glide_rewards>  (79) 
-0.978398

>  <r_i_glide_evdw>  (79) 
-30.8516

>  <r_i_glide_ecoul>  (79) 
-7.47177

>  <r_i_glide_erotb>  (79) 
0.301087

>  <r_i_glide_esite>  (79) 
0

>  <r_i_glide_emodel>  (79) 
-49.9745

>  <r_i_glide_energy>  (79) 
-38.3234

>  <r_i_glide_einternal>  (79) 
1.26458

>  <r_i_glide_intrahb_reward>  (79) 
-0

>  <i_i_glide_confnum>  (79) 
5

>  <i_i_glide_posenum>  (79) 
4

>  <r_i_glide_eff_state_penalty>  (79) 
0

>  <ligand_id>  (79) 
34

>  <original_smiles>  (79) 
Oc1ccc2c(c1)C13CCNC(C2)C12CCC(O)C3N(CC1CC1)CC2

>  <smiles>  (79) 
[H]Oc1c([H])c([H])c2c(c1[H])C13C([H])([H])C([H])([H])[N+]([H])([H])C([H])(C2([H])[H])C12C([H])([H])C([H])([H])C([H])(O[H])C3([H])[N+]([H])(C([H])([H])C1([H])C([H])([H])C1([H])[H])C([H])([H])C2([H])[H]

$$$$
34:1:0
     RDKit          3D

 57 62  0  0  1  0  0  0  0  0999 V2000
   -0.7740   -6.6687    2.2301 O   0  0  0  0  0  0  0  0  0  0  0  0
    0.5223   -6.7321    2.6613 C   0  0  0  0  0  0  0  0  0  0  0  0
    0.8609   -7.5018    3.7907 C   0  0  0  0  0  0  0  0  0  0  0  0
    2.2059   -7.5835    4.2016 C   0  0  0  0  0  0  0  0  0  0  0  0
    3.2090   -6.8845    3.4905 C   0  0  0  0  0  0  0  0  0  0  0  0
    2.8720   -6.0858    2.3587 C   0  0  0  0  0  0  0  0  0  0  0  0
    1.5209   -6.0462    1.9509 C   0  0  0  0  0  0  0  0  0  0  0  0
    3.9691   -5.3939    1.5026 C   0  0  2  0  0  0  0  0  0  0  0  0
    4.3273   -6.4279    0.3957 C   0  0  0  0  0  0  0  0  0  0  0  0
    4.8961   -7.7359    0.9701 C   0  0  0  0  0  0  0  0  0  0  0  0
    5.9941   -7.4676    1.9267 N   0  0  0  0  0  0  0  0  0  0  0  0
    5.6821   -6.4629    2.9805 C   0  0  2  0  0  0  0  0  0  0  0  0
    4.6466   -7.0453    3.9588 C   0  0  0  0  0  0  0  0  0  0  0  0
    5.2198   -5.0976    2.3706 C   0  0  2  0  0  0  0  0  0  0  0  0
    4.8486   -4.0705    3.5094 C   0  0  0  0  0  0  0  0  0  0  0  0
    4.0404   -2.8095    3.1067 C   0  0  0  0  0  0  0  0  0  0  0  0
    3.0132   -3.0587    1.9865 C   0  0  1  0  0  0  0  0  0  0  0  0
    2.6535   -1.8226    1.3910 O   0  0  0  0  0  0  0  0  0  0  0  0
    3.5443   -4.0096    0.8943 C   0  0  1  0  0  0  0  0  0  0  0  0
    4.6068   -3.3171    0.0864 N   0  0  2  0  0  0  0  0  0  0  0  0
    4.6526   -3.6665   -1.3536 C   0  0  0  0  0  0  0  0  0  0  0  0
    4.6428   -2.4387   -2.2296 C   0  0  0  0  0  0  0  0  0  0  0  0
    3.3259   -1.8111   -2.6161 C   0  0  0  0  0  0  0  0  0  0  0  0
    4.1394   -2.5338   -3.6547 C   0  0  0  0  0  0  0  0  0  0  0  0
    5.9563   -3.2404    0.7025 C   0  0  0  0  0  0  0  0  0  0  0  0
    6.3565   -4.5021    1.4816 C   0  0  0  0  0  0  0  0  0  0  0  0
    0.1072   -8.0489    4.3339 H   0  0  0  0  0  0  0  0  0  0  0  0
    2.4741   -8.2032    5.0467 H   0  0  0  0  0  0  0  0  0  0  0  0
    1.2350   -5.4994    1.0663 H   0  0  0  0  0  0  0  0  0  0  0  0
    3.4424   -6.6510   -0.1958 H   0  0  0  0  0  0  0  0  0  0  0  0
    5.0375   -6.0429   -0.3291 H   0  0  0  0  0  0  0  0  0  0  0  0
    4.1152   -8.3378    1.4303 H   0  0  0  0  0  0  0  0  0  0  0  0
    5.2673   -8.3647    0.1660 H   0  0  0  0  0  0  0  0  0  0  0  0
    6.2186   -8.3403    2.3799 H   0  0  0  0  0  0  0  0  0  0  0  0
    6.6119   -6.3087    3.5321 H   0  0  0  0  0  0  0  0  0  0  0  0
    4.7301   -6.5423    4.9175 H   0  0  0  0  0  0  0  0  0  0  0  0
    4.8566   -8.0926    4.1670 H   0  0  0  0  0  0  0  0  0  0  0  0
    4.2373   -4.5406    4.2756 H   0  0  0  0  0  0  0  0  0  0  0  0
    5.7523   -3.7561    4.0310 H   0  0  0  0  0  0  0  0  0  0  0  0
    3.5172   -2.4307    3.9877 H   0  0  0  0  0  0  0  0  0  0  0  0
    4.6999   -1.9842    2.8493 H   0  0  0  0  0  0  0  0  0  0  0  0
    2.1278   -3.4944    2.4488 H   0  0  0  0  0  0  0  0  0  0  0  0
    1.9164   -1.9149    0.7952 H   0  0  0  0  0  0  0  0  0  0  0  0
    2.7042   -4.1634    0.2255 H   0  0  0  0  0  0  0  0  0  0  0  0
    5.5349   -4.2510   -1.6019 H   0  0  0  0  0  0  0  0  0  0  0  0
    3.7899   -4.2526   -1.6354 H   0  0  0  0  0  0  0  0  0  0  0  0
    5.4875   -1.7682   -2.0853 H   0  0  0  0  0  0  0  0  0  0  0  0
    2.4207   -2.2936   -2.2509 H   0  0  0  0  0  0  0  0  0  0  0  0
    3.2867   -0.7245   -2.6655 H   0  0  0  0  0  0  0  0  0  0  0  0
    4.6117   -1.9077   -4.4081 H   0  0  0  0  0  0  0  0  0  0  0  0
    3.7633   -3.4927   -4.0116 H   0  0  0  0  0  0  0  0  0  0  0  0
    6.7084   -3.0298   -0.0568 H   0  0  0  0  0  0  0  0  0  0  0  0
    6.0178   -2.3724    1.3472 H   0  0  0  0  0  0  0  0  0  0  0  0
    7.2390   -4.2778    2.0793 H   0  0  0  0  0  0  0  0  0  0  0  0
    6.7073   -5.2322    0.7513 H   0  0  0  0  0  0  0  0  0  0  0  0
    6.8006   -7.1494    1.4102 H   0  0  0  0  0  0  0  0  0  0  0  0
    4.2659   -2.3640    0.0751 H   0  0  0  0  0  0  0  0  0  0  0  0
  1  2  1  0
  2  7  2  0
  2  3  1  0
  3  4  2  0
  3 27  1  0
  4  5  1  0
  4 28  1  0
  5 13  1  0
  5  6  2  0
  6  7  1  0
  6  8  1  0
  7 29  1  0
  8 14  1  0
  8 19  1  0
  8  9  1  6
  9 10  1  0
  9 30  1  0
  9 31  1  0
 10 11  1  0
 10 32  1  0
 10 33  1  0
 11 12  1  0
 11 34  1  0
 11 56  1  0
 12 13  1  0
 12 14  1  0
 12 35  1  1
 13 36  1  0
 13 37  1  0
 14 26  1  6
 14 15  1  0
 15 16  1  0
 15 38  1  0
 15 39  1  0
 16 17  1  0
 16 40  1  0
 16 41  1  0
 17 18  1  0
 17 19  1  0
 17 42  1  1
 18 43  1  0
 19 20  1  0
 19 44  1  6
 20 21  1  0
 20 25  1  0
 20 57  1  6
 21 22  1  0
 21 45  1  0
 21 46  1  0
 22 24  1  0
 22 23  1  0
 22 47  1  0
 23 24  1  0
 23 48  1  0
 23 49  1  0
 24 50  1  0
 24 51  1  0
 25 26  1  0
 25 52  1  0
 25 53  1  0
 26 54  1  0
 26 55  1  0
M  CHG  3   1  -1  11   1  20   1
M  END
>  <i_m_ct_stereo_status>  (80) 
1

>  <s_m_source_file>  (80) 
/var/tmp/pbs.5076255.sched01/tmpaqd8m8vp/41rn73ajce.sdf

>  <i_m_source_file_index>  (80) 
3

>  <i_lp_mmshare_version>  (80) 
48012

>  <i_f3d_flags>  (80) 
0

>  <s_epik_input>  (80) 
W2NIXTFbY0hdYyhbT0hdKVtjSF1jMmMxW0NIMl1bQ0BASF0oW05IXVtDSDJdW0NIMl0zKVtDQEBdNChbQ0BdMjM1KVtDSDJdW0NIMl1bQ0BASF0oW09IXSlbQ0BIXTVOKFtDSDJdW0NIMl00KVtDSDJdW0NIXTZbQ0gyXVtDSDJdNg==

>  <s_epik_cmdline>  (80) 
J2VwaWtfcHl0aG9uJywgJy1waHQnLCAnMi4wJywgJy1waCcsICc3LjAnLCAnLXRuJywgJzgnLCAnLW1hJywgJzIwMCcsICctaW1hZScsICc8aW5maWxlLm1hZT4nLCAnLW9tYWUnLCAnPG91dGZpbGUubWFlPic=

>  <r_epik_Ionization_Penalty>  (80) 
2.33552

>  <r_epik_Ionization_Penalty_Charging>  (80) 
2.33552

>  <r_epik_Ionization_Penalty_Neutral>  (80) 
2.51905e-08

>  <r_epik_State_Penalty>  (80) 
2.46512

>  <r_epik_Charging_Adjusted_Penalty>  (80) 
4.80064

>  <i_epik_Tot_Q>  (80) 
1

>  <i_epik_Tot_abs_Q>  (80) 
3

>  <s_lp_Force_Field>  (80) 
OPLS3e

>  <r_lp_Energy>  (80) 
79.0178

>  <b_lp_Chiralities_Consistent>  (80) 
1

>  <s_lp_Variant>  (80) 
34:0-2

>  <s_i_glide_gridfile>  (80) 
pfpi4k_grid

>  <i_i_glide_lignum>  (80) 
3

>  <i_i_glide_rotatable_bonds>  (80) 
3

>  <r_i_docking_score>  (80) 
-3.90352

>  <r_i_glide_ligand_efficiency>  (80) 
-0.150136

>  <r_i_glide_ligand_efficiency_sa>  (80) 
-0.444776

>  <r_i_glide_ligand_efficiency_ln>  (80) 
-0.91673

>  <r_i_glide_gscore>  (80) 
-3.90352

>  <r_i_glide_lipo>  (80) 
-0.650864

>  <r_i_glide_hbond>  (80) 
-0.293434

>  <r_i_glide_metal>  (80) 
-0

>  <r_i_glide_rewards>  (80) 
-1.28527

>  <r_i_glide_evdw>  (80) 
-23.3048

>  <r_i_glide_ecoul>  (80) 
-5.40882

>  <r_i_glide_erotb>  (80) 
0.302609

>  <r_i_glide_esite>  (80) 
0

>  <r_i_glide_emodel>  (80) 
-40.6937

>  <r_i_glide_energy>  (80) 
-28.7137

>  <r_i_glide_einternal>  (80) 
1.09418

>  <r_i_glide_intrahb_reward>  (80) 
-0

>  <i_i_glide_confnum>  (80) 
5

>  <i_i_glide_posenum>  (80) 
20

>  <r_i_glide_eff_state_penalty>  (80) 
0

>  <ligand_id>  (80) 
34

>  <original_smiles>  (80) 
Oc1ccc2c(c1)C13CCNC(C2)C12CCC(O)C3N(CC1CC1)CC2

>  <smiles>  (80) 
[H]OC1([H])C([H])([H])C([H])([H])C23C([H])([H])C([H])([H])[N+]([H])(C([H])([H])C4([H])C([H])([H])C4([H])[H])C1([H])C21c2c([H])c([O-])c([H])c([H])c2C([H])([H])C3([H])[N+]([H])([H])C([H])([H])C1([H])[H]

$$$$
34:1:1
     RDKit          3D

 57 62  0  0  1  0  0  0  0  0999 V2000
   -0.5762   -2.3742    7.3616 O   0  0  0  0  0  0  0  0  0  0  0  0
   -0.1116   -1.9334    6.1572 C   0  0  0  0  0  0  0  0  0  0  0  0
    0.0649   -2.8588    5.1275 C   0  0  0  0  0  0  0  0  0  0  0  0
    0.5683   -2.4453    3.8844 C   0  0  0  0  0  0  0  0  0  0  0  0
    0.8870   -1.0877    3.6737 C   0  0  0  0  0  0  0  0  0  0  0  0
    0.7162   -0.1342    4.7137 C   0  0  0  0  0  0  0  0  0  0  0  0
    0.1984   -0.5762    5.9612 C   0  0  0  0  0  0  0  0  0  0  0  0
    0.9809    1.3732    4.4556 C   0  0  2  0  0  0  0  0  0  0  0  0
   -0.3925    1.9475    3.9820 C   0  0  0  0  0  0  0  0  0  0  0  0
   -0.9043    1.3136    2.6834 C   0  0  0  0  0  0  0  0  0  0  0  0
    0.1467    1.3505    1.6437 N   0  0  0  0  0  0  0  0  0  0  0  0
    1.4747    0.8186    2.0620 C   0  0  2  0  0  0  0  0  0  0  0  0
    1.3862   -0.6988    2.2901 C   0  0  0  0  0  0  0  0  0  0  0  0
    2.0333    1.5485    3.3288 C   0  0  2  0  0  0  0  0  0  0  0  0
    3.4113    0.9224    3.7805 C   0  0  0  0  0  0  0  0  0  0  0  0
    3.9504    1.2921    5.1864 C   0  0  0  0  0  0  0  0  0  0  0  0
    2.8382    1.4450    6.2370 C   0  0  1  0  0  0  0  0  0  0  0  0
    3.3108    2.0868    7.4085 O   0  0  0  0  0  0  0  0  0  0  0  0
    1.5710    2.1513    5.6937 C   0  0  1  0  0  0  0  0  0  0  0  0
    1.8458    3.6088    5.4479 N   0  0  2  0  0  0  0  0  0  0  0  0
    0.7331    4.5492    5.7379 C   0  0  0  0  0  0  0  0  0  0  0  0
    0.4507    4.6852    7.2176 C   0  0  0  0  0  0  0  0  0  0  0  0
   -0.9255    4.3188    7.7326 C   0  0  0  0  0  0  0  0  0  0  0  0
   -0.5085    5.7610    7.6874 C   0  0  0  0  0  0  0  0  0  0  0  0
    2.6079    3.9277    4.2126 C   0  0  0  0  0  0  0  0  0  0  0  0
    2.2323    3.0626    3.0038 C   0  0  0  0  0  0  0  0  0  0  0  0
   -0.2070   -3.8886    5.2701 H   0  0  0  0  0  0  0  0  0  0  0  0
    0.6650   -3.1519    3.0783 H   0  0  0  0  0  0  0  0  0  0  0  0
    0.0250    0.1224    6.7627 H   0  0  0  0  0  0  0  0  0  0  0  0
   -1.1367    1.8349    4.7733 H   0  0  0  0  0  0  0  0  0  0  0  0
   -0.3529    3.0022    3.7410 H   0  0  0  0  0  0  0  0  0  0  0  0
   -1.2794    0.3066    2.8567 H   0  0  0  0  0  0  0  0  0  0  0  0
   -1.7546    1.8971    2.3329 H   0  0  0  0  0  0  0  0  0  0  0  0
   -0.1728    0.8357    0.8253 H   0  0  0  0  0  0  0  0  0  0  0  0
    2.1498    0.9928    1.2221 H   0  0  0  0  0  0  0  0  0  0  0  0
    2.3676   -1.1471    2.1511 H   0  0  0  0  0  0  0  0  0  0  0  0
    0.7545   -1.1583    1.5328 H   0  0  0  0  0  0  0  0  0  0  0  0
    3.3667   -0.1640    3.7842 H   0  0  0  0  0  0  0  0  0  0  0  0
    4.1769    1.1526    3.0471 H   0  0  0  0  0  0  0  0  0  0  0  0
    4.6425    0.5103    5.5082 H   0  0  0  0  0  0  0  0  0  0  0  0
    4.5802    2.1771    5.1474 H   0  0  0  0  0  0  0  0  0  0  0  0
    2.5710    0.4391    6.5570 H   0  0  0  0  0  0  0  0  0  0  0  0
    3.7234    2.9128    7.2116 H   0  0  0  0  0  0  0  0  0  0  0  0
    0.8478    2.1067    6.5007 H   0  0  0  0  0  0  0  0  0  0  0  0
    0.9824    5.5502    5.3826 H   0  0  0  0  0  0  0  0  0  0  0  0
   -0.2051    4.2968    5.2618 H   0  0  0  0  0  0  0  0  0  0  0  0
    1.2977    4.5020    7.8845 H   0  0  0  0  0  0  0  0  0  0  0  0
   -1.6730    3.9890    7.0106 H   0  0  0  0  0  0  0  0  0  0  0  0
   -0.9761    3.8363    8.7052 H   0  0  0  0  0  0  0  0  0  0  0  0
   -0.2881    6.2476    8.6356 H   0  0  0  0  0  0  0  0  0  0  0  0
   -0.9657    6.4021    6.9329 H   0  0  0  0  0  0  0  0  0  0  0  0
    2.5105    4.9785    3.9431 H   0  0  0  0  0  0  0  0  0  0  0  0
    3.6716    3.8334    4.3976 H   0  0  0  0  0  0  0  0  0  0  0  0
    2.9916    3.1935    2.2299 H   0  0  0  0  0  0  0  0  0  0  0  0
    1.3335    3.5027    2.5723 H   0  0  0  0  0  0  0  0  0  0  0  0
    0.2535    2.3168    1.3572 H   0  0  0  0  0  0  0  0  0  0  0  0
    2.4947    3.8530    6.1785 H   0  0  0  0  0  0  0  0  0  0  0  0
  1  2  1  0
  2  7  2  0
  2  3  1  0
  3  4  2  0
  3 27  1  0
  4  5  1  0
  4 28  1  0
  5 13  1  0
  5  6  2  0
  6  7  1  0
  6  8  1  0
  7 29  1  0
  8 14  1  0
  8 19  1  0
  8  9  1  6
  9 10  1  0
  9 30  1  0
  9 31  1  0
 10 11  1  0
 10 32  1  0
 10 33  1  0
 11 12  1  0
 11 34  1  0
 11 56  1  0
 12 13  1  0
 12 14  1  0
 12 35  1  6
 13 36  1  0
 13 37  1  0
 14 26  1  6
 14 15  1  0
 15 16  1  0
 15 38  1  0
 15 39  1  0
 16 17  1  0
 16 40  1  0
 16 41  1  0
 17 18  1  0
 17 19  1  0
 17 42  1  1
 18 43  1  0
 19 20  1  0
 19 44  1  1
 20 21  1  0
 20 25  1  0
 20 57  1  1
 21 22  1  0
 21 45  1  0
 21 46  1  0
 22 24  1  0
 22 23  1  0
 22 47  1  0
 23 24  1  0
 23 48  1  0
 23 49  1  0
 24 50  1  0
 24 51  1  0
 25 26  1  0
 25 52  1  0
 25 53  1  0
 26 54  1  0
 26 55  1  0
M  CHG  3   1  -1  11   1  20   1
M  END
>  <i_m_ct_stereo_status>  (81) 
1

>  <s_m_source_file>  (81) 
/var/tmp/pbs.5076255.sched01/tmpaqd8m8vp/41rn73ajce.sdf

>  <i_m_source_file_index>  (81) 
3

>  <i_lp_mmshare_version>  (81) 
48012

>  <i_f3d_flags>  (81) 
0

>  <s_epik_input>  (81) 
W2NIXTFbY0hdYyhbT0hdKVtjSF1jMmMxW0NIMl1bQ0BASF0oW05IXVtDSDJdW0NIMl0zKVtDQEBdNChbQ0BdMjM1KVtDSDJdW0NIMl1bQ0BASF0oW09IXSlbQ0BIXTVOKFtDSDJdW0NIMl00KVtDSDJdW0NIXTZbQ0gyXVtDSDJdNg==

>  <s_epik_cmdline>  (81) 
J2VwaWtfcHl0aG9uJywgJy1waHQnLCAnMi4wJywgJy1waCcsICc3LjAnLCAnLXRuJywgJzgnLCAnLW1hJywgJzIwMCcsICctaW1hZScsICc8aW5maWxlLm1hZT4nLCAnLW9tYWUnLCAnPG91dGZpbGUubWFlPic=

>  <r_epik_Ionization_Penalty>  (81) 
2.33552

>  <r_epik_Ionization_Penalty_Charging>  (81) 
2.33552

>  <r_epik_Ionization_Penalty_Neutral>  (81) 
2.51905e-08

>  <r_epik_State_Penalty>  (81) 
2.46512

>  <r_epik_Charging_Adjusted_Penalty>  (81) 
4.80064

>  <i_epik_Tot_Q>  (81) 
1

>  <i_epik_Tot_abs_Q>  (81) 
3

>  <s_lp_Force_Field>  (81) 
OPLS3e

>  <r_lp_Energy>  (81) 
79.0178

>  <b_lp_Chiralities_Consistent>  (81) 
1

>  <s_lp_Variant>  (81) 
34:0-2

>  <s_i_glide_gridfile>  (81) 
pfpi4k_grid

>  <i_i_glide_lignum>  (81) 
3

>  <i_i_glide_rotatable_bonds>  (81) 
3

>  <r_i_docking_score>  (81) 
-3.78201

>  <r_i_glide_ligand_efficiency>  (81) 
-0.145462

>  <r_i_glide_ligand_efficiency_sa>  (81) 
-0.43093

>  <r_i_glide_ligand_efficiency_ln>  (81) 
-0.888192

>  <r_i_glide_gscore>  (81) 
-3.78201

>  <r_i_glide_lipo>  (81) 
-0.0400087

>  <r_i_glide_hbond>  (81) 
-0.435338

>  <r_i_glide_metal>  (81) 
-0

>  <r_i_glide_rewards>  (81) 
-1.28527

>  <r_i_glide_evdw>  (81) 
-18.2885

>  <r_i_glide_ecoul>  (81) 
-8.7988

>  <r_i_glide_erotb>  (81) 
0.302609

>  <r_i_glide_esite>  (81) 
-0.089755

>  <r_i_glide_emodel>  (81) 
-38.5621

>  <r_i_glide_energy>  (81) 
-27.0873

>  <r_i_glide_einternal>  (81) 
1.07875

>  <r_i_glide_intrahb_reward>  (81) 
-0

>  <i_i_glide_confnum>  (81) 
5

>  <i_i_glide_posenum>  (81) 
1

>  <r_i_glide_eff_state_penalty>  (81) 
0

>  <ligand_id>  (81) 
34

>  <original_smiles>  (81) 
Oc1ccc2c(c1)C13CCNC(C2)C12CCC(O)C3N(CC1CC1)CC2

>  <smiles>  (81) 
[H]OC1([H])C([H])([H])C([H])([H])C23C([H])([H])C([H])([H])[N+]([H])(C([H])([H])C4([H])C([H])([H])C4([H])[H])C1([H])C21c2c([H])c([O-])c([H])c([H])c2C([H])([H])C3([H])[N+]([H])([H])C([H])([H])C1([H])[H]

$$$$
34:1:2
     RDKit          3D

 57 62  0  0  1  0  0  0  0  0999 V2000
   -0.5813   -2.3961    7.1005 O   0  0  0  0  0  0  0  0  0  0  0  0
   -0.0976   -1.8679    5.9478 C   0  0  0  0  0  0  0  0  0  0  0  0
    0.1938   -2.7058    4.8592 C   0  0  0  0  0  0  0  0  0  0  0  0
    0.7255   -2.1639    3.6780 C   0  0  0  0  0  0  0  0  0  0  0  0
    0.9630   -0.7833    3.5705 C   0  0  0  0  0  0  0  0  0  0  0  0
    0.6752    0.0815    4.6686 C   0  0  0  0  0  0  0  0  0  0  0  0
    0.1279   -0.4831    5.8455 C   0  0  0  0  0  0  0  0  0  0  0  0
    0.8492    1.6182    4.5361 C   0  0  2  0  0  0  0  0  0  0  0  0
   -0.5359    2.1404    4.0477 C   0  0  0  0  0  0  0  0  0  0  0  0
   -0.9295    1.5889    2.6641 C   0  0  0  0  0  0  0  0  0  0  0  0
    0.1623    1.7425    1.6808 N   0  0  0  0  0  0  0  0  0  0  0  0
    1.5039    1.2818    2.1354 C   0  0  2  0  0  0  0  0  0  0  0  0
    1.5050   -0.2536    2.2486 C   0  0  0  0  0  0  0  0  0  0  0  0
    1.9407    1.9475    3.4838 C   0  0  2  0  0  0  0  0  0  0  0  0
    3.3280    1.3811    3.9774 C   0  0  0  0  0  0  0  0  0  0  0  0
    3.7705    1.6830    5.4286 C   0  0  0  0  0  0  0  0  0  0  0  0
    2.5993    1.6750    6.4211 C   0  0  1  0  0  0  0  0  0  0  0  0
    2.9643    2.3373    7.6184 O   0  0  0  0  0  0  0  0  0  0  0  0
    1.3227    2.3333    5.8531 C   0  0  1  0  0  0  0  0  0  0  0  0
    1.5215    3.8191    5.7383 N   0  0  2  0  0  0  0  0  0  0  0  0
    0.3206    4.6528    6.0045 C   0  0  0  0  0  0  0  0  0  0  0  0
    0.6744    5.9208    6.7511 C   0  0  0  0  0  0  0  0  0  0  0  0
    0.7943    5.9070    8.2550 C   0  0  0  0  0  0  0  0  0  0  0  0
   -0.3654    6.6164    7.6075 C   0  0  0  0  0  0  0  0  0  0  0  0
    2.3159    4.2891    4.5724 C   0  0  0  0  0  0  0  0  0  0  0  0
    2.0547    3.4930    3.2851 C   0  0  0  0  0  0  0  0  0  0  0  0
   -0.0030   -3.7616    4.9113 H   0  0  0  0  0  0  0  0  0  0  0  0
    0.9246   -2.8047    2.8343 H   0  0  0  0  0  0  0  0  0  0  0  0
   -0.1350    0.1379    6.6890 H   0  0  0  0  0  0  0  0  0  0  0  0
   -1.3072    1.8826    4.7778 H   0  0  0  0  0  0  0  0  0  0  0  0
   -0.5779    3.2207    3.9668 H   0  0  0  0  0  0  0  0  0  0  0  0
   -1.2353    0.5447    2.7390 H   0  0  0  0  0  0  0  0  0  0  0  0
   -1.8078    2.1260    2.3056 H   0  0  0  0  0  0  0  0  0  0  0  0
   -0.0962    1.2374    0.8357 H   0  0  0  0  0  0  0  0  0  0  0  0
    2.2071    1.5639    1.3481 H   0  0  0  0  0  0  0  0  0  0  0  0
    2.5231   -0.6204    2.1381 H   0  0  0  0  0  0  0  0  0  0  0  0
    0.9584   -0.6952    1.4188 H   0  0  0  0  0  0  0  0  0  0  0  0
    3.3692    0.2990    3.8927 H   0  0  0  0  0  0  0  0  0  0  0  0
    4.1045    1.7303    3.3110 H   0  0  0  0  0  0  0  0  0  0  0  0
    4.5041    0.9342    5.7325 H   0  0  0  0  0  0  0  0  0  0  0  0
    4.3313    2.6112    5.4939 H   0  0  0  0  0  0  0  0  0  0  0  0
    2.3966    0.6322    6.6671 H   0  0  0  0  0  0  0  0  0  0  0  0
    2.3512    2.1004    8.3023 H   0  0  0  0  0  0  0  0  0  0  0  0
    0.5690    2.1794    6.6173 H   0  0  0  0  0  0  0  0  0  0  0  0
   -0.1616    4.9710    5.0836 H   0  0  0  0  0  0  0  0  0  0  0  0
   -0.4186    4.1084    6.5920 H   0  0  0  0  0  0  0  0  0  0  0  0
    1.3377    6.5968    6.2086 H   0  0  0  0  0  0  0  0  0  0  0  0
    0.6055    4.9551    8.7494 H   0  0  0  0  0  0  0  0  0  0  0  0
    1.5845    6.5189    8.6884 H   0  0  0  0  0  0  0  0  0  0  0  0
   -0.3540    7.7048    7.6490 H   0  0  0  0  0  0  0  0  0  0  0  0
   -1.3486    6.1588    7.7009 H   0  0  0  0  0  0  0  0  0  0  0  0
    2.1244    5.3453    4.3815 H   0  0  0  0  0  0  0  0  0  0  0  0
    3.3724    4.2664    4.8123 H   0  0  0  0  0  0  0  0  0  0  0  0
    2.8323    3.7350    2.5520 H   0  0  0  0  0  0  0  0  0  0  0  0
    1.1357    3.9006    2.8633 H   0  0  0  0  0  0  0  0  0  0  0  0
    0.2146    2.7337    1.4214 H   0  0  0  0  0  0  0  0  0  0  0  0
    2.1101    4.0074    6.5398 H   0  0  0  0  0  0  0  0  0  0  0  0
  1  2  1  0
  2  7  2  0
  2  3  1  0
  3  4  2  0
  3 27  1  0
  4  5  1  0
  4 28  1  0
  5 13  1  0
  5  6  2  0
  6  7  1  0
  6  8  1  0
  7 29  1  0
  8 14  1  0
  8 19  1  0
  8  9  1  6
  9 10  1  0
  9 30  1  0
  9 31  1  0
 10 11  1  0
 10 32  1  0
 10 33  1  0
 11 12  1  0
 11 34  1  0
 11 56  1  0
 12 13  1  0
 12 14  1  0
 12 35  1  6
 13 36  1  0
 13 37  1  0
 14 26  1  6
 14 15  1  0
 15 16  1  0
 15 38  1  0
 15 39  1  0
 16 17  1  0
 16 40  1  0
 16 41  1  0
 17 18  1  0
 17 19  1  0
 17 42  1  1
 18 43  1  0
 19 20  1  0
 19 44  1  1
 20 21  1  0
 20 25  1  0
 20 57  1  1
 21 22  1  0
 21 45  1  0
 21 46  1  0
 22 24  1  0
 22 23  1  0
 22 47  1  0
 23 24  1  0
 23 48  1  0
 23 49  1  0
 24 50  1  0
 24 51  1  0
 25 26  1  0
 25 52  1  0
 25 53  1  0
 26 54  1  0
 26 55  1  0
M  CHG  3   1  -1  11   1  20   1
M  END
>  <i_m_ct_stereo_status>  (82) 
1

>  <s_m_source_file>  (82) 
/var/tmp/pbs.5076255.sched01/tmpaqd8m8vp/41rn73ajce.sdf

>  <i_m_source_file_index>  (82) 
3

>  <i_lp_mmshare_version>  (82) 
48012

>  <i_f3d_flags>  (82) 
0

>  <s_epik_input>  (82) 
W2NIXTFbY0hdYyhbT0hdKVtjSF1jMmMxW0NIMl1bQ0BASF0oW05IXVtDSDJdW0NIMl0zKVtDQEBdNChbQ0BdMjM1KVtDSDJdW0NIMl1bQ0BASF0oW09IXSlbQ0BIXTVOKFtDSDJdW0NIMl00KVtDSDJdW0NIXTZbQ0gyXVtDSDJdNg==

>  <s_epik_cmdline>  (82) 
J2VwaWtfcHl0aG9uJywgJy1waHQnLCAnMi4wJywgJy1waCcsICc3LjAnLCAnLXRuJywgJzgnLCAnLW1hJywgJzIwMCcsICctaW1hZScsICc8aW5maWxlLm1hZT4nLCAnLW9tYWUnLCAnPG91dGZpbGUubWFlPic=

>  <r_epik_Ionization_Penalty>  (82) 
2.33552

>  <r_epik_Ionization_Penalty_Charging>  (82) 
2.33552

>  <r_epik_Ionization_Penalty_Neutral>  (82) 
2.51905e-08

>  <r_epik_State_Penalty>  (82) 
2.46512

>  <r_epik_Charging_Adjusted_Penalty>  (82) 
4.80064

>  <i_epik_Tot_Q>  (82) 
1

>  <i_epik_Tot_abs_Q>  (82) 
3

>  <s_lp_Force_Field>  (82) 
OPLS3e

>  <r_lp_Energy>  (82) 
79.0178

>  <b_lp_Chiralities_Consistent>  (82) 
1

>  <s_lp_Variant>  (82) 
34:0-2

>  <s_i_glide_gridfile>  (82) 
pfpi4k_grid

>  <i_i_glide_lignum>  (82) 
3

>  <i_i_glide_rotatable_bonds>  (82) 
3

>  <r_i_docking_score>  (82) 
-3.73525

>  <r_i_glide_ligand_efficiency>  (82) 
-0.143664

>  <r_i_glide_ligand_efficiency_sa>  (82) 
-0.425603

>  <r_i_glide_ligand_efficiency_ln>  (82) 
-0.877211

>  <r_i_glide_gscore>  (82) 
-3.73525

>  <r_i_glide_lipo>  (82) 
-0.0483994

>  <r_i_glide_hbond>  (82) 
-0.381491

>  <r_i_glide_metal>  (82) 
-0

>  <r_i_glide_rewards>  (82) 
-1.28527

>  <r_i_glide_evdw>  (82) 
-17.9903

>  <r_i_glide_ecoul>  (82) 
-8.95053

>  <r_i_glide_erotb>  (82) 
0.302609

>  <r_i_glide_esite>  (82) 
-0.0806061

>  <r_i_glide_emodel>  (82) 
-38.5945

>  <r_i_glide_energy>  (82) 
-26.9408

>  <r_i_glide_einternal>  (82) 
0.675668

>  <r_i_glide_intrahb_reward>  (82) 
-0

>  <i_i_glide_confnum>  (82) 
5

>  <i_i_glide_posenum>  (82) 
21

>  <r_i_glide_eff_state_penalty>  (82) 
0

>  <ligand_id>  (82) 
34

>  <original_smiles>  (82) 
Oc1ccc2c(c1)C13CCNC(C2)C12CCC(O)C3N(CC1CC1)CC2

>  <smiles>  (82) 
[H]OC1([H])C([H])([H])C([H])([H])C23C([H])([H])C([H])([H])[N+]([H])(C([H])([H])C4([H])C([H])([H])C4([H])[H])C1([H])C21c2c([H])c([O-])c([H])c([H])c2C([H])([H])C3([H])[N+]([H])([H])C([H])([H])C1([H])[H]

$$$$
34:2:0
     RDKit          3D

 57 62  0  0  1  0  0  0  0  0999 V2000
    2.2164   -3.0494   -3.8360 O   0  0  0  0  0  0  0  0  0  0  0  0
    3.2678   -3.0606   -2.9851 C   0  0  0  0  0  0  0  0  0  0  0  0
    4.5619   -3.1513   -3.5200 C   0  0  0  0  0  0  0  0  0  0  0  0
    5.6867   -3.2020   -2.6711 C   0  0  0  0  0  0  0  0  0  0  0  0
    5.5047   -3.1840   -1.2702 C   0  0  0  0  0  0  0  0  0  0  0  0
    4.1963   -3.1148   -0.7084 C   0  0  0  0  0  0  0  0  0  0  0  0
    3.0786   -3.0416   -1.5855 C   0  0  0  0  0  0  0  0  0  0  0  0
    3.9913   -2.9787    0.8099 C   0  0  2  0  0  0  0  0  0  0  0  0
    3.9353   -1.4403    1.0809 C   0  0  0  0  0  0  0  0  0  0  0  0
    5.2619   -0.7522    0.7226 C   0  0  0  0  0  0  0  0  0  0  0  0
    6.4097   -1.4520    1.2861 N   0  0  0  0  0  0  0  0  0  0  0  0
    6.4720   -2.9019    1.0803 C   0  0  2  0  0  0  0  0  0  0  0  0
    6.7478   -3.2270   -0.3959 C   0  0  0  0  0  0  0  0  0  0  0  0
    5.1780   -3.6119    1.5952 C   0  0  2  0  0  0  0  0  0  0  0  0
    5.2267   -5.1668    1.3517 C   0  0  0  0  0  0  0  0  0  0  0  0
    3.9011   -5.9372    1.5669 C   0  0  0  0  0  0  0  0  0  0  0  0
    2.7028   -5.1839    0.9877 C   0  0  1  0  0  0  0  0  0  0  0  0
    1.4804   -5.8544    1.2579 O   0  0  0  0  0  0  0  0  0  0  0  0
    2.7184   -3.6730    1.3707 C   0  0  1  0  0  0  0  0  0  0  0  0
    2.5338   -3.3102    2.8025 N   0  0  0  0  0  0  0  0  0  0  0  0
    1.1816   -3.4402    3.3293 C   0  0  0  0  0  0  0  0  0  0  0  0
    1.0019   -3.0866    4.7890 C   0  0  0  0  0  0  0  0  0  0  0  0
   -0.2986   -2.5135    5.3017 C   0  0  0  0  0  0  0  0  0  0  0  0
    0.9305   -1.6436    5.2287 C   0  0  0  0  0  0  0  0  0  0  0  0
    3.6341   -3.6978    3.6944 C   0  0  0  0  0  0  0  0  0  0  0  0
    5.0311   -3.3632    3.1318 C   0  0  0  0  0  0  0  0  0  0  0  0
    1.3978   -3.2804   -3.4406 H   0  0  0  0  0  0  0  0  0  0  0  0
    4.6738   -3.2043   -4.5837 H   0  0  0  0  0  0  0  0  0  0  0  0
    6.6728   -3.2704   -3.0968 H   0  0  0  0  0  0  0  0  0  0  0  0
    2.0805   -2.9559   -1.2095 H   0  0  0  0  0  0  0  0  0  0  0  0
    3.1106   -0.9961    0.5257 H   0  0  0  0  0  0  0  0  0  0  0  0
    3.7055   -1.2185    2.1273 H   0  0  0  0  0  0  0  0  0  0  0  0
    5.3443   -0.6578   -0.3648 H   0  0  0  0  0  0  0  0  0  0  0  0
    5.2263    0.2772    1.1012 H   0  0  0  0  0  0  0  0  0  0  0  0
    7.2513   -1.0229    0.9052 H   0  0  0  0  0  0  0  0  0  0  0  0
    7.3223   -3.2875    1.6544 H   0  0  0  0  0  0  0  0  0  0  0  0
    7.1673   -4.2272   -0.4698 H   0  0  0  0  0  0  0  0  0  0  0  0
    7.5130   -2.5645   -0.8052 H   0  0  0  0  0  0  0  0  0  0  0  0
    5.5206   -5.3892    0.3275 H   0  0  0  0  0  0  0  0  0  0  0  0
    5.9941   -5.6151    1.9830 H   0  0  0  0  0  0  0  0  0  0  0  0
    3.9802   -6.9234    1.1019 H   0  0  0  0  0  0  0  0  0  0  0  0
    3.7306   -6.1457    2.6181 H   0  0  0  0  0  0  0  0  0  0  0  0
    2.8038   -5.2679   -0.0942 H   0  0  0  0  0  0  0  0  0  0  0  0
    1.5999   -6.7651    1.1092 H   0  0  0  0  0  0  0  0  0  0  0  0
    1.8966   -3.2140    0.8302 H   0  0  0  0  0  0  0  0  0  0  0  0
    0.5527   -2.7380    2.7770 H   0  0  0  0  0  0  0  0  0  0  0  0
    0.7749   -4.4318    3.1662 H   0  0  0  0  0  0  0  0  0  0  0  0
    1.4895   -3.7851    5.4760 H   0  0  0  0  0  0  0  0  0  0  0  0
   -1.0852   -2.3303    4.5729 H   0  0  0  0  0  0  0  0  0  0  0  0
   -0.6287   -2.8285    6.2872 H   0  0  0  0  0  0  0  0  0  0  0  0
    1.4259   -1.3841    6.1597 H   0  0  0  0  0  0  0  0  0  0  0  0
    0.9861   -0.8919    4.4402 H   0  0  0  0  0  0  0  0  0  0  0  0
    3.5770   -3.1225    4.6254 H   0  0  0  0  0  0  0  0  0  0  0  0
    3.5487   -4.7338    4.0095 H   0  0  0  0  0  0  0  0  0  0  0  0
    5.7908   -3.9035    3.6929 H   0  0  0  0  0  0  0  0  0  0  0  0
    5.2017   -2.3131    3.3682 H   0  0  0  0  0  0  0  0  0  0  0  0
    6.4213   -1.2740    2.2851 H   0  0  0  0  0  0  0  0  0  0  0  0
  1  2  1  0
  1 27  1  0
  2  7  2  0
  2  3  1  0
  3  4  2  0
  3 28  1  0
  4  5  1  0
  4 29  1  0
  5 13  1  0
  5  6  2  0
  6  7  1  0
  6  8  1  0
  7 30  1  0
  8 14  1  0
  8 19  1  0
  8  9  1  6
  9 10  1  0
  9 31  1  0
  9 32  1  0
 10 11  1  0
 10 33  1  0
 10 34  1  0
 11 12  1  0
 11 35  1  0
 11 57  1  0
 12 13  1  0
 12 14  1  0
 12 36  1  1
 13 37  1  0
 13 38  1  0
 14 26  1  1
 14 15  1  0
 15 16  1  0
 15 39  1  0
 15 40  1  0
 16 17  1  0
 16 41  1  0
 16 42  1  0
 17 18  1  0
 17 19  1  0
 17 43  1  6
 18 44  1  0
 19 20  1  0
 19 45  1  6
 20 21  1  0
 20 25  1  0
 21 22  1  0
 21 46  1  0
 21 47  1  0
 22 24  1  0
 22 23  1  0
 22 48  1  0
 23 24  1  0
 23 49  1  0
 23 50  1  0
 24 51  1  0
 24 52  1  0
 25 26  1  0
 25 53  1  0
 25 54  1  0
 26 55  1  0
 26 56  1  0
M  CHG  1  11   1
M  END
>  <i_m_ct_stereo_status>  (83) 
1

>  <s_m_source_file>  (83) 
/var/tmp/pbs.5076255.sched01/tmpaqd8m8vp/41rn73ajce.sdf

>  <i_m_source_file_index>  (83) 
4

>  <i_lp_mmshare_version>  (83) 
48012

>  <i_f3d_flags>  (83) 
0

>  <s_epik_input>  (83) 
W2NIXTFbY0hdYyhbT0hdKVtjSF1jMmMxW0NIMl1bQ0BASF0oW05IXVtDSDJdW0NIMl0zKVtDQEBdNChbQ0BdMjM1KVtDSDJdW0NIMl1bQ0BASF0oW09IXSlbQ0BIXTVOKFtDSDJdW0NIMl00KVtDSDJdW0NIXTZbQ0gyXVtDSDJdNg==

>  <s_epik_cmdline>  (83) 
J2VwaWtfcHl0aG9uJywgJy1waHQnLCAnMi4wJywgJy1waCcsICc3LjAnLCAnLXRuJywgJzgnLCAnLW1hJywgJzIwMCcsICctaW1hZScsICc8aW5maWxlLm1hZT4nLCAnLW9tYWUnLCAnPG91dGZpbGUubWFlPic=

>  <r_epik_Ionization_Penalty>  (83) 
2.35906

>  <r_epik_Ionization_Penalty_Charging>  (83) 
0.00123976

>  <r_epik_Ionization_Penalty_Neutral>  (83) 
2.35782

>  <r_epik_State_Penalty>  (83) 
2.52098

>  <r_epik_Charging_Adjusted_Penalty>  (83) 
2.52222

>  <i_epik_Tot_Q>  (83) 
1

>  <i_epik_Tot_abs_Q>  (83) 
1

>  <s_lp_Force_Field>  (83) 
OPLS3e

>  <r_lp_Energy>  (83) 
75.6389

>  <b_lp_Chiralities_Consistent>  (83) 
1

>  <s_lp_Variant>  (83) 
34:0-3

>  <s_i_glide_gridfile>  (83) 
pfpi4k_grid

>  <i_i_glide_lignum>  (83) 
4

>  <i_i_glide_rotatable_bonds>  (83) 
4

>  <r_i_docking_score>  (83) 
-4.17327

>  <r_i_glide_ligand_efficiency>  (83) 
-0.16051

>  <r_i_glide_ligand_efficiency_sa>  (83) 
-0.475511

>  <r_i_glide_ligand_efficiency_ln>  (83) 
-0.980078

>  <r_i_glide_gscore>  (83) 
-4.17327

>  <r_i_glide_lipo>  (83) 
-1.10217

>  <r_i_glide_hbond>  (83) 
-0.289383

>  <r_i_glide_metal>  (83) 
-0

>  <r_i_glide_rewards>  (83) 
-0.98527

>  <r_i_glide_evdw>  (83) 
-25.0893

>  <r_i_glide_ecoul>  (83) 
-5.63058

>  <r_i_glide_erotb>  (83) 
0.302609

>  <r_i_glide_esite>  (83) 
0

>  <r_i_glide_emodel>  (83) 
-36.6592

>  <r_i_glide_energy>  (83) 
-30.7199

>  <r_i_glide_einternal>  (83) 
3.0591

>  <r_i_glide_intrahb_reward>  (83) 
-0

>  <i_i_glide_confnum>  (83) 
2

>  <i_i_glide_posenum>  (83) 
11

>  <r_i_glide_eff_state_penalty>  (83) 
0

>  <ligand_id>  (83) 
34

>  <original_smiles>  (83) 
Oc1ccc2c(c1)C13CCNC(C2)C12CCC(O)C3N(CC1CC1)CC2

>  <smiles>  (83) 
[H]Oc1c([H])c([H])c2c(c1[H])C13C([H])([H])C([H])([H])[N+]([H])([H])C([H])(C2([H])[H])C12C([H])([H])C([H])([H])N(C([H])([H])C1([H])C([H])([H])C1([H])[H])C3([H])C([H])(O[H])C([H])([H])C2([H])[H]

$$$$
34:2:1
     RDKit          3D

 57 62  0  0  1  0  0  0  0  0999 V2000
    2.2246   -3.2218   -3.9055 O   0  0  0  0  0  0  0  0  0  0  0  0
    2.9980   -2.6928   -2.9255 C   0  0  0  0  0  0  0  0  0  0  0  0
    3.8616   -1.6204   -3.2233 C   0  0  0  0  0  0  0  0  0  0  0  0
    4.6676   -1.0648   -2.2040 C   0  0  0  0  0  0  0  0  0  0  0  0
    4.6205   -1.5894   -0.8990 C   0  0  0  0  0  0  0  0  0  0  0  0
    3.7583   -2.6719   -0.5817 C   0  0  0  0  0  0  0  0  0  0  0  0
    2.9364   -3.2039   -1.6110 C   0  0  0  0  0  0  0  0  0  0  0  0
    3.6033   -3.1690    0.8716 C   0  0  2  0  0  0  0  0  0  0  0  0
    2.4254   -2.3537    1.4771 C   0  0  0  0  0  0  0  0  0  0  0  0
    2.7183   -0.8447    1.5242 C   0  0  0  0  0  0  0  0  0  0  0  0
    4.0245   -0.5720    2.1189 N   0  0  0  0  0  0  0  0  0  0  0  0
    5.1579   -1.3576    1.6077 C   0  0  2  0  0  0  0  0  0  0  0  0
    5.4948   -0.9376    0.1657 C   0  0  0  0  0  0  0  0  0  0  0  0
    4.8933   -2.8996    1.7020 C   0  0  2  0  0  0  0  0  0  0  0  0
    6.1032   -3.7252    1.1248 C   0  0  0  0  0  0  0  0  0  0  0  0
    5.8519   -5.2339    0.9199 C   0  0  0  0  0  0  0  0  0  0  0  0
    4.4774   -5.4945    0.3187 C   0  0  1  0  0  0  0  0  0  0  0  0
    4.2338   -6.8712    0.2110 O   0  0  0  0  0  0  0  0  0  0  0  0
    3.3370   -4.6979    1.0076 C   0  0  1  0  0  0  0  0  0  0  0  0
    3.0173   -5.0258    2.4190 N   0  0  0  0  0  0  0  0  0  0  0  0
    2.3223   -6.2799    2.6615 C   0  0  0  0  0  0  0  0  0  0  0  0
    0.8569   -6.1525    2.3047 C   0  0  0  0  0  0  0  0  0  0  0  0
   -0.0905   -7.3244    2.4208 C   0  0  0  0  0  0  0  0  0  0  0  0
    0.2794   -6.7922    1.0627 C   0  0  0  0  0  0  0  0  0  0  0  0
    4.0582   -4.7022    3.4000 C   0  0  0  0  0  0  0  0  0  0  0  0
    4.6838   -3.2996    3.2001 C   0  0  0  0  0  0  0  0  0  0  0  0
    1.6194   -3.8992   -3.6120 H   0  0  0  0  0  0  0  0  0  0  0  0
    3.8934   -1.2076   -4.2155 H   0  0  0  0  0  0  0  0  0  0  0  0
    5.3032   -0.2236   -2.4189 H   0  0  0  0  0  0  0  0  0  0  0  0
    2.2435   -3.9974   -1.4095 H   0  0  0  0  0  0  0  0  0  0  0  0
    1.5313   -2.5004    0.8842 H   0  0  0  0  0  0  0  0  0  0  0  0
    2.1539   -2.6824    2.4833 H   0  0  0  0  0  0  0  0  0  0  0  0
    2.6389   -0.4221    0.5167 H   0  0  0  0  0  0  0  0  0  0  0  0
    1.9307   -0.3579    2.1105 H   0  0  0  0  0  0  0  0  0  0  0  0
    4.2123    0.4163    1.9644 H   0  0  0  0  0  0  0  0  0  0  0  0
    6.0247   -1.1118    2.2317 H   0  0  0  0  0  0  0  0  0  0  0  0
    6.5307   -1.2000   -0.0482 H   0  0  0  0  0  0  0  0  0  0  0  0
    5.4444    0.1352    0.0787 H   0  0  0  0  0  0  0  0  0  0  0  0
    6.3968   -3.3520    0.1481 H   0  0  0  0  0  0  0  0  0  0  0  0
    6.9777   -3.6049    1.7591 H   0  0  0  0  0  0  0  0  0  0  0  0
    6.6208   -5.6446    0.2642 H   0  0  0  0  0  0  0  0  0  0  0  0
    5.9595   -5.7901    1.8433 H   0  0  0  0  0  0  0  0  0  0  0  0
    4.5489   -5.1735   -0.7163 H   0  0  0  0  0  0  0  0  0  0  0  0
    3.7119   -7.0100   -0.5568 H   0  0  0  0  0  0  0  0  0  0  0  0
    2.4388   -4.9191    0.4290 H   0  0  0  0  0  0  0  0  0  0  0  0
    2.7657   -7.1183    2.1349 H   0  0  0  0  0  0  0  0  0  0  0  0
    2.3630   -6.5260    3.7202 H   0  0  0  0  0  0  0  0  0  0  0  0
    0.4461   -5.1965    2.6294 H   0  0  0  0  0  0  0  0  0  0  0  0
    0.3408   -8.2743    2.7409 H   0  0  0  0  0  0  0  0  0  0  0  0
   -1.1027   -7.1286    2.7726 H   0  0  0  0  0  0  0  0  0  0  0  0
   -0.4924   -6.2583    0.5123 H   0  0  0  0  0  0  0  0  0  0  0  0
    0.9618   -7.3868    0.4556 H   0  0  0  0  0  0  0  0  0  0  0  0
    3.6273   -4.7062    4.4072 H   0  0  0  0  0  0  0  0  0  0  0  0
    4.8065   -5.4833    3.4290 H   0  0  0  0  0  0  0  0  0  0  0  0
    5.6185   -3.2260    3.7562 H   0  0  0  0  0  0  0  0  0  0  0  0
    4.0135   -2.5984    3.6974 H   0  0  0  0  0  0  0  0  0  0  0  0
    3.9498   -0.7300    3.1138 H   0  0  0  0  0  0  0  0  0  0  0  0
  1  2  1  0
  1 27  1  0
  2  7  2  0
  2  3  1  0
  3  4  2  0
  3 28  1  0
  4  5  1  0
  4 29  1  0
  5 13  1  0
  5  6  2  0
  6  7  1  0
  6  8  1  0
  7 30  1  0
  8 14  1  0
  8 19  1  0
  8  9  1  1
  9 10  1  0
  9 31  1  0
  9 32  1  0
 10 11  1  0
 10 33  1  0
 10 34  1  0
 11 12  1  0
 11 35  1  0
 11 57  1  0
 12 13  1  0
 12 14  1  0
 12 36  1  1
 13 37  1  0
 13 38  1  0
 14 26  1  1
 14 15  1  0
 15 16  1  0
 15 39  1  0
 15 40  1  0
 16 17  1  0
 16 41  1  0
 16 42  1  0
 17 18  1  0
 17 19  1  0
 17 43  1  6
 18 44  1  0
 19 20  1  0
 19 45  1  6
 20 21  1  0
 20 25  1  0
 21 22  1  0
 21 46  1  0
 21 47  1  0
 22 24  1  0
 22 23  1  0
 22 48  1  0
 23 24  1  0
 23 49  1  0
 23 50  1  0
 24 51  1  0
 24 52  1  0
 25 26  1  0
 25 53  1  0
 25 54  1  0
 26 55  1  0
 26 56  1  0
M  CHG  1  11   1
M  END
>  <i_m_ct_stereo_status>  (84) 
1

>  <s_m_source_file>  (84) 
/var/tmp/pbs.5076255.sched01/tmpaqd8m8vp/41rn73ajce.sdf

>  <i_m_source_file_index>  (84) 
4

>  <i_lp_mmshare_version>  (84) 
48012

>  <i_f3d_flags>  (84) 
0

>  <s_epik_input>  (84) 
W2NIXTFbY0hdYyhbT0hdKVtjSF1jMmMxW0NIMl1bQ0BASF0oW05IXVtDSDJdW0NIMl0zKVtDQEBdNChbQ0BdMjM1KVtDSDJdW0NIMl1bQ0BASF0oW09IXSlbQ0BIXTVOKFtDSDJdW0NIMl00KVtDSDJdW0NIXTZbQ0gyXVtDSDJdNg==

>  <s_epik_cmdline>  (84) 
J2VwaWtfcHl0aG9uJywgJy1waHQnLCAnMi4wJywgJy1waCcsICc3LjAnLCAnLXRuJywgJzgnLCAnLW1hJywgJzIwMCcsICctaW1hZScsICc8aW5maWxlLm1hZT4nLCAnLW9tYWUnLCAnPG91dGZpbGUubWFlPic=

>  <r_epik_Ionization_Penalty>  (84) 
2.35906

>  <r_epik_Ionization_Penalty_Charging>  (84) 
0.00123976

>  <r_epik_Ionization_Penalty_Neutral>  (84) 
2.35782

>  <r_epik_State_Penalty>  (84) 
2.52098

>  <r_epik_Charging_Adjusted_Penalty>  (84) 
2.52222

>  <i_epik_Tot_Q>  (84) 
1

>  <i_epik_Tot_abs_Q>  (84) 
1

>  <s_lp_Force_Field>  (84) 
OPLS3e

>  <r_lp_Energy>  (84) 
75.6389

>  <b_lp_Chiralities_Consistent>  (84) 
1

>  <s_lp_Variant>  (84) 
34:0-3

>  <s_i_glide_gridfile>  (84) 
pfpi4k_grid

>  <i_i_glide_lignum>  (84) 
4

>  <i_i_glide_rotatable_bonds>  (84) 
4

>  <r_i_docking_score>  (84) 
-4.05544

>  <r_i_glide_ligand_efficiency>  (84) 
-0.155979

>  <r_i_glide_ligand_efficiency_sa>  (84) 
-0.462086

>  <r_i_glide_ligand_efficiency_ln>  (84) 
-0.952408

>  <r_i_glide_gscore>  (84) 
-4.05544

>  <r_i_glide_lipo>  (84) 
-0.635655

>  <r_i_glide_hbond>  (84) 
-0.401772

>  <r_i_glide_metal>  (84) 
-0

>  <r_i_glide_rewards>  (84) 
-0.98527

>  <r_i_glide_evdw>  (84) 
-26.9965

>  <r_i_glide_ecoul>  (84) 
-6.57022

>  <r_i_glide_erotb>  (84) 
0.302609

>  <r_i_glide_esite>  (84) 
0

>  <r_i_glide_emodel>  (84) 
-40.155

>  <r_i_glide_energy>  (84) 
-33.5667

>  <r_i_glide_einternal>  (84) 
1.5574

>  <r_i_glide_intrahb_reward>  (84) 
-0

>  <i_i_glide_confnum>  (84) 
2

>  <i_i_glide_posenum>  (84) 
4

>  <r_i_glide_eff_state_penalty>  (84) 
0

>  <ligand_id>  (84) 
34

>  <original_smiles>  (84) 
Oc1ccc2c(c1)C13CCNC(C2)C12CCC(O)C3N(CC1CC1)CC2

>  <smiles>  (84) 
[H]Oc1c([H])c([H])c2c(c1[H])C13C([H])([H])C([H])([H])[N+]([H])([H])C([H])(C2([H])[H])C12C([H])([H])C([H])([H])N(C([H])([H])C1([H])C([H])([H])C1([H])[H])C3([H])C([H])(O[H])C([H])([H])C2([H])[H]

$$$$
34:2:2
     RDKit          3D

 57 62  0  0  1  0  0  0  0  0999 V2000
    2.5394   -3.4507   -3.8514 O   0  0  0  0  0  0  0  0  0  0  0  0
    3.2334   -2.8580   -2.8463 C   0  0  0  0  0  0  0  0  0  0  0  0
    4.0850   -1.7772   -3.1393 C   0  0  0  0  0  0  0  0  0  0  0  0
    4.8179   -1.1629   -2.0979 C   0  0  0  0  0  0  0  0  0  0  0  0
    4.7146   -1.6435   -0.7755 C   0  0  0  0  0  0  0  0  0  0  0  0
    3.8551   -2.7335   -0.4649 C   0  0  0  0  0  0  0  0  0  0  0  0
    3.1013   -3.3203   -1.5174 C   0  0  0  0  0  0  0  0  0  0  0  0
    3.6345   -3.1826    0.9922 C   0  0  2  0  0  0  0  0  0  0  0  0
    2.4085   -2.3635    1.5049 C   0  0  0  0  0  0  0  0  0  0  0  0
    2.6729   -0.8514    1.5074 C   0  0  0  0  0  0  0  0  0  0  0  0
    3.9415   -0.5252    2.1540 N   0  0  0  0  0  0  0  0  0  0  0  0
    5.1161   -1.3106    1.7364 C   0  0  2  0  0  0  0  0  0  0  0  0
    5.5245   -0.9369    0.3011 C   0  0  0  0  0  0  0  0  0  0  0  0
    4.8722   -2.8509    1.8790 C   0  0  2  0  0  0  0  0  0  0  0  0
    6.1222   -3.6809    1.3980 C   0  0  0  0  0  0  0  0  0  0  0  0
    5.9108   -5.2014    1.2330 C   0  0  0  0  0  0  0  0  0  0  0  0
    4.5730   -5.5163    0.5671 C   0  0  1  0  0  0  0  0  0  0  0  0
    4.3436   -6.9022    0.5230 O   0  0  0  0  0  0  0  0  0  0  0  0
    3.3929   -4.7113    1.1732 C   0  0  1  0  0  0  0  0  0  0  0  0
    3.0089   -4.9982    2.5787 N   0  0  0  0  0  0  0  0  0  0  0  0
    2.3058   -6.2451    2.8380 C   0  0  0  0  0  0  0  0  0  0  0  0
    0.8764   -6.1757    2.3468 C   0  0  0  0  0  0  0  0  0  0  0  0
    0.0019   -7.4105    2.2994 C   0  0  0  0  0  0  0  0  0  0  0  0
    0.4730   -6.7751    1.0205 C   0  0  0  0  0  0  0  0  0  0  0  0
    3.9843   -4.6084    3.6036 C   0  0  0  0  0  0  0  0  0  0  0  0
    4.5902   -3.2001    3.3797 C   0  0  0  0  0  0  0  0  0  0  0  0
    1.9695   -4.1385   -3.5443 H   0  0  0  0  0  0  0  0  0  0  0  0
    4.1644   -1.4063   -4.1444 H   0  0  0  0  0  0  0  0  0  0  0  0
    5.4364   -0.3129   -2.3147 H   0  0  0  0  0  0  0  0  0  0  0  0
    2.4169   -4.1226   -1.3243 H   0  0  0  0  0  0  0  0  0  0  0  0
    1.5574   -2.5636    0.8711 H   0  0  0  0  0  0  0  0  0  0  0  0
    2.0918   -2.6658    2.5074 H   0  0  0  0  0  0  0  0  0  0  0  0
    2.6387   -0.4673    0.4840 H   0  0  0  0  0  0  0  0  0  0  0  0
    1.8456   -0.3545    2.0289 H   0  0  0  0  0  0  0  0  0  0  0  0
    4.1196    0.4596    1.9761 H   0  0  0  0  0  0  0  0  0  0  0  0
    5.9415   -1.0221    2.3961 H   0  0  0  0  0  0  0  0  0  0  0  0
    6.5721   -1.1848    0.1434 H   0  0  0  0  0  0  0  0  0  0  0  0
    5.4600    0.1388    0.1614 H   0  0  0  0  0  0  0  0  0  0  0  0
    6.4672   -3.3376    0.4243 H   0  0  0  0  0  0  0  0  0  0  0  0
    6.9588   -3.5234    2.0750 H   0  0  0  0  0  0  0  0  0  0  0  0
    6.7248   -5.6209    0.6376 H   0  0  0  0  0  0  0  0  0  0  0  0
    5.9835   -5.7156    2.1862 H   0  0  0  0  0  0  0  0  0  0  0  0
    4.6798   -5.2399   -0.4810 H   0  0  0  0  0  0  0  0  0  0  0  0
    4.2772   -7.2311    1.3958 H   0  0  0  0  0  0  0  0  0  0  0  0
    2.5257   -4.9666    0.5626 H   0  0  0  0  0  0  0  0  0  0  0  0
    2.7982   -7.1094    2.4015 H   0  0  0  0  0  0  0  0  0  0  0  0
    2.2586   -6.4347    3.9098 H   0  0  0  0  0  0  0  0  0  0  0  0
    0.3738   -5.2611    2.6587 H   0  0  0  0  0  0  0  0  0  0  0  0
    0.4634   -8.3513    2.6026 H   0  0  0  0  0  0  0  0  0  0  0  0
   -1.0526   -7.3053    2.5455 H   0  0  0  0  0  0  0  0  0  0  0  0
   -0.2646   -6.2579    0.4140 H   0  0  0  0  0  0  0  0  0  0  0  0
    1.2638   -7.2823    0.4821 H   0  0  0  0  0  0  0  0  0  0  0  0
    3.4863   -4.5758    4.5796 H   0  0  0  0  0  0  0  0  0  0  0  0
    4.7542   -5.3627    3.7257 H   0  0  0  0  0  0  0  0  0  0  0  0
    5.4908   -3.0800    3.9806 H   0  0  0  0  0  0  0  0  0  0  0  0
    3.8811   -2.4930    3.8101 H   0  0  0  0  0  0  0  0  0  0  0  0
    3.8178   -0.6428    3.1532 H   0  0  0  0  0  0  0  0  0  0  0  0
  1  2  1  0
  1 27  1  0
  2  7  2  0
  2  3  1  0
  3  4  2  0
  3 28  1  0
  4  5  1  0
  4 29  1  0
  5 13  1  0
  5  6  2  0
  6  7  1  0
  6  8  1  0
  7 30  1  0
  8 14  1  0
  8 19  1  0
  8  9  1  1
  9 10  1  0
  9 31  1  0
  9 32  1  0
 10 11  1  0
 10 33  1  0
 10 34  1  0
 11 12  1  0
 11 35  1  0
 11 57  1  0
 12 13  1  0
 12 14  1  0
 12 36  1  1
 13 37  1  0
 13 38  1  0
 14 26  1  1
 14 15  1  0
 15 16  1  0
 15 39  1  0
 15 40  1  0
 16 17  1  0
 16 41  1  0
 16 42  1  0
 17 18  1  0
 17 19  1  0
 17 43  1  6
 18 44  1  0
 19 20  1  0
 19 45  1  6
 20 21  1  0
 20 25  1  0
 21 22  1  0
 21 46  1  0
 21 47  1  0
 22 24  1  0
 22 23  1  0
 22 48  1  0
 23 24  1  0
 23 49  1  0
 23 50  1  0
 24 51  1  0
 24 52  1  0
 25 26  1  0
 25 53  1  0
 25 54  1  0
 26 55  1  0
 26 56  1  0
M  CHG  1  11   1
M  END
>  <i_m_ct_stereo_status>  (85) 
1

>  <s_m_source_file>  (85) 
/var/tmp/pbs.5076255.sched01/tmpaqd8m8vp/41rn73ajce.sdf

>  <i_m_source_file_index>  (85) 
4

>  <i_lp_mmshare_version>  (85) 
48012

>  <i_f3d_flags>  (85) 
0

>  <s_epik_input>  (85) 
W2NIXTFbY0hdYyhbT0hdKVtjSF1jMmMxW0NIMl1bQ0BASF0oW05IXVtDSDJdW0NIMl0zKVtDQEBdNChbQ0BdMjM1KVtDSDJdW0NIMl1bQ0BASF0oW09IXSlbQ0BIXTVOKFtDSDJdW0NIMl00KVtDSDJdW0NIXTZbQ0gyXVtDSDJdNg==

>  <s_epik_cmdline>  (85) 
J2VwaWtfcHl0aG9uJywgJy1waHQnLCAnMi4wJywgJy1waCcsICc3LjAnLCAnLXRuJywgJzgnLCAnLW1hJywgJzIwMCcsICctaW1hZScsICc8aW5maWxlLm1hZT4nLCAnLW9tYWUnLCAnPG91dGZpbGUubWFlPic=

>  <r_epik_Ionization_Penalty>  (85) 
2.35906

>  <r_epik_Ionization_Penalty_Charging>  (85) 
0.00123976

>  <r_epik_Ionization_Penalty_Neutral>  (85) 
2.35782

>  <r_epik_State_Penalty>  (85) 
2.52098

>  <r_epik_Charging_Adjusted_Penalty>  (85) 
2.52222

>  <i_epik_Tot_Q>  (85) 
1

>  <i_epik_Tot_abs_Q>  (85) 
1

>  <s_lp_Force_Field>  (85) 
OPLS3e

>  <r_lp_Energy>  (85) 
75.6389

>  <b_lp_Chiralities_Consistent>  (85) 
1

>  <s_lp_Variant>  (85) 
34:0-3

>  <s_i_glide_gridfile>  (85) 
pfpi4k_grid

>  <i_i_glide_lignum>  (85) 
4

>  <i_i_glide_rotatable_bonds>  (85) 
4

>  <r_i_docking_score>  (85) 
-3.74477

>  <r_i_glide_ligand_efficiency>  (85) 
-0.14403

>  <r_i_glide_ligand_efficiency_sa>  (85) 
-0.426687

>  <r_i_glide_ligand_efficiency_ln>  (85) 
-0.879446

>  <r_i_glide_gscore>  (85) 
-3.74477

>  <r_i_glide_lipo>  (85) 
-0.709487

>  <r_i_glide_hbond>  (85) 
-0.184898

>  <r_i_glide_metal>  (85) 
-0

>  <r_i_glide_rewards>  (85) 
-0.98527

>  <r_i_glide_evdw>  (85) 
-26.314

>  <r_i_glide_ecoul>  (85) 
-5.68015

>  <r_i_glide_erotb>  (85) 
0.302609

>  <r_i_glide_esite>  (85) 
0

>  <r_i_glide_emodel>  (85) 
-38.6095

>  <r_i_glide_energy>  (85) 
-31.9941

>  <r_i_glide_einternal>  (85) 
0.526445

>  <r_i_glide_intrahb_reward>  (85) 
-0

>  <i_i_glide_confnum>  (85) 
2

>  <i_i_glide_posenum>  (85) 
3

>  <r_i_glide_eff_state_penalty>  (85) 
0

>  <ligand_id>  (85) 
34

>  <original_smiles>  (85) 
Oc1ccc2c(c1)C13CCNC(C2)C12CCC(O)C3N(CC1CC1)CC2

>  <smiles>  (85) 
[H]Oc1c([H])c([H])c2c(c1[H])C13C([H])([H])C([H])([H])[N+]([H])([H])C([H])(C2([H])[H])C12C([H])([H])C([H])([H])N(C([H])([H])C1([H])C([H])([H])C1([H])[H])C3([H])C([H])(O[H])C([H])([H])C2([H])[H]

$$$$
35:0:0
     RDKit          3D

 48 54  0  0  1  0  0  0  0  0999 V2000
   -1.6430   -7.4831    3.1561 O   0  0  0  0  0  0  0  0  0  0  0  0
   -0.6277   -8.0750    2.3723 C   0  0  2  0  0  0  0  0  0  0  0  0
   -0.1929   -9.3898    2.9602 C   0  0  0  0  0  0  0  0  0  0  0  0
    1.1006   -9.4504    3.2490 C   0  0  0  0  0  0  0  0  0  0  0  0
    1.8565   -8.2079    2.8403 C   0  0  2  0  0  0  0  0  0  0  0  0
    2.3980   -7.3318    3.9921 C   0  0  2  0  0  0  0  0  0  0  0  0
    1.0807   -6.6278    4.3041 C   0  0  0  0  0  0  0  0  0  0  0  0
    0.8875   -5.8689    2.9381 C   0  0  1  0  0  0  0  0  0  0  0  0
    0.7318   -7.2989    2.2544 C   0  0  2  0  0  0  0  0  0  0  0  0
    2.1264   -5.0547    3.4944 C   0  0  1  0  0  0  0  0  0  0  0  0
    3.2203   -6.0923    3.4999 C   0  0  2  0  0  0  0  0  0  0  0  0
    3.3257   -5.8391    1.9976 C   0  0  2  0  0  0  0  0  0  0  0  0
    3.6099   -4.3807    1.5914 C   0  0  1  0  0  0  0  0  0  0  0  0
    3.8094   -3.9832    0.1359 C   0  0  0  0  0  0  0  0  0  0  0  0
    5.2112   -3.9135   -0.0886 O   0  0  0  0  0  0  0  0  0  0  0  0
    5.5734   -3.8877   -1.4566 C   0  0  0  0  0  0  0  0  0  0  0  0
    4.8514   -2.8251   -2.2634 C   0  0  0  0  0  0  0  0  0  0  0  0
    3.9646   -3.1975   -3.2818 C   0  0  0  0  0  0  0  0  0  0  0  0
    3.2014   -2.2347   -3.9592 C   0  0  0  0  0  0  0  0  0  0  0  0
    3.3656   -0.8659   -3.6482 C   0  0  0  0  0  0  0  0  0  0  0  0
    4.2578   -0.4949   -2.6371 C   0  0  0  0  0  0  0  0  0  0  0  0
    5.0001   -1.4551   -1.9254 C   0  0  0  0  0  0  0  0  0  0  0  0
    5.8162   -1.0778   -0.9212 F   0  0  0  0  0  0  0  0  0  0  0  0
    2.2846   -4.1725    2.3149 C   0  0  1  0  0  0  0  0  0  0  0  0
    1.8608   -5.4622    1.7420 C   0  0  2  0  0  0  0  0  0  0  0  0
   -2.1474   -8.1862    3.5289 H   0  0  0  0  0  0  0  0  0  0  0  0
   -1.0427   -8.2778    1.3877 H   0  0  0  0  0  0  0  0  0  0  0  0
   -0.8797  -10.2159    3.0741 H   0  0  0  0  0  0  0  0  0  0  0  0
    1.5885  -10.3360    3.6301 H   0  0  0  0  0  0  0  0  0  0  0  0
    2.6184   -8.4862    2.1097 H   0  0  0  0  0  0  0  0  0  0  0  0
    2.8360   -7.8711    4.8345 H   0  0  0  0  0  0  0  0  0  0  0  0
    0.2856   -7.3036    4.6049 H   0  0  0  0  0  0  0  0  0  0  0  0
    1.1113   -6.0146    5.2100 H   0  0  0  0  0  0  0  0  0  0  0  0
    0.8762   -7.3276    1.1704 H   0  0  0  0  0  0  0  0  0  0  0  0
    1.9894   -4.4011    4.3644 H   0  0  0  0  0  0  0  0  0  0  0  0
    4.1053   -5.8099    4.0786 H   0  0  0  0  0  0  0  0  0  0  0  0
    3.7041   -6.6128    1.3259 H   0  0  0  0  0  0  0  0  0  0  0  0
    4.3943   -3.9673    2.2298 H   0  0  0  0  0  0  0  0  0  0  0  0
    3.3458   -4.6933   -0.5484 H   0  0  0  0  0  0  0  0  0  0  0  0
    3.3752   -2.9994   -0.0549 H   0  0  0  0  0  0  0  0  0  0  0  0
    6.6464   -3.7302   -1.5509 H   0  0  0  0  0  0  0  0  0  0  0  0
    5.3489   -4.8737   -1.8572 H   0  0  0  0  0  0  0  0  0  0  0  0
    3.8192   -4.2510   -3.5203 H   0  0  0  0  0  0  0  0  0  0  0  0
    2.4953   -2.5462   -4.7073 H   0  0  0  0  0  0  0  0  0  0  0  0
    2.7836   -0.1126   -4.1654 H   0  0  0  0  0  0  0  0  0  0  0  0
    4.3548    0.5538   -2.3676 H   0  0  0  0  0  0  0  0  0  0  0  0
    1.5990   -3.3554    2.1070 H   0  0  0  0  0  0  0  0  0  0  0  0
    1.4955   -5.3402    0.7198 H   0  0  0  0  0  0  0  0  0  0  0  0
  1  2  1  0
  1 26  1  0
  2  9  1  0
  2  3  1  0
  2 27  1  6
  3  4  2  0
  3 28  1  0
  4  5  1  0
  4 29  1  0
  5  9  1  0
  5  6  1  0
  5 30  1  6
  6 11  1  0
  6  7  1  0
  6 31  1  1
  8  7  1  1
  7 32  1  0
  7 33  1  0
  8 25  1  0
  8  9  1  0
  8 10  1  0
  9 34  1  6
 10 24  1  0
 10 11  1  0
 10 35  1  1
 11 12  1  0
 11 36  1  1
 12 25  1  0
 12 13  1  0
 12 37  1  6
 13 14  1  0
 13 24  1  0
 13 38  1  1
 14 15  1  0
 14 39  1  0
 14 40  1  0
 15 16  1  0
 16 17  1  0
 16 41  1  0
 16 42  1  0
 17 22  1  0
 17 18  2  0
 18 19  1  0
 18 43  1  0
 19 20  2  0
 19 44  1  0
 20 21  1  0
 20 45  1  0
 21 22  2  0
 21 46  1  0
 22 23  1  0
 24 25  1  0
 24 47  1  1
 25 48  1  6
M  END
>  <i_m_ct_stereo_status>  (86) 
1

>  <s_m_source_file>  (86) 
/var/tmp/pbs.5076255.sched01/tmpaqd8m8vp/41rn73ajce.sdf

>  <i_m_source_file_index>  (86) 
5

>  <i_lp_mmshare_version>  (86) 
48012

>  <i_f3d_flags>  (86) 
0

>  <s_epik_input>  (86) 
W09IXVtDQEBIXTFbQ0hdPVtDSF1bQ0BASF0oW0NAQEhdMUMyMzQpW0NASF0oW0NIMl0yKVtDQEBIXTVbQ0BIXTNbQ0BASF02W0NASF00W0NASF01W0NASF02W0NIMl1PW0NIMl1jN1tjSF1bY0hdW2NIXVtjSF1jN0Y=

>  <s_epik_cmdline>  (86) 
J2VwaWtfcHl0aG9uJywgJy1waHQnLCAnMi4wJywgJy1waCcsICc3LjAnLCAnLXRuJywgJzgnLCAnLW1hJywgJzIwMCcsICctaW1hZScsICc8aW5maWxlLm1hZT4nLCAnLW9tYWUnLCAnPG91dGZpbGUubWFlPic=

>  <r_lp_tautomer_probability>  (86) 
1

>  <r_epik_Ionization_Penalty>  (86) 
2.68696e-07

>  <r_epik_Ionization_Penalty_Charging>  (86) 
0

>  <r_epik_Ionization_Penalty_Neutral>  (86) 
2.68696e-07

>  <r_epik_State_Penalty>  (86) 
-0

>  <r_epik_Charging_Adjusted_Penalty>  (86) 
0

>  <i_epik_Tot_Q>  (86) 
0

>  <i_epik_Tot_abs_Q>  (86) 
0

>  <s_lp_Force_Field>  (86) 
OPLS3e

>  <r_lp_Energy>  (86) 
199.792

>  <b_lp_Chiralities_Consistent>  (86) 
1

>  <s_lp_Variant>  (86) 
35:0-1

>  <s_i_glide_gridfile>  (86) 
pfpi4k_grid

>  <i_i_glide_lignum>  (86) 
5

>  <i_i_glide_rotatable_bonds>  (86) 
5

>  <r_i_docking_score>  (86) 
-3.35405

>  <r_i_glide_ligand_efficiency>  (86) 
-0.134162

>  <r_i_glide_ligand_efficiency_sa>  (86) 
-0.392292

>  <r_i_glide_ligand_efficiency_ln>  (86) 
-0.795011

>  <r_i_glide_gscore>  (86) 
-3.35405

>  <r_i_glide_lipo>  (86) 
-0.694711

>  <r_i_glide_hbond>  (86) 
-0.00819255

>  <r_i_glide_metal>  (86) 
-0

>  <r_i_glide_rewards>  (86) 
-1.10171

>  <r_i_glide_evdw>  (86) 
-26.3308

>  <r_i_glide_ecoul>  (86) 
-4.40757

>  <r_i_glide_erotb>  (86) 
0.495395

>  <r_i_glide_esite>  (86) 
-0.0671534

>  <r_i_glide_emodel>  (86) 
-35.6903

>  <r_i_glide_energy>  (86) 
-30.7384

>  <r_i_glide_einternal>  (86) 
3.81314

>  <r_i_glide_intrahb_reward>  (86) 
-0

>  <i_i_glide_confnum>  (86) 
3

>  <i_i_glide_posenum>  (86) 
24

>  <r_i_glide_eff_state_penalty>  (86) 
0

>  <ligand_id>  (86) 
35

>  <original_smiles>  (86) 
OC1C=CC2C3CC4(C12)C1C3C2C(COCc3ccccc3F)C1C24

>  <smiles>  (86) 
[H]OC1([H])C([H])=C([H])C2([H])C3([H])C([H])([H])C4(C12[H])C1([H])C3([H])C2([H])C([H])(C([H])([H])OC([H])([H])c3c([H])c([H])c([H])c([H])c3F)C1([H])C24[H]

$$$$
35:0:1
     RDKit          3D

 48 54  0  0  1  0  0  0  0  0999 V2000
   -0.2252   -8.6655    5.6766 O   0  0  0  0  0  0  0  0  0  0  0  0
   -0.5179   -7.8717    4.5488 C   0  0  2  0  0  0  0  0  0  0  0  0
   -1.4977   -8.5815    3.6535 C   0  0  0  0  0  0  0  0  0  0  0  0
   -1.0450   -8.7930    2.4296 C   0  0  0  0  0  0  0  0  0  0  0  0
    0.3121   -8.1786    2.1701 C   0  0  2  0  0  0  0  0  0  0  0  0
    1.5105   -9.1358    1.9699 C   0  0  2  0  0  0  0  0  0  0  0  0
    1.7347   -9.4510    3.4409 C   0  0  0  0  0  0  0  0  0  0  0  0
    2.1485   -8.0109    3.9186 C   0  0  1  0  0  0  0  0  0  0  0  0
    0.6614   -7.5569    3.5578 C   0  0  2  0  0  0  0  0  0  0  0  0
    3.4270   -8.3449    3.0413 C   0  0  1  0  0  0  0  0  0  0  0  0
    2.8555   -8.4062    1.6523 C   0  0  2  0  0  0  0  0  0  0  0  0
    2.8824   -6.8750    1.6815 C   0  0  2  0  0  0  0  0  0  0  0  0
    4.2702   -6.2461    1.9445 C   0  0  1  0  0  0  0  0  0  0  0  0
    4.5109   -4.7335    1.9404 C   0  0  0  0  0  0  0  0  0  0  0  0
    4.2789   -4.3214    0.6083 O   0  0  0  0  0  0  0  0  0  0  0  0
    4.4170   -2.9264    0.4125 C   0  0  0  0  0  0  0  0  0  0  0  0
    3.9939   -2.5134   -0.9826 C   0  0  0  0  0  0  0  0  0  0  0  0
    2.9897   -3.2476   -1.6665 C   0  0  0  0  0  0  0  0  0  0  0  0
    2.6119   -2.8749   -2.9664 C   0  0  0  0  0  0  0  0  0  0  0  0
    3.1911   -1.7573   -3.5856 C   0  0  0  0  0  0  0  0  0  0  0  0
    4.1688   -1.0081   -2.9000 C   0  0  0  0  0  0  0  0  0  0  0  0
    4.5729   -1.3964   -1.6028 C   0  0  0  0  0  0  0  0  0  0  0  0
    5.5472   -0.7053   -0.9576 F   0  0  0  0  0  0  0  0  0  0  0  0
    4.1136   -7.0457    3.2372 C   0  0  1  0  0  0  0  0  0  0  0  0
    2.6796   -6.6979    3.1894 C   0  0  2  0  0  0  0  0  0  0  0  0
   -0.6061   -9.5259    5.5350 H   0  0  0  0  0  0  0  0  0  0  0  0
   -0.9743   -6.9465    4.8971 H   0  0  0  0  0  0  0  0  0  0  0  0
   -2.4840   -8.8660    3.9982 H   0  0  0  0  0  0  0  0  0  0  0  0
   -1.6248   -9.2717    1.6514 H   0  0  0  0  0  0  0  0  0  0  0  0
    0.2134   -7.4453    1.3676 H   0  0  0  0  0  0  0  0  0  0  0  0
    1.3613  -10.0230    1.3555 H   0  0  0  0  0  0  0  0  0  0  0  0
    0.8746   -9.9033    3.9285 H   0  0  0  0  0  0  0  0  0  0  0  0
    2.4551  -10.2567    3.6105 H   0  0  0  0  0  0  0  0  0  0  0  0
    0.5198   -6.4799    3.4291 H   0  0  0  0  0  0  0  0  0  0  0  0
    4.1146   -9.1305    3.3762 H   0  0  0  0  0  0  0  0  0  0  0  0
    3.5093   -8.8783    0.9149 H   0  0  0  0  0  0  0  0  0  0  0  0
    2.1998   -6.3035    1.0530 H   0  0  0  0  0  0  0  0  0  0  0  0
    4.9898   -6.7499    1.3003 H   0  0  0  0  0  0  0  0  0  0  0  0
    3.8658   -4.1872    2.6273 H   0  0  0  0  0  0  0  0  0  0  0  0
    5.5471   -4.5055    2.2036 H   0  0  0  0  0  0  0  0  0  0  0  0
    3.8002   -2.3789    1.1240 H   0  0  0  0  0  0  0  0  0  0  0  0
    5.4571   -2.6561    0.5950 H   0  0  0  0  0  0  0  0  0  0  0  0
    2.5420   -4.1040   -1.1950 H   0  0  0  0  0  0  0  0  0  0  0  0
    1.8488   -3.4621   -3.4818 H   0  0  0  0  0  0  0  0  0  0  0  0
    2.8791   -1.4682   -4.5795 H   0  0  0  0  0  0  0  0  0  0  0  0
    4.6094   -0.1384   -3.3668 H   0  0  0  0  0  0  0  0  0  0  0  0
    4.5854   -6.7785    4.1761 H   0  0  0  0  0  0  0  0  0  0  0  0
    2.4966   -5.7080    3.6122 H   0  0  0  0  0  0  0  0  0  0  0  0
  1  2  1  0
  1 26  1  0
  2  9  1  0
  2  3  1  0
  2 27  1  1
  3  4  2  0
  3 28  1  0
  4  5  1  0
  4 29  1  0
  5  9  1  0
  5  6  1  0
  5 30  1  6
  6 11  1  0
  6  7  1  0
  6 31  1  6
  8  7  1  6
  7 32  1  0
  7 33  1  0
  8 25  1  0
  8  9  1  0
  8 10  1  0
  9 34  1  6
 10 24  1  0
 10 11  1  0
 10 35  1  1
 11 12  1  0
 11 36  1  6
 12 25  1  0
 12 13  1  0
 12 37  1  6
 13 14  1  0
 13 24  1  0
 13 38  1  6
 14 15  1  0
 14 39  1  0
 14 40  1  0
 15 16  1  0
 16 17  1  0
 16 41  1  0
 16 42  1  0
 17 22  1  0
 17 18  2  0
 18 19  1  0
 18 43  1  0
 19 20  2  0
 19 44  1  0
 20 21  1  0
 20 45  1  0
 21 22  2  0
 21 46  1  0
 22 23  1  0
 24 25  1  0
 24 47  1  1
 25 48  1  6
M  END
>  <i_m_ct_stereo_status>  (87) 
1

>  <s_m_source_file>  (87) 
/var/tmp/pbs.5076255.sched01/tmpaqd8m8vp/41rn73ajce.sdf

>  <i_m_source_file_index>  (87) 
5

>  <i_lp_mmshare_version>  (87) 
48012

>  <i_f3d_flags>  (87) 
0

>  <s_epik_input>  (87) 
W09IXVtDQEBIXTFbQ0hdPVtDSF1bQ0BASF0oW0NAQEhdMUMyMzQpW0NASF0oW0NIMl0yKVtDQEBIXTVbQ0BIXTNbQ0BASF02W0NASF00W0NASF01W0NASF02W0NIMl1PW0NIMl1jN1tjSF1bY0hdW2NIXVtjSF1jN0Y=

>  <s_epik_cmdline>  (87) 
J2VwaWtfcHl0aG9uJywgJy1waHQnLCAnMi4wJywgJy1waCcsICc3LjAnLCAnLXRuJywgJzgnLCAnLW1hJywgJzIwMCcsICctaW1hZScsICc8aW5maWxlLm1hZT4nLCAnLW9tYWUnLCAnPG91dGZpbGUubWFlPic=

>  <r_lp_tautomer_probability>  (87) 
1

>  <r_epik_Ionization_Penalty>  (87) 
2.68696e-07

>  <r_epik_Ionization_Penalty_Charging>  (87) 
0

>  <r_epik_Ionization_Penalty_Neutral>  (87) 
2.68696e-07

>  <r_epik_State_Penalty>  (87) 
-0

>  <r_epik_Charging_Adjusted_Penalty>  (87) 
0

>  <i_epik_Tot_Q>  (87) 
0

>  <i_epik_Tot_abs_Q>  (87) 
0

>  <s_lp_Force_Field>  (87) 
OPLS3e

>  <r_lp_Energy>  (87) 
199.792

>  <b_lp_Chiralities_Consistent>  (87) 
1

>  <s_lp_Variant>  (87) 
35:0-1

>  <s_i_glide_gridfile>  (87) 
pfpi4k_grid

>  <i_i_glide_lignum>  (87) 
5

>  <i_i_glide_rotatable_bonds>  (87) 
5

>  <r_i_docking_score>  (87) 
-2.90981

>  <r_i_glide_ligand_efficiency>  (87) 
-0.116392

>  <r_i_glide_ligand_efficiency_sa>  (87) 
-0.340334

>  <r_i_glide_ligand_efficiency_ln>  (87) 
-0.689713

>  <r_i_glide_gscore>  (87) 
-2.90981

>  <r_i_glide_lipo>  (87) 
-0.576279

>  <r_i_glide_hbond>  (87) 
-0.0792306

>  <r_i_glide_metal>  (87) 
-0

>  <r_i_glide_rewards>  (87) 
-1.10171

>  <r_i_glide_evdw>  (87) 
-25.4021

>  <r_i_glide_ecoul>  (87) 
-2.14472

>  <r_i_glide_erotb>  (87) 
0.495395

>  <r_i_glide_esite>  (87) 
-0.0561721

>  <r_i_glide_emodel>  (87) 
-32.7036

>  <r_i_glide_energy>  (87) 
-27.5468

>  <r_i_glide_einternal>  (87) 
1.51397

>  <r_i_glide_intrahb_reward>  (87) 
-0

>  <i_i_glide_confnum>  (87) 
1

>  <i_i_glide_posenum>  (87) 
28

>  <r_i_glide_eff_state_penalty>  (87) 
0

>  <ligand_id>  (87) 
35

>  <original_smiles>  (87) 
OC1C=CC2C3CC4(C12)C1C3C2C(COCc3ccccc3F)C1C24

>  <smiles>  (87) 
[H]OC1([H])C([H])=C([H])C2([H])C3([H])C([H])([H])C4(C12[H])C1([H])C3([H])C2([H])C([H])(C([H])([H])OC([H])([H])c3c([H])c([H])c([H])c([H])c3F)C1([H])C24[H]

$$$$
35:0:2
     RDKit          3D

 48 54  0  0  1  0  0  0  0  0999 V2000
    1.5698   -9.0503    5.8769 O   0  0  0  0  0  0  0  0  0  0  0  0
    1.0665   -8.2184    4.8543 C   0  0  2  0  0  0  0  0  0  0  0  0
   -0.1180   -8.8580    4.1794 C   0  0  0  0  0  0  0  0  0  0  0  0
    0.0501   -9.0360    2.8703 C   0  0  0  0  0  0  0  0  0  0  0  0
    1.3443   -8.4410    2.3525 C   0  0  2  0  0  0  0  0  0  0  0  0
    2.4186   -9.4199    1.8430 C   0  0  2  0  0  0  0  0  0  0  0  0
    2.9577   -9.8148    3.2146 C   0  0  0  0  0  0  0  0  0  0  0  0
    3.5253   -8.4160    3.6506 C   0  0  1  0  0  0  0  0  0  0  0  0
    2.0135   -7.8984    3.6489 C   0  0  2  0  0  0  0  0  0  0  0  0
    4.5668   -8.7426    2.4995 C   0  0  1  0  0  0  0  0  0  0  0  0
    3.6971   -8.7233    1.2774 C   0  0  2  0  0  0  0  0  0  0  0  0
    3.7939   -7.1961    1.3505 C   0  0  2  0  0  0  0  0  0  0  0  0
    5.2321   -6.6208    1.3190 C   0  0  1  0  0  0  0  0  0  0  0  0
    5.5269   -5.1157    1.3053 C   0  0  0  0  0  0  0  0  0  0  0  0
    5.1707   -4.6741    0.0141 O   0  0  0  0  0  0  0  0  0  0  0  0
    5.5527   -3.3363   -0.2396 C   0  0  0  0  0  0  0  0  0  0  0  0
    4.9028   -2.7942   -1.5015 C   0  0  0  0  0  0  0  0  0  0  0  0
    4.7577   -3.6280   -2.6323 C   0  0  0  0  0  0  0  0  0  0  0  0
    4.1299   -3.1513   -3.7937 C   0  0  0  0  0  0  0  0  0  0  0  0
    3.6581   -1.8271   -3.8454 C   0  0  0  0  0  0  0  0  0  0  0  0
    3.8184   -0.9822   -2.7306 C   0  0  0  0  0  0  0  0  0  0  0  0
    4.4401   -1.4656   -1.5613 C   0  0  0  0  0  0  0  0  0  0  0  0
    4.5863   -0.6532   -0.4836 F   0  0  0  0  0  0  0  0  0  0  0  0
    5.3318   -7.4674    2.5887 C   0  0  1  0  0  0  0  0  0  0  0  0
    3.9342   -7.0772    2.8727 C   0  0  2  0  0  0  0  0  0  0  0  0
    1.5939   -9.9433    5.5649 H   0  0  0  0  0  0  0  0  0  0  0  0
    0.7395   -7.2934    5.3246 H   0  0  0  0  0  0  0  0  0  0  0  0
   -1.0181   -9.1044    4.7260 H   0  0  0  0  0  0  0  0  0  0  0  0
   -0.7099   -9.4516    2.2196 H   0  0  0  0  0  0  0  0  0  0  0  0
    1.0983   -7.6708    1.6101 H   0  0  0  0  0  0  0  0  0  0  0  0
    2.0550  -10.2247    1.2234 H   0  0  0  0  0  0  0  0  0  0  0  0
    2.2149  -10.2646    3.8628 H   0  0  0  0  0  0  0  0  0  0  0  0
    3.6693  -10.6484    3.1854 H   0  0  0  0  0  0  0  0  0  0  0  0
    1.8826   -6.8148    3.5841 H   0  0  0  0  0  0  0  0  0  0  0  0
    5.2816   -9.5587    2.6401 H   0  0  0  0  0  0  0  0  0  0  0  0
    4.1645   -9.1757    0.3958 H   0  0  0  0  0  0  0  0  0  0  0  0
    3.0119   -6.5785    0.9072 H   0  0  0  0  0  0  0  0  0  0  0  0
    5.7741   -7.1206    0.5261 H   0  0  0  0  0  0  0  0  0  0  0  0
    4.9720   -4.5645    2.0565 H   0  0  0  0  0  0  0  0  0  0  0  0
    6.5873   -4.9502    1.4731 H   0  0  0  0  0  0  0  0  0  0  0  0
    5.2834   -2.7093    0.6089 H   0  0  0  0  0  0  0  0  0  0  0  0
    6.6339   -3.2894   -0.3564 H   0  0  0  0  0  0  0  0  0  0  0  0
    5.0932   -4.6531   -2.5822 H   0  0  0  0  0  0  0  0  0  0  0  0
    3.9947   -3.8267   -4.6332 H   0  0  0  0  0  0  0  0  0  0  0  0
    3.1502   -1.4588   -4.7267 H   0  0  0  0  0  0  0  0  0  0  0  0
    3.4467    0.0351   -2.7650 H   0  0  0  0  0  0  0  0  0  0  0  0
    6.0247   -7.2616    3.4036 H   0  0  0  0  0  0  0  0  0  0  0  0
    3.8766   -6.1013    3.3659 H   0  0  0  0  0  0  0  0  0  0  0  0
  1  2  1  0
  1 26  1  0
  2  9  1  0
  2  3  1  0
  2 27  1  1
  3  4  2  0
  3 28  1  0
  4  5  1  0
  4 29  1  0
  5  9  1  0
  5  6  1  0
  5 30  1  6
  6 11  1  0
  6  7  1  0
  6 31  1  6
  8  7  1  6
  7 32  1  0
  7 33  1  0
  8 25  1  0
  8  9  1  0
  8 10  1  0
  9 34  1  6
 10 24  1  0
 10 11  1  0
 10 35  1  1
 11 12  1  0
 11 36  1  6
 12 25  1  0
 12 13  1  0
 12 37  1  6
 13 14  1  0
 13 24  1  0
 13 38  1  6
 14 15  1  0
 14 39  1  0
 14 40  1  0
 15 16  1  0
 16 17  1  0
 16 41  1  0
 16 42  1  0
 17 22  1  0
 17 18  2  0
 18 19  1  0
 18 43  1  0
 19 20  2  0
 19 44  1  0
 20 21  1  0
 20 45  1  0
 21 22  2  0
 21 46  1  0
 22 23  1  0
 24 25  1  0
 24 47  1  1
 25 48  1  1
M  END
>  <i_m_ct_stereo_status>  (88) 
1

>  <s_m_source_file>  (88) 
/var/tmp/pbs.5076255.sched01/tmpaqd8m8vp/41rn73ajce.sdf

>  <i_m_source_file_index>  (88) 
5

>  <i_lp_mmshare_version>  (88) 
48012

>  <i_f3d_flags>  (88) 
0

>  <s_epik_input>  (88) 
W09IXVtDQEBIXTFbQ0hdPVtDSF1bQ0BASF0oW0NAQEhdMUMyMzQpW0NASF0oW0NIMl0yKVtDQEBIXTVbQ0BIXTNbQ0BASF02W0NASF00W0NASF01W0NASF02W0NIMl1PW0NIMl1jN1tjSF1bY0hdW2NIXVtjSF1jN0Y=

>  <s_epik_cmdline>  (88) 
J2VwaWtfcHl0aG9uJywgJy1waHQnLCAnMi4wJywgJy1waCcsICc3LjAnLCAnLXRuJywgJzgnLCAnLW1hJywgJzIwMCcsICctaW1hZScsICc8aW5maWxlLm1hZT4nLCAnLW9tYWUnLCAnPG91dGZpbGUubWFlPic=

>  <r_lp_tautomer_probability>  (88) 
1

>  <r_epik_Ionization_Penalty>  (88) 
2.68696e-07

>  <r_epik_Ionization_Penalty_Charging>  (88) 
0

>  <r_epik_Ionization_Penalty_Neutral>  (88) 
2.68696e-07

>  <r_epik_State_Penalty>  (88) 
-0

>  <r_epik_Charging_Adjusted_Penalty>  (88) 
0

>  <i_epik_Tot_Q>  (88) 
0

>  <i_epik_Tot_abs_Q>  (88) 
0

>  <s_lp_Force_Field>  (88) 
OPLS3e

>  <r_lp_Energy>  (88) 
199.792

>  <b_lp_Chiralities_Consistent>  (88) 
1

>  <s_lp_Variant>  (88) 
35:0-1

>  <s_i_glide_gridfile>  (88) 
pfpi4k_grid

>  <i_i_glide_lignum>  (88) 
5

>  <i_i_glide_rotatable_bonds>  (88) 
5

>  <r_i_docking_score>  (88) 
-2.59097

>  <r_i_glide_ligand_efficiency>  (88) 
-0.103639

>  <r_i_glide_ligand_efficiency_sa>  (88) 
-0.303042

>  <r_i_glide_ligand_efficiency_ln>  (88) 
-0.614139

>  <r_i_glide_gscore>  (88) 
-2.59097

>  <r_i_glide_lipo>  (88) 
-0.585469

>  <r_i_glide_hbond>  (88) 
0

>  <r_i_glide_metal>  (88) 
-0

>  <r_i_glide_rewards>  (88) 
-1.10171

>  <r_i_glide_evdw>  (88) 
-26.3732

>  <r_i_glide_ecoul>  (88) 
-0.355869

>  <r_i_glide_erotb>  (88) 
0.495395

>  <r_i_glide_esite>  (88) 
-0.0271471

>  <r_i_glide_emodel>  (88) 
-31.6294

>  <r_i_glide_energy>  (88) 
-26.729

>  <r_i_glide_einternal>  (88) 
0.777012

>  <r_i_glide_intrahb_reward>  (88) 
-0

>  <i_i_glide_confnum>  (88) 
1

>  <i_i_glide_posenum>  (88) 
13

>  <r_i_glide_eff_state_penalty>  (88) 
0

>  <ligand_id>  (88) 
35

>  <original_smiles>  (88) 
OC1C=CC2C3CC4(C12)C1C3C2C(COCc3ccccc3F)C1C24

>  <smiles>  (88) 
[H]OC1([H])C([H])=C([H])C2([H])C3([H])C([H])([H])C4(C12[H])C1([H])C3([H])C2([H])C([H])(C([H])([H])OC([H])([H])c3c([H])c([H])c([H])c([H])c3F)C1([H])C24[H]

$$$$
36:0:0
     RDKit          3D

 43 47  0  0  1  0  0  0  0  0999 V2000
    3.3758   -3.9207    0.5674 C   0  0  0  0  0  0  0  0  0  0  0  0
    3.2149   -4.9842    1.4954 O   0  0  0  0  0  0  0  0  0  0  0  0
    2.2171   -5.8662    1.3499 C   0  0  0  0  0  0  0  0  0  0  0  0
    1.3715   -5.8531    0.4486 O   0  0  0  0  0  0  0  0  0  0  0  0
    2.2173   -6.9409    2.4489 C   0  0  2  0  0  0  0  0  0  0  0  0
    2.8989   -8.2128    1.9258 C   0  0  0  0  0  0  0  0  0  0  0  0
    2.4714   -9.4436    2.7210 C   0  0  1  0  0  0  0  0  0  0  0  0
    2.7651   -9.2670    4.2535 C   0  0  2  0  0  0  0  0  0  0  0  0
    3.3089  -10.5964    4.8703 C   0  0  0  0  0  0  0  0  0  0  0  0
    2.3782  -11.8155    4.5804 C   0  0  0  0  0  0  0  0  0  0  0  0
    0.8738  -11.4550    4.6069 C   0  0  0  0  0  0  0  0  0  0  0  0
    0.7610  -10.0953    4.0680 N   0  0  2  0  0  0  0  0  0  0  0  0
    1.3611   -9.0186    4.8357 C   0  0  2  0  0  0  0  0  0  0  0  0
    0.6548   -7.6606    4.4770 C   0  0  2  0  0  0  0  0  0  0  0  0
   -0.8801   -7.8551    4.5209 C   0  0  0  0  0  0  0  0  0  0  0  0
   -1.2575   -8.4273    3.1316 C   0  0  0  0  0  0  0  0  0  0  0  0
    0.0842   -8.4507    2.3637 C   0  0  1  0  0  0  0  0  0  0  0  0
    0.7985   -7.2519    2.9952 C   0  0  2  0  0  0  0  0  0  0  0  0
    0.9347   -9.7407    2.6581 C   0  0  1  0  0  0  0  0  0  0  0  0
    4.1961   -3.2789    0.8910 H   0  0  0  0  0  0  0  0  0  0  0  0
    2.4795   -3.3010    0.4994 H   0  0  0  0  0  0  0  0  0  0  0  0
    3.6183   -4.2993   -0.4270 H   0  0  0  0  0  0  0  0  0  0  0  0
    2.7985   -6.5265    3.2746 H   0  0  0  0  0  0  0  0  0  0  0  0
    2.6668   -8.3894    0.8866 H   0  0  0  0  0  0  0  0  0  0  0  0
    3.9776   -8.0900    1.9962 H   0  0  0  0  0  0  0  0  0  0  0  0
    3.0273  -10.2988    2.3295 H   0  0  0  0  0  0  0  0  0  0  0  0
    3.4543   -8.4507    4.4736 H   0  0  0  0  0  0  0  0  0  0  0  0
    4.3078  -10.8180    4.4840 H   0  0  0  0  0  0  0  0  0  0  0  0
    3.4211  -10.4764    5.9512 H   0  0  0  0  0  0  0  0  0  0  0  0
    2.6290  -12.2285    3.5989 H   0  0  0  0  0  0  0  0  0  0  0  0
    2.5817  -12.6197    5.2885 H   0  0  0  0  0  0  0  0  0  0  0  0
    0.2846  -12.1740    4.0383 H   0  0  0  0  0  0  0  0  0  0  0  0
    0.5001  -11.4458    5.6338 H   0  0  0  0  0  0  0  0  0  0  0  0
    1.3124   -9.2025    5.9112 H   0  0  0  0  0  0  0  0  0  0  0  0
    0.9942   -6.8661    5.1406 H   0  0  0  0  0  0  0  0  0  0  0  0
   -1.1891   -8.5305    5.3177 H   0  0  0  0  0  0  0  0  0  0  0  0
   -1.3771   -6.8970    4.6760 H   0  0  0  0  0  0  0  0  0  0  0  0
   -1.7230   -9.4137    3.2053 H   0  0  0  0  0  0  0  0  0  0  0  0
   -1.9728   -7.7658    2.6408 H   0  0  0  0  0  0  0  0  0  0  0  0
   -0.0570   -8.2832    1.2955 H   0  0  0  0  0  0  0  0  0  0  0  0
    0.1892   -6.3596    2.8335 H   0  0  0  0  0  0  0  0  0  0  0  0
    0.6703  -10.5726    2.0081 H   0  0  0  0  0  0  0  0  0  0  0  0
    1.7237  -10.3645    3.9293 H   0  0  0  0  0  0  0  0  0  0  0  0
  1  2  1  0
  1 20  1  0
  1 21  1  0
  1 22  1  0
  2  3  1  0
  3  4  2  0
  3  5  1  0
  5 18  1  0
  5  6  1  0
  5 23  1  1
  6  7  1  0
  6 24  1  0
  6 25  1  0
  7 19  1  0
  7  8  1  0
  7 26  1  6
  8 13  1  0
  8  9  1  0
  8 27  1  6
  9 10  1  0
  9 28  1  0
  9 29  1  0
 10 11  1  0
 10 30  1  0
 10 31  1  0
 11 12  1  0
 11 32  1  0
 11 33  1  0
 12 19  1  0
 12 13  1  0
 12 43  1  1
 13 14  1  0
 13 34  1  1
 14 18  1  0
 14 15  1  0
 14 35  1  1
 15 16  1  0
 15 36  1  0
 15 37  1  0
 16 17  1  0
 16 38  1  0
 16 39  1  0
 17 18  1  0
 17 19  1  0
 17 40  1  6
 18 41  1  1
 19 42  1  6
M  CHG  1  12   1
M  END
>  <i_m_ct_stereo_status>  (89) 
1

>  <s_m_source_file>  (89) 
/var/tmp/pbs.5076255.sched01/tmpaqd8m8vp/41rn73ajce.sdf

>  <i_m_source_file_index>  (89) 
6

>  <i_lp_mmshare_version>  (89) 
48012

>  <i_f3d_flags>  (89) 
0

>  <s_epik_input>  (89) 
W0NIM11PQyg9TylbQ0BIXShbQ0gyXTEpW0NASF0oW0NASF0yW0NIMl1bQ0gyXTMpW0NASF0zW0NAQEhdNE4oW0NIMl1bQ0gyXVtDSDJdNSlbQ0hdMltDQEBIXTVbQ0BIXTE0

>  <s_epik_cmdline>  (89) 
J2VwaWtfcHl0aG9uJywgJy1waHQnLCAnMi4wJywgJy1waCcsICc3LjAnLCAnLXRuJywgJzgnLCAnLW1hJywgJzIwMCcsICctaW1hZScsICc8aW5maWxlLm1hZT4nLCAnLW9tYWUnLCAnPG91dGZpbGUubWFlPic=

>  <r_lp_tautomer_probability>  (89) 
1

>  <r_epik_Ionization_Penalty>  (89) 
0.000198283

>  <r_epik_Ionization_Penalty_Charging>  (89) 
0.000198283

>  <r_epik_Ionization_Penalty_Neutral>  (89) 
0

>  <r_epik_State_Penalty>  (89) 
-0

>  <r_epik_Charging_Adjusted_Penalty>  (89) 
0.000198283

>  <i_epik_Tot_Q>  (89) 
1

>  <i_epik_Tot_abs_Q>  (89) 
1

>  <s_epik_Chemistry_Notes>  (89) 
This compound has an ester and may undergo hydrolysis at high or low pH.

>  <s_lp_Force_Field>  (89) 
OPLS3e

>  <r_lp_Energy>  (89) 
107.603

>  <b_lp_Chiralities_Consistent>  (89) 
1

>  <s_lp_Variant>  (89) 
36:0-1

>  <s_i_glide_gridfile>  (89) 
pfpi4k_grid

>  <i_i_glide_lignum>  (89) 
6

>  <i_i_glide_rotatable_bonds>  (89) 
2

>  <r_i_docking_score>  (89) 
-3.92113

>  <r_i_glide_ligand_efficiency>  (89) 
-0.206375

>  <r_i_glide_ligand_efficiency_sa>  (89) 
-0.550692

>  <r_i_glide_ligand_efficiency_ln>  (89) 
-0.994091

>  <r_i_glide_gscore>  (89) 
-3.92113

>  <r_i_glide_lipo>  (89) 
-0.0839004

>  <r_i_glide_hbond>  (89) 
-0.157627

>  <r_i_glide_metal>  (89) 
-0

>  <r_i_glide_rewards>  (89) 
-1.62022

>  <r_i_glide_evdw>  (89) 
-22.2927

>  <r_i_glide_ecoul>  (89) 
-5.87881

>  <r_i_glide_erotb>  (89) 
0

>  <r_i_glide_esite>  (89) 
-0.0629246

>  <r_i_glide_emodel>  (89) 
-37.1366

>  <r_i_glide_energy>  (89) 
-28.1715

>  <r_i_glide_einternal>  (89) 
0.934892

>  <r_i_glide_intrahb_reward>  (89) 
-0

>  <i_i_glide_confnum>  (89) 
1

>  <i_i_glide_posenum>  (89) 
11

>  <r_i_glide_eff_state_penalty>  (89) 
0

>  <ligand_id>  (89) 
36

>  <original_smiles>  (89) 
COC(=O)C1CC2C3CCCN4C3C3CCC(C13)C24

>  <smiles>  (89) 
[H]C([H])([H])OC(=O)C1([H])C([H])([H])C2([H])C3([H])C([H])([H])C([H])([H])C([H])([H])[N+]4([H])C3([H])C3([H])C([H])([H])C([H])([H])C([H])(C13[H])C24[H]

$$$$
36:0:1
     RDKit          3D

 43 47  0  0  1  0  0  0  0  0999 V2000
    3.8065   -4.2999   -0.0821 C   0  0  0  0  0  0  0  0  0  0  0  0
    3.3344   -4.9033    1.1114 O   0  0  0  0  0  0  0  0  0  0  0  0
    2.2116   -5.6473    1.1006 C   0  0  0  0  0  0  0  0  0  0  0  0
    1.4990   -5.8571    0.1165 O   0  0  0  0  0  0  0  0  0  0  0  0
    1.8634   -6.1877    2.5004 C   0  0  2  0  0  0  0  0  0  0  0  0
    3.0158   -7.0670    3.0151 C   0  0  0  0  0  0  0  0  0  0  0  0
    2.5475   -8.0300    4.1076 C   0  0  1  0  0  0  0  0  0  0  0  0
    1.8916   -7.2691    5.3139 C   0  0  2  0  0  0  0  0  0  0  0  0
    2.3130   -7.9120    6.6769 C   0  0  0  0  0  0  0  0  0  0  0  0
    2.0257   -9.4474    6.7420 C   0  0  0  0  0  0  0  0  0  0  0  0
    0.7276   -9.8623    6.0021 C   0  0  0  0  0  0  0  0  0  0  0  0
    0.6077   -8.9649    4.8452 N   0  0  2  0  0  0  0  0  0  0  0  0
    0.3933   -7.5528    5.1117 C   0  0  2  0  0  0  0  0  0  0  0  0
   -0.3141   -6.8870    3.8775 C   0  0  2  0  0  0  0  0  0  0  0  0
   -1.5176   -7.7594    3.4399 C   0  0  0  0  0  0  0  0  0  0  0  0
   -0.9034   -8.8447    2.5143 C   0  0  0  0  0  0  0  0  0  0  0  0
    0.5999   -8.4743    2.4349 C   0  0  1  0  0  0  0  0  0  0  0  0
    0.5088   -6.9513    2.5721 C   0  0  2  0  0  0  0  0  0  0  0  0
    1.4380   -9.0334    3.6393 C   0  0  1  0  0  0  0  0  0  0  0  0
    4.7134   -3.7321    0.1268 H   0  0  0  0  0  0  0  0  0  0  0  0
    3.0673   -3.6161   -0.5009 H   0  0  0  0  0  0  0  0  0  0  0  0
    4.0543   -5.0536   -0.8311 H   0  0  0  0  0  0  0  0  0  0  0  0
    1.7741   -5.3062    3.1352 H   0  0  0  0  0  0  0  0  0  0  0  0
    3.4668   -7.6395    2.2011 H   0  0  0  0  0  0  0  0  0  0  0  0
    3.8024   -6.4264    3.4139 H   0  0  0  0  0  0  0  0  0  0  0  0
    3.4230   -8.5824    4.4530 H   0  0  0  0  0  0  0  0  0  0  0  0
    2.1123   -6.2000    5.3272 H   0  0  0  0  0  0  0  0  0  0  0  0
    3.3760   -7.7366    6.8673 H   0  0  0  0  0  0  0  0  0  0  0  0
    1.7810   -7.4120    7.4893 H   0  0  0  0  0  0  0  0  0  0  0  0
    2.8678   -9.9822    6.2943 H   0  0  0  0  0  0  0  0  0  0  0  0
    1.9893   -9.7893    7.7774 H   0  0  0  0  0  0  0  0  0  0  0  0
    0.7579  -10.9084    5.6929 H   0  0  0  0  0  0  0  0  0  0  0  0
   -0.1396   -9.7276    6.6556 H   0  0  0  0  0  0  0  0  0  0  0  0
   -0.1892   -7.3878    6.0204 H   0  0  0  0  0  0  0  0  0  0  0  0
   -0.6080   -5.8640    4.1121 H   0  0  0  0  0  0  0  0  0  0  0  0
   -2.0601   -8.1936    4.2807 H   0  0  0  0  0  0  0  0  0  0  0  0
   -2.2260   -7.1623    2.8661 H   0  0  0  0  0  0  0  0  0  0  0  0
   -1.0670   -9.8583    2.8859 H   0  0  0  0  0  0  0  0  0  0  0  0
   -1.3656   -8.7845    1.5268 H   0  0  0  0  0  0  0  0  0  0  0  0
    1.0521   -8.7559    1.4836 H   0  0  0  0  0  0  0  0  0  0  0  0
   -0.1329   -6.5684    1.7794 H   0  0  0  0  0  0  0  0  0  0  0  0
    1.8161  -10.0390    3.4477 H   0  0  0  0  0  0  0  0  0  0  0  0
    1.5216   -8.7822    5.2321 H   0  0  0  0  0  0  0  0  0  0  0  0
  1  2  1  0
  1 20  1  0
  1 21  1  0
  1 22  1  0
  2  3  1  0
  3  4  2  0
  3  5  1  0
  5 18  1  0
  5  6  1  0
  5 23  1  1
  6  7  1  0
  6 24  1  0
  6 25  1  0
  7 19  1  0
  7  8  1  0
  7 26  1  1
  8 13  1  0
  8  9  1  0
  8 27  1  1
  9 10  1  0
  9 28  1  0
  9 29  1  0
 10 11  1  0
 10 30  1  0
 10 31  1  0
 11 12  1  0
 11 32  1  0
 11 33  1  0
 12 19  1  0
 12 13  1  0
 12 43  1  6
 13 14  1  0
 13 34  1  1
 14 18  1  0
 14 15  1  0
 14 35  1  1
 15 16  1  0
 15 36  1  0
 15 37  1  0
 16 17  1  0
 16 38  1  0
 16 39  1  0
 17 18  1  0
 17 19  1  0
 17 40  1  6
 18 41  1  6
 19 42  1  6
M  CHG  1  12   1
M  END
>  <i_m_ct_stereo_status>  (90) 
1

>  <s_m_source_file>  (90) 
/var/tmp/pbs.5076255.sched01/tmpaqd8m8vp/41rn73ajce.sdf

>  <i_m_source_file_index>  (90) 
6

>  <i_lp_mmshare_version>  (90) 
48012

>  <i_f3d_flags>  (90) 
0

>  <s_epik_input>  (90) 
W0NIM11PQyg9TylbQ0BIXShbQ0gyXTEpW0NASF0oW0NASF0yW0NIMl1bQ0gyXTMpW0NASF0zW0NAQEhdNE4oW0NIMl1bQ0gyXVtDSDJdNSlbQ0hdMltDQEBIXTVbQ0BIXTE0

>  <s_epik_cmdline>  (90) 
J2VwaWtfcHl0aG9uJywgJy1waHQnLCAnMi4wJywgJy1waCcsICc3LjAnLCAnLXRuJywgJzgnLCAnLW1hJywgJzIwMCcsICctaW1hZScsICc8aW5maWxlLm1hZT4nLCAnLW9tYWUnLCAnPG91dGZpbGUubWFlPic=

>  <r_lp_tautomer_probability>  (90) 
1

>  <r_epik_Ionization_Penalty>  (90) 
0.000198283

>  <r_epik_Ionization_Penalty_Charging>  (90) 
0.000198283

>  <r_epik_Ionization_Penalty_Neutral>  (90) 
0

>  <r_epik_State_Penalty>  (90) 
-0

>  <r_epik_Charging_Adjusted_Penalty>  (90) 
0.000198283

>  <i_epik_Tot_Q>  (90) 
1

>  <i_epik_Tot_abs_Q>  (90) 
1

>  <s_epik_Chemistry_Notes>  (90) 
This compound has an ester and may undergo hydrolysis at high or low pH.

>  <s_lp_Force_Field>  (90) 
OPLS3e

>  <r_lp_Energy>  (90) 
107.603

>  <b_lp_Chiralities_Consistent>  (90) 
1

>  <s_lp_Variant>  (90) 
36:0-1

>  <s_i_glide_gridfile>  (90) 
pfpi4k_grid

>  <i_i_glide_lignum>  (90) 
6

>  <i_i_glide_rotatable_bonds>  (90) 
2

>  <r_i_docking_score>  (90) 
-3.59764

>  <r_i_glide_ligand_efficiency>  (90) 
-0.189349

>  <r_i_glide_ligand_efficiency_sa>  (90) 
-0.50526

>  <r_i_glide_ligand_efficiency_ln>  (90) 
-0.912079

>  <r_i_glide_gscore>  (90) 
-3.59764

>  <r_i_glide_lipo>  (90) 
-0.0119891

>  <r_i_glide_hbond>  (90) 
-0.177266

>  <r_i_glide_metal>  (90) 
-0

>  <r_i_glide_rewards>  (90) 
-1.62022

>  <r_i_glide_evdw>  (90) 
-21.1096

>  <r_i_glide_ecoul>  (90) 
-4.36029

>  <r_i_glide_erotb>  (90) 
0

>  <r_i_glide_esite>  (90) 
-0.0786352

>  <r_i_glide_emodel>  (90) 
-33.9847

>  <r_i_glide_energy>  (90) 
-25.4699

>  <r_i_glide_einternal>  (90) 
0.271284

>  <r_i_glide_intrahb_reward>  (90) 
-0

>  <i_i_glide_confnum>  (90) 
2

>  <i_i_glide_posenum>  (90) 
38

>  <r_i_glide_eff_state_penalty>  (90) 
0

>  <ligand_id>  (90) 
36

>  <original_smiles>  (90) 
COC(=O)C1CC2C3CCCN4C3C3CCC(C13)C24

>  <smiles>  (90) 
[H]C([H])([H])OC(=O)C1([H])C([H])([H])C2([H])C3([H])C([H])([H])C([H])([H])C([H])([H])[N+]4([H])C3([H])C3([H])C([H])([H])C([H])([H])C([H])(C13[H])C24[H]

$$$$
36:0:2
     RDKit          3D

 43 47  0  0  1  0  0  0  0  0999 V2000
    4.0398   -3.5429    1.8141 C   0  0  0  0  0  0  0  0  0  0  0  0
    3.7077   -4.7225    2.5320 O   0  0  0  0  0  0  0  0  0  0  0  0
    2.6134   -5.4319    2.2004 C   0  0  0  0  0  0  0  0  0  0  0  0
    1.8392   -5.1766    1.2781 O   0  0  0  0  0  0  0  0  0  0  0  0
    2.4242   -6.6669    3.0953 C   0  0  2  0  0  0  0  0  0  0  0  0
    3.3494   -7.7878    2.5974 C   0  0  0  0  0  0  0  0  0  0  0  0
    2.8609   -9.1609    3.0652 C   0  0  1  0  0  0  0  0  0  0  0  0
    2.7231   -9.2283    4.6272 C   0  0  2  0  0  0  0  0  0  0  0  0
    3.2209  -10.6081    5.1682 C   0  0  0  0  0  0  0  0  0  0  0  0
    2.5245  -11.8203    4.4758 C   0  0  0  0  0  0  0  0  0  0  0  0
    1.0339  -11.5631    4.1361 C   0  0  0  0  0  0  0  0  0  0  0  0
    0.9335  -10.1388    3.7849 N   0  0  2  0  0  0  0  0  0  0  0  0
    1.1972   -9.1671    4.8340 C   0  0  2  0  0  0  0  0  0  0  0  0
    0.4726   -7.8122    4.4979 C   0  0  2  0  0  0  0  0  0  0  0  0
   -0.9956   -8.1025    4.1013 C   0  0  0  0  0  0  0  0  0  0  0  0
   -0.9320   -8.4604    2.5915 C   0  0  0  0  0  0  0  0  0  0  0  0
    0.5596   -8.2747    2.2133 C   0  0  1  0  0  0  0  0  0  0  0  0
    0.9506   -7.1534    3.1829 C   0  0  2  0  0  0  0  0  0  0  0  0
    1.4344   -9.5403    2.5411 C   0  0  1  0  0  0  0  0  0  0  0  0
    4.9352   -3.0927    2.2455 H   0  0  0  0  0  0  0  0  0  0  0  0
    3.2375   -2.8051    1.8686 H   0  0  0  0  0  0  0  0  0  0  0  0
    4.2464   -3.7593    0.7647 H   0  0  0  0  0  0  0  0  0  0  0  0
    2.7270   -6.3590    4.0970 H   0  0  0  0  0  0  0  0  0  0  0  0
    3.4264   -7.7862    1.5075 H   0  0  0  0  0  0  0  0  0  0  0  0
    4.3554   -7.6104    2.9774 H   0  0  0  0  0  0  0  0  0  0  0  0
    3.5864   -9.9013    2.7224 H   0  0  0  0  0  0  0  0  0  0  0  0
    3.2439   -8.4218    5.1455 H   0  0  0  0  0  0  0  0  0  0  0  0
    4.3036  -10.7001    5.0467 H   0  0  0  0  0  0  0  0  0  0  0  0
    3.0370  -10.6627    6.2449 H   0  0  0  0  0  0  0  0  0  0  0  0
    3.0598  -12.0631    3.5530 H   0  0  0  0  0  0  0  0  0  0  0  0
    2.6125  -12.7052    5.1065 H   0  0  0  0  0  0  0  0  0  0  0  0
    0.6935  -12.2096    3.3272 H   0  0  0  0  0  0  0  0  0  0  0  0
    0.4126  -11.7602    5.0144 H   0  0  0  0  0  0  0  0  0  0  0  0
    0.8895   -9.5329    5.8171 H   0  0  0  0  0  0  0  0  0  0  0  0
    0.5407   -7.1194    5.3372 H   0  0  0  0  0  0  0  0  0  0  0  0
   -1.4381   -8.9010    4.6983 H   0  0  0  0  0  0  0  0  0  0  0  0
   -1.6099   -7.2129    4.2440 H   0  0  0  0  0  0  0  0  0  0  0  0
   -1.2956   -9.4691    2.3817 H   0  0  0  0  0  0  0  0  0  0  0  0
   -1.5593   -7.7701    2.0280 H   0  0  0  0  0  0  0  0  0  0  0  0
    0.6866   -7.9693    1.1732 H   0  0  0  0  0  0  0  0  0  0  0  0
    0.3109   -6.2880    3.0042 H   0  0  0  0  0  0  0  0  0  0  0  0
    1.4538  -10.2547    1.7185 H   0  0  0  0  0  0  0  0  0  0  0  0
    1.9221  -10.3256    3.8790 H   0  0  0  0  0  0  0  0  0  0  0  0
  1  2  1  0
  1 20  1  0
  1 21  1  0
  1 22  1  0
  2  3  1  0
  3  4  2  0
  3  5  1  0
  5 18  1  0
  5  6  1  0
  5 23  1  1
  6  7  1  0
  6 24  1  0
  6 25  1  0
  7 19  1  0
  7  8  1  0
  7 26  1  6
  8 13  1  0
  8  9  1  0
  8 27  1  1
  9 10  1  0
  9 28  1  0
  9 29  1  0
 10 11  1  0
 10 30  1  0
 10 31  1  0
 11 12  1  0
 11 32  1  0
 11 33  1  0
 12 19  1  0
 12 13  1  0
 12 43  1  6
 13 14  1  0
 13 34  1  1
 14 18  1  0
 14 15  1  0
 14 35  1  1
 15 16  1  0
 15 36  1  0
 15 37  1  0
 16 17  1  0
 16 38  1  0
 16 39  1  0
 17 18  1  0
 17 19  1  0
 17 40  1  6
 18 41  1  6
 19 42  1  6
M  CHG  1  12   1
M  END
>  <i_m_ct_stereo_status>  (91) 
1

>  <s_m_source_file>  (91) 
/var/tmp/pbs.5076255.sched01/tmpaqd8m8vp/41rn73ajce.sdf

>  <i_m_source_file_index>  (91) 
6

>  <i_lp_mmshare_version>  (91) 
48012

>  <i_f3d_flags>  (91) 
0

>  <s_epik_input>  (91) 
W0NIM11PQyg9TylbQ0BIXShbQ0gyXTEpW0NASF0oW0NASF0yW0NIMl1bQ0gyXTMpW0NASF0zW0NAQEhdNE4oW0NIMl1bQ0gyXVtDSDJdNSlbQ0hdMltDQEBIXTVbQ0BIXTE0

>  <s_epik_cmdline>  (91) 
J2VwaWtfcHl0aG9uJywgJy1waHQnLCAnMi4wJywgJy1waCcsICc3LjAnLCAnLXRuJywgJzgnLCAnLW1hJywgJzIwMCcsICctaW1hZScsICc8aW5maWxlLm1hZT4nLCAnLW9tYWUnLCAnPG91dGZpbGUubWFlPic=

>  <r_lp_tautomer_probability>  (91) 
1

>  <r_epik_Ionization_Penalty>  (91) 
0.000198283

>  <r_epik_Ionization_Penalty_Charging>  (91) 
0.000198283

>  <r_epik_Ionization_Penalty_Neutral>  (91) 
0

>  <r_epik_State_Penalty>  (91) 
-0

>  <r_epik_Charging_Adjusted_Penalty>  (91) 
0.000198283

>  <i_epik_Tot_Q>  (91) 
1

>  <i_epik_Tot_abs_Q>  (91) 
1

>  <s_epik_Chemistry_Notes>  (91) 
This compound has an ester and may undergo hydrolysis at high or low pH.

>  <s_lp_Force_Field>  (91) 
OPLS3e

>  <r_lp_Energy>  (91) 
107.603

>  <b_lp_Chiralities_Consistent>  (91) 
1

>  <s_lp_Variant>  (91) 
36:0-1

>  <s_i_glide_gridfile>  (91) 
pfpi4k_grid

>  <i_i_glide_lignum>  (91) 
6

>  <i_i_glide_rotatable_bonds>  (91) 
2

>  <r_i_docking_score>  (91) 
-3.51964

>  <r_i_glide_ligand_efficiency>  (91) 
-0.185244

>  <r_i_glide_ligand_efficiency_sa>  (91) 
-0.494306

>  <r_i_glide_ligand_efficiency_ln>  (91) 
-0.892305

>  <r_i_glide_gscore>  (91) 
-3.51964

>  <r_i_glide_lipo>  (91) 
-0.183045

>  <r_i_glide_hbond>  (91) 
-0.0737487

>  <r_i_glide_metal>  (91) 
-0

>  <r_i_glide_rewards>  (91) 
-1.62022

>  <r_i_glide_evdw>  (91) 
-20.144

>  <r_i_glide_ecoul>  (91) 
-4.12938

>  <r_i_glide_erotb>  (91) 
0

>  <r_i_glide_esite>  (91) 
-0.0160214

>  <r_i_glide_emodel>  (91) 
-32.6279

>  <r_i_glide_energy>  (91) 
-24.2733

>  <r_i_glide_einternal>  (91) 
0.272662

>  <r_i_glide_intrahb_reward>  (91) 
-0

>  <i_i_glide_confnum>  (91) 
1

>  <i_i_glide_posenum>  (91) 
36

>  <r_i_glide_eff_state_penalty>  (91) 
0

>  <ligand_id>  (91) 
36

>  <original_smiles>  (91) 
COC(=O)C1CC2C3CCCN4C3C3CCC(C13)C24

>  <smiles>  (91) 
[H]C([H])([H])OC(=O)C1([H])C([H])([H])C2([H])C3([H])C([H])([H])C([H])([H])C([H])([H])[N+]4([H])C3([H])C3([H])C([H])([H])C([H])([H])C([H])(C13[H])C24[H]

$$$$
36:1:0
     RDKit          3D

 43 47  0  0  1  0  0  0  0  0999 V2000
    3.3615   -4.2363    0.2950 C   0  0  0  0  0  0  0  0  0  0  0  0
    3.1849   -5.2515    1.2716 O   0  0  0  0  0  0  0  0  0  0  0  0
    2.0614   -5.9862    1.2877 C   0  0  0  0  0  0  0  0  0  0  0  0
    1.1180   -5.8765    0.4995 O   0  0  0  0  0  0  0  0  0  0  0  0
    2.0653   -7.0312    2.4169 C   0  0  2  0  0  0  0  0  0  0  0  0
    2.7488   -8.3102    1.9202 C   0  0  0  0  0  0  0  0  0  0  0  0
    2.3364   -9.5228    2.7508 C   0  0  1  0  0  0  0  0  0  0  0  0
    2.6268   -9.3013    4.2622 C   0  0  2  0  0  0  0  0  0  0  0  0
    3.2604  -10.5683    4.8855 C   0  0  0  0  0  0  0  0  0  0  0  0
    2.4296  -11.8201    4.5378 C   0  0  0  0  0  0  0  0  0  0  0  0
    0.9118  -11.5532    4.5920 C   0  0  0  0  0  0  0  0  0  0  0  0
    0.5179  -10.1975    4.1225 N   0  0  1  0  0  0  0  0  0  0  0  0
    1.2090   -9.1115    4.8366 C   0  0  2  0  0  0  0  0  0  0  0  0
    0.5117   -7.7420    4.4702 C   0  0  2  0  0  0  0  0  0  0  0  0
   -1.0284   -7.9112    4.5051 C   0  0  0  0  0  0  0  0  0  0  0  0
   -1.4019   -8.4965    3.1204 C   0  0  0  0  0  0  0  0  0  0  0  0
   -0.0504   -8.5597    2.3728 C   0  0  1  0  0  0  0  0  0  0  0  0
    0.6526   -7.3436    2.9814 C   0  0  2  0  0  0  0  0  0  0  0  0
    0.8030   -9.8433    2.7134 C   0  0  1  0  0  0  0  0  0  0  0  0
    4.3037   -3.7178    0.4761 H   0  0  0  0  0  0  0  0  0  0  0  0
    2.5626   -3.4933    0.3341 H   0  0  0  0  0  0  0  0  0  0  0  0
    3.3988   -4.6589   -0.7101 H   0  0  0  0  0  0  0  0  0  0  0  0
    2.6472   -6.5941    3.2290 H   0  0  0  0  0  0  0  0  0  0  0  0
    2.4986   -8.5168    0.8828 H   0  0  0  0  0  0  0  0  0  0  0  0
    3.8283   -8.1808    1.9661 H   0  0  0  0  0  0  0  0  0  0  0  0
    2.9039  -10.3703    2.3656 H   0  0  0  0  0  0  0  0  0  0  0  0
    3.2684   -8.4424    4.4661 H   0  0  0  0  0  0  0  0  0  0  0  0
    4.2842  -10.7061    4.5278 H   0  0  0  0  0  0  0  0  0  0  0  0
    3.3217  -10.4586    5.9713 H   0  0  0  0  0  0  0  0  0  0  0  0
    2.6971  -12.1938    3.5471 H   0  0  0  0  0  0  0  0  0  0  0  0
    2.6781  -12.6309    5.2264 H   0  0  0  0  0  0  0  0  0  0  0  0
    0.3710  -12.3210    4.0431 H   0  0  0  0  0  0  0  0  0  0  0  0
    0.5785  -11.6171    5.6269 H   0  0  0  0  0  0  0  0  0  0  0  0
    1.1710   -9.2643    5.9163 H   0  0  0  0  0  0  0  0  0  0  0  0
    0.8556   -6.9411    5.1265 H   0  0  0  0  0  0  0  0  0  0  0  0
   -1.3609   -8.5670    5.3083 H   0  0  0  0  0  0  0  0  0  0  0  0
   -1.5134   -6.9433    4.6409 H   0  0  0  0  0  0  0  0  0  0  0  0
   -1.9016   -9.4649    3.1927 H   0  0  0  0  0  0  0  0  0  0  0  0
   -2.0904   -7.8226    2.6091 H   0  0  0  0  0  0  0  0  0  0  0  0
   -0.1890   -8.4191    1.3016 H   0  0  0  0  0  0  0  0  0  0  0  0
    0.0383   -6.4565    2.8130 H   0  0  0  0  0  0  0  0  0  0  0  0
    0.5530  -10.6660    2.0475 H   0  0  0  0  0  0  0  0  0  0  0  0
   -0.4794  -10.1323    4.2960 H   0  0  0  0  0  0  0  0  0  0  0  0
  1  2  1  0
  1 20  1  0
  1 21  1  0
  1 22  1  0
  2  3  1  0
  3  4  2  0
  3  5  1  0
  5 18  1  0
  5  6  1  0
  5 23  1  1
  6  7  1  0
  6 24  1  0
  6 25  1  0
  7 19  1  0
  7  8  1  0
  7 26  1  6
  8 13  1  0
  8  9  1  0
  8 27  1  6
  9 10  1  0
  9 28  1  0
  9 29  1  0
 10 11  1  0
 10 30  1  0
 10 31  1  0
 11 12  1  0
 11 32  1  0
 11 33  1  0
 12 19  1  0
 12 13  1  0
 12 43  1  6
 13 14  1  0
 13 34  1  1
 14 18  1  0
 14 15  1  0
 14 35  1  1
 15 16  1  0
 15 36  1  0
 15 37  1  0
 16 17  1  0
 16 38  1  0
 16 39  1  0
 17 18  1  0
 17 19  1  0
 17 40  1  6
 18 41  1  1
 19 42  1  6
M  CHG  1  12   1
M  END
>  <i_m_ct_stereo_status>  (92) 
1

>  <s_m_source_file>  (92) 
/var/tmp/pbs.5076255.sched01/tmpaqd8m8vp/41rn73ajce.sdf

>  <i_m_source_file_index>  (92) 
7

>  <i_lp_mmshare_version>  (92) 
48012

>  <i_f3d_flags>  (92) 
0

>  <s_epik_input>  (92) 
W0NIM11PQyg9TylbQ0BIXShbQ0gyXTEpW0NASF0oW0NASF0yW0NIMl1bQ0gyXTMpW0NASF0zW0NAQEhdNE4oW0NIMl1bQ0gyXVtDSDJdNSlbQ0hdMltDQEBIXTVbQ0BIXTE0

>  <s_epik_cmdline>  (92) 
J2VwaWtfcHl0aG9uJywgJy1waHQnLCAnMi4wJywgJy1waCcsICc3LjAnLCAnLXRuJywgJzgnLCAnLW1hJywgJzIwMCcsICctaW1hZScsICc8aW5maWxlLm1hZT4nLCAnLW9tYWUnLCAnPG91dGZpbGUubWFlPic=

>  <r_lp_tautomer_probability>  (92) 
1

>  <r_epik_Ionization_Penalty>  (92) 
0.000198283

>  <r_epik_Ionization_Penalty_Charging>  (92) 
0.000198283

>  <r_epik_Ionization_Penalty_Neutral>  (92) 
0

>  <r_epik_State_Penalty>  (92) 
-0

>  <r_epik_Charging_Adjusted_Penalty>  (92) 
0.000198283

>  <i_epik_Tot_Q>  (92) 
1

>  <i_epik_Tot_abs_Q>  (92) 
1

>  <s_epik_Chemistry_Notes>  (92) 
This compound has an ester and may undergo hydrolysis at high or low pH.

>  <s_lp_Force_Field>  (92) 
OPLS3e

>  <r_lp_Energy>  (92) 
68.327

>  <b_lp_Chiralities_Consistent>  (92) 
1

>  <s_lp_Variant>  (92) 
36:0-2

>  <s_i_glide_gridfile>  (92) 
pfpi4k_grid

>  <i_i_glide_lignum>  (92) 
7

>  <i_i_glide_rotatable_bonds>  (92) 
2

>  <r_i_docking_score>  (92) 
-4.38215

>  <r_i_glide_ligand_efficiency>  (92) 
-0.230639

>  <r_i_glide_ligand_efficiency_sa>  (92) 
-0.615438

>  <r_i_glide_ligand_efficiency_ln>  (92) 
-1.11097

>  <r_i_glide_gscore>  (92) 
-4.38215

>  <r_i_glide_lipo>  (92) 
-0.0918413

>  <r_i_glide_hbond>  (92) 
-0.308544

>  <r_i_glide_metal>  (92) 
-0

>  <r_i_glide_rewards>  (92) 
-1.62022

>  <r_i_glide_evdw>  (92) 
-21.3859

>  <r_i_glide_ecoul>  (92) 
-8.01844

>  <r_i_glide_erotb>  (92) 
0

>  <r_i_glide_esite>  (92) 
-0.0894794

>  <r_i_glide_emodel>  (92) 
-40.4227

>  <r_i_glide_energy>  (92) 
-29.4043

>  <r_i_glide_einternal>  (92) 
0.513897

>  <r_i_glide_intrahb_reward>  (92) 
-0

>  <i_i_glide_confnum>  (92) 
1

>  <i_i_glide_posenum>  (92) 
13

>  <r_i_glide_eff_state_penalty>  (92) 
0

>  <ligand_id>  (92) 
36

>  <original_smiles>  (92) 
COC(=O)C1CC2C3CCCN4C3C3CCC(C13)C24

>  <smiles>  (92) 
[H]C([H])([H])OC(=O)C1([H])C([H])([H])C2([H])C3([H])C([H])([H])C([H])([H])C([H])([H])[N+]4([H])C3([H])C3([H])C([H])([H])C([H])([H])C([H])(C13[H])C24[H]

$$$$
36:1:1
     RDKit          3D

 43 47  0  0  1  0  0  0  0  0999 V2000
    3.8138   -4.6413    0.0621 C   0  0  0  0  0  0  0  0  0  0  0  0
    3.2696   -5.1838    1.2537 O   0  0  0  0  0  0  0  0  0  0  0  0
    2.1014   -5.8475    1.2165 C   0  0  0  0  0  0  0  0  0  0  0  0
    1.4002   -5.9923    0.2147 O   0  0  0  0  0  0  0  0  0  0  0  0
    1.6732   -6.3579    2.6082 C   0  0  2  0  0  0  0  0  0  0  0  0
    2.8062   -7.1962    3.2241 C   0  0  0  0  0  0  0  0  0  0  0  0
    2.2848   -8.1205    4.3245 C   0  0  1  0  0  0  0  0  0  0  0  0
    1.5338   -7.3289    5.4321 C   0  0  2  0  0  0  0  0  0  0  0  0
    1.9434   -7.8356    6.8370 C   0  0  0  0  0  0  0  0  0  0  0  0
    1.8243   -9.3709    6.9165 C   0  0  0  0  0  0  0  0  0  0  0  0
    0.5713   -9.9004    6.1888 C   0  0  0  0  0  0  0  0  0  0  0  0
    0.2336   -9.1626    4.9406 N   0  0  1  0  0  0  0  0  0  0  0  0
    0.0678   -7.7177    5.1623 C   0  0  2  0  0  0  0  0  0  0  0  0
   -0.5761   -7.0823    3.8717 C   0  0  2  0  0  0  0  0  0  0  0  0
   -1.7279   -7.9860    3.3582 C   0  0  0  0  0  0  0  0  0  0  0  0
   -1.0174   -9.0712    2.5011 C   0  0  0  0  0  0  0  0  0  0  0  0
    0.4826   -8.6783    2.5433 C   0  0  1  0  0  0  0  0  0  0  0  0
    0.3361   -7.1531    2.6209 C   0  0  2  0  0  0  0  0  0  0  0  0
    1.2285   -9.1724    3.8425 C   0  0  1  0  0  0  0  0  0  0  0  0
    4.7405   -4.1137    0.2879 H   0  0  0  0  0  0  0  0  0  0  0  0
    3.1270   -3.9359   -0.4087 H   0  0  0  0  0  0  0  0  0  0  0  0
    4.0446   -5.4307   -0.6547 H   0  0  0  0  0  0  0  0  0  0  0  0
    1.5242   -5.4580    3.2052 H   0  0  0  0  0  0  0  0  0  0  0  0
    3.3112   -7.7943    2.4623 H   0  0  0  0  0  0  0  0  0  0  0  0
    3.5591   -6.5266    3.6418 H   0  0  0  0  0  0  0  0  0  0  0  0
    3.1570   -8.6287    4.7354 H   0  0  0  0  0  0  0  0  0  0  0  0
    1.6877   -6.2490    5.3826 H   0  0  0  0  0  0  0  0  0  0  0  0
    2.9688   -7.5382    7.0731 H   0  0  0  0  0  0  0  0  0  0  0  0
    1.3086   -7.3756    7.5975 H   0  0  0  0  0  0  0  0  0  0  0  0
    2.7133   -9.8415    6.4956 H   0  0  0  0  0  0  0  0  0  0  0  0
    1.8057   -9.6964    7.9577 H   0  0  0  0  0  0  0  0  0  0  0  0
    0.6855  -10.9592    5.9577 H   0  0  0  0  0  0  0  0  0  0  0  0
   -0.2860   -9.8209    6.8604 H   0  0  0  0  0  0  0  0  0  0  0  0
   -0.5767   -7.5249    6.0185 H   0  0  0  0  0  0  0  0  0  0  0  0
   -0.9066   -6.0645    4.0818 H   0  0  0  0  0  0  0  0  0  0  0  0
   -2.3197   -8.4234    4.1611 H   0  0  0  0  0  0  0  0  0  0  0  0
   -2.4130   -7.4203    2.7252 H   0  0  0  0  0  0  0  0  0  0  0  0
   -1.2025  -10.0846    2.8611 H   0  0  0  0  0  0  0  0  0  0  0  0
   -1.3922   -9.0249    1.4771 H   0  0  0  0  0  0  0  0  0  0  0  0
    1.0251   -8.9878    1.6511 H   0  0  0  0  0  0  0  0  0  0  0  0
   -0.2632   -6.8082    1.7767 H   0  0  0  0  0  0  0  0  0  0  0  0
    1.6548  -10.1653    3.6899 H   0  0  0  0  0  0  0  0  0  0  0  0
   -0.6341   -9.5677    4.6065 H   0  0  0  0  0  0  0  0  0  0  0  0
  1  2  1  0
  1 20  1  0
  1 21  1  0
  1 22  1  0
  2  3  1  0
  3  4  2  0
  3  5  1  0
  5 18  1  0
  5  6  1  0
  5 23  1  1
  6  7  1  0
  6 24  1  0
  6 25  1  0
  7 19  1  0
  7  8  1  0
  7 26  1  1
  8 13  1  0
  8  9  1  0
  8 27  1  1
  9 10  1  0
  9 28  1  0
  9 29  1  0
 10 11  1  0
 10 30  1  0
 10 31  1  0
 11 12  1  0
 11 32  1  0
 11 33  1  0
 12 19  1  0
 12 13  1  0
 12 43  1  6
 13 14  1  0
 13 34  1  1
 14 18  1  0
 14 15  1  0
 14 35  1  1
 15 16  1  0
 15 36  1  0
 15 37  1  0
 16 17  1  0
 16 38  1  0
 16 39  1  0
 17 18  1  0
 17 19  1  0
 17 40  1  6
 18 41  1  6
 19 42  1  6
M  CHG  1  12   1
M  END
>  <i_m_ct_stereo_status>  (93) 
1

>  <s_m_source_file>  (93) 
/var/tmp/pbs.5076255.sched01/tmpaqd8m8vp/41rn73ajce.sdf

>  <i_m_source_file_index>  (93) 
7

>  <i_lp_mmshare_version>  (93) 
48012

>  <i_f3d_flags>  (93) 
0

>  <s_epik_input>  (93) 
W0NIM11PQyg9TylbQ0BIXShbQ0gyXTEpW0NASF0oW0NASF0yW0NIMl1bQ0gyXTMpW0NASF0zW0NAQEhdNE4oW0NIMl1bQ0gyXVtDSDJdNSlbQ0hdMltDQEBIXTVbQ0BIXTE0

>  <s_epik_cmdline>  (93) 
J2VwaWtfcHl0aG9uJywgJy1waHQnLCAnMi4wJywgJy1waCcsICc3LjAnLCAnLXRuJywgJzgnLCAnLW1hJywgJzIwMCcsICctaW1hZScsICc8aW5maWxlLm1hZT4nLCAnLW9tYWUnLCAnPG91dGZpbGUubWFlPic=

>  <r_lp_tautomer_probability>  (93) 
1

>  <r_epik_Ionization_Penalty>  (93) 
0.000198283

>  <r_epik_Ionization_Penalty_Charging>  (93) 
0.000198283

>  <r_epik_Ionization_Penalty_Neutral>  (93) 
0

>  <r_epik_State_Penalty>  (93) 
-0

>  <r_epik_Charging_Adjusted_Penalty>  (93) 
0.000198283

>  <i_epik_Tot_Q>  (93) 
1

>  <i_epik_Tot_abs_Q>  (93) 
1

>  <s_epik_Chemistry_Notes>  (93) 
This compound has an ester and may undergo hydrolysis at high or low pH.

>  <s_lp_Force_Field>  (93) 
OPLS3e

>  <r_lp_Energy>  (93) 
68.327

>  <b_lp_Chiralities_Consistent>  (93) 
1

>  <s_lp_Variant>  (93) 
36:0-2

>  <s_i_glide_gridfile>  (93) 
pfpi4k_grid

>  <i_i_glide_lignum>  (93) 
7

>  <i_i_glide_rotatable_bonds>  (93) 
2

>  <r_i_docking_score>  (93) 
-4.00712

>  <r_i_glide_ligand_efficiency>  (93) 
-0.210901

>  <r_i_glide_ligand_efficiency_sa>  (93) 
-0.562768

>  <r_i_glide_ligand_efficiency_ln>  (93) 
-1.01589

>  <r_i_glide_gscore>  (93) 
-4.00712

>  <r_i_glide_lipo>  (93) 
-0.115763

>  <r_i_glide_hbond>  (93) 
-0.300971

>  <r_i_glide_metal>  (93) 
-0

>  <r_i_glide_rewards>  (93) 
-1.62022

>  <r_i_glide_evdw>  (93) 
-20.7316

>  <r_i_glide_ecoul>  (93) 
-5.5902

>  <r_i_glide_erotb>  (93) 
0

>  <r_i_glide_esite>  (93) 
-0.0950525

>  <r_i_glide_emodel>  (93) 
-36.3812

>  <r_i_glide_energy>  (93) 
-26.3218

>  <r_i_glide_einternal>  (93) 
0.415893

>  <r_i_glide_intrahb_reward>  (93) 
-0

>  <i_i_glide_confnum>  (93) 
2

>  <i_i_glide_posenum>  (93) 
38

>  <r_i_glide_eff_state_penalty>  (93) 
0

>  <ligand_id>  (93) 
36

>  <original_smiles>  (93) 
COC(=O)C1CC2C3CCCN4C3C3CCC(C13)C24

>  <smiles>  (93) 
[H]C([H])([H])OC(=O)C1([H])C([H])([H])C2([H])C3([H])C([H])([H])C([H])([H])C([H])([H])[N+]4([H])C3([H])C3([H])C([H])([H])C([H])([H])C([H])(C13[H])C24[H]

$$$$
36:1:2
     RDKit          3D

 43 47  0  0  1  0  0  0  0  0999 V2000
    2.2407   -4.7174   -0.0675 C   0  0  0  0  0  0  0  0  0  0  0  0
    2.0143   -5.6882    0.9438 O   0  0  0  0  0  0  0  0  0  0  0  0
    2.5692   -5.5201    2.1597 C   0  0  0  0  0  0  0  0  0  0  0  0
    3.1918   -4.5235    2.5250 O   0  0  0  0  0  0  0  0  0  0  0  0
    2.3939   -6.7301    3.0920 C   0  0  2  0  0  0  0  0  0  0  0  0
    3.2013   -7.9181    2.5459 C   0  0  0  0  0  0  0  0  0  0  0  0
    2.6636   -9.2454    3.0826 C   0  0  1  0  0  0  0  0  0  0  0  0
    2.6439   -9.2729    4.6376 C   0  0  2  0  0  0  0  0  0  0  0  0
    3.1732  -10.6275    5.1649 C   0  0  0  0  0  0  0  0  0  0  0  0
    2.4589  -11.8010    4.4687 C   0  0  0  0  0  0  0  0  0  0  0  0
    0.9515  -11.5408    4.2689 C   0  0  0  0  0  0  0  0  0  0  0  0
    0.6226  -10.1212    3.9437 N   0  0  1  0  0  0  0  0  0  0  0  0
    1.1361   -9.1679    4.9417 C   0  0  2  0  0  0  0  0  0  0  0  0
    0.4902   -7.7502    4.6670 C   0  0  2  0  0  0  0  0  0  0  0  0
   -1.0242   -7.9115    4.3791 C   0  0  0  0  0  0  0  0  0  0  0  0
   -1.0995   -8.2670    2.8669 C   0  0  0  0  0  0  0  0  0  0  0  0
    0.3751   -8.2230    2.3881 C   0  0  1  0  0  0  0  0  0  0  0  0
    0.9100   -7.1219    3.3129 C   0  0  2  0  0  0  0  0  0  0  0  0
    1.1763   -9.5516    2.6914 C   0  0  1  0  0  0  0  0  0  0  0  0
    1.7170   -5.0189   -0.9744 H   0  0  0  0  0  0  0  0  0  0  0  0
    3.3020   -4.6336   -0.3053 H   0  0  0  0  0  0  0  0  0  0  0  0
    1.8714   -3.7318    0.2191 H   0  0  0  0  0  0  0  0  0  0  0  0
    2.8024   -6.4282    4.0583 H   0  0  0  0  0  0  0  0  0  0  0  0
    3.1866   -7.9476    1.4552 H   0  0  0  0  0  0  0  0  0  0  0  0
    4.2462   -7.7988    2.8346 H   0  0  0  0  0  0  0  0  0  0  0  0
    3.3202  -10.0218    2.6882 H   0  0  0  0  0  0  0  0  0  0  0  0
    3.2115   -8.4632    5.1005 H   0  0  0  0  0  0  0  0  0  0  0  0
    4.2501  -10.7146    5.0028 H   0  0  0  0  0  0  0  0  0  0  0  0
    3.0165  -10.6960    6.2445 H   0  0  0  0  0  0  0  0  0  0  0  0
    2.9206  -12.0089    3.5021 H   0  0  0  0  0  0  0  0  0  0  0  0
    2.5976  -12.7120    5.0523 H   0  0  0  0  0  0  0  0  0  0  0  0
    0.5610  -12.2063    3.4989 H   0  0  0  0  0  0  0  0  0  0  0  0
    0.4292  -11.7905    5.1958 H   0  0  0  0  0  0  0  0  0  0  0  0
    0.8890   -9.4942    5.9543 H   0  0  0  0  0  0  0  0  0  0  0  0
    0.6775   -7.0710    5.4995 H   0  0  0  0  0  0  0  0  0  0  0  0
   -1.4978   -8.6640    5.0099 H   0  0  0  0  0  0  0  0  0  0  0  0
   -1.5478   -6.9718    4.5630 H   0  0  0  0  0  0  0  0  0  0  0  0
   -1.5802   -9.2287    2.6755 H   0  0  0  0  0  0  0  0  0  0  0  0
   -1.6870   -7.5090    2.3464 H   0  0  0  0  0  0  0  0  0  0  0  0
    0.4582   -7.9458    1.3354 H   0  0  0  0  0  0  0  0  0  0  0  0
    0.3263   -6.2088    3.1726 H   0  0  0  0  0  0  0  0  0  0  0  0
    1.0951  -10.2515    1.8592 H   0  0  0  0  0  0  0  0  0  0  0  0
   -0.3876  -10.0592    3.9266 H   0  0  0  0  0  0  0  0  0  0  0  0
  1  2  1  0
  1 20  1  0
  1 21  1  0
  1 22  1  0
  2  3  1  0
  3  4  2  0
  3  5  1  0
  5 18  1  0
  5  6  1  0
  5 23  1  1
  6  7  1  0
  6 24  1  0
  6 25  1  0
  7 19  1  0
  7  8  1  0
  7 26  1  6
  8 13  1  0
  8  9  1  0
  8 27  1  1
  9 10  1  0
  9 28  1  0
  9 29  1  0
 10 11  1  0
 10 30  1  0
 10 31  1  0
 11 12  1  0
 11 32  1  0
 11 33  1  0
 12 19  1  0
 12 13  1  0
 12 43  1  6
 13 14  1  0
 13 34  1  1
 14 18  1  0
 14 15  1  0
 14 35  1  1
 15 16  1  0
 15 36  1  0
 15 37  1  0
 16 17  1  0
 16 38  1  0
 16 39  1  0
 17 18  1  0
 17 19  1  0
 17 40  1  6
 18 41  1  6
 19 42  1  6
M  CHG  1  12   1
M  END
>  <i_m_ct_stereo_status>  (94) 
1

>  <s_m_source_file>  (94) 
/var/tmp/pbs.5076255.sched01/tmpaqd8m8vp/41rn73ajce.sdf

>  <i_m_source_file_index>  (94) 
7

>  <i_lp_mmshare_version>  (94) 
48012

>  <i_f3d_flags>  (94) 
0

>  <s_epik_input>  (94) 
W0NIM11PQyg9TylbQ0BIXShbQ0gyXTEpW0NASF0oW0NASF0yW0NIMl1bQ0gyXTMpW0NASF0zW0NAQEhdNE4oW0NIMl1bQ0gyXVtDSDJdNSlbQ0hdMltDQEBIXTVbQ0BIXTE0

>  <s_epik_cmdline>  (94) 
J2VwaWtfcHl0aG9uJywgJy1waHQnLCAnMi4wJywgJy1waCcsICc3LjAnLCAnLXRuJywgJzgnLCAnLW1hJywgJzIwMCcsICctaW1hZScsICc8aW5maWxlLm1hZT4nLCAnLW9tYWUnLCAnPG91dGZpbGUubWFlPic=

>  <r_lp_tautomer_probability>  (94) 
1

>  <r_epik_Ionization_Penalty>  (94) 
0.000198283

>  <r_epik_Ionization_Penalty_Charging>  (94) 
0.000198283

>  <r_epik_Ionization_Penalty_Neutral>  (94) 
0

>  <r_epik_State_Penalty>  (94) 
-0

>  <r_epik_Charging_Adjusted_Penalty>  (94) 
0.000198283

>  <i_epik_Tot_Q>  (94) 
1

>  <i_epik_Tot_abs_Q>  (94) 
1

>  <s_epik_Chemistry_Notes>  (94) 
This compound has an ester and may undergo hydrolysis at high or low pH.

>  <s_lp_Force_Field>  (94) 
OPLS3e

>  <r_lp_Energy>  (94) 
68.327

>  <b_lp_Chiralities_Consistent>  (94) 
1

>  <s_lp_Variant>  (94) 
36:0-2

>  <s_i_glide_gridfile>  (94) 
pfpi4k_grid

>  <i_i_glide_lignum>  (94) 
7

>  <i_i_glide_rotatable_bonds>  (94) 
2

>  <r_i_docking_score>  (94) 
-3.60752

>  <r_i_glide_ligand_efficiency>  (94) 
-0.189869

>  <r_i_glide_ligand_efficiency_sa>  (94) 
-0.506648

>  <r_i_glide_ligand_efficiency_ln>  (94) 
-0.914583

>  <r_i_glide_gscore>  (94) 
-3.60752

>  <r_i_glide_lipo>  (94) 
-0.135345

>  <r_i_glide_hbond>  (94) 
-0.0469397

>  <r_i_glide_metal>  (94) 
-0

>  <r_i_glide_rewards>  (94) 
-1.62022

>  <r_i_glide_evdw>  (94) 
-21.4647

>  <r_i_glide_ecoul>  (94) 
-4.56826

>  <r_i_glide_erotb>  (94) 
0

>  <r_i_glide_esite>  (94) 
-0.0465352

>  <r_i_glide_emodel>  (94) 
-35.1861

>  <r_i_glide_energy>  (94) 
-26.0329

>  <r_i_glide_einternal>  (94) 
0.203609

>  <r_i_glide_intrahb_reward>  (94) 
-0

>  <i_i_glide_confnum>  (94) 
2

>  <i_i_glide_posenum>  (94) 
32

>  <r_i_glide_eff_state_penalty>  (94) 
0

>  <ligand_id>  (94) 
36

>  <original_smiles>  (94) 
COC(=O)C1CC2C3CCCN4C3C3CCC(C13)C24

>  <smiles>  (94) 
[H]C([H])([H])OC(=O)C1([H])C([H])([H])C2([H])C3([H])C([H])([H])C([H])([H])C([H])([H])[N+]4([H])C3([H])C3([H])C([H])([H])C([H])([H])C([H])(C13[H])C24[H]

$$$$
37:0:0
     RDKit          3D

 84 91  0  0  1  0  0  0  0  0999 V2000
   -2.6971    4.0114    9.0632 C   0  0  0  0  0  0  0  0  0  0  0  0
   -1.2352    3.8037    8.5850 C   0  0  0  0  0  0  0  0  0  0  0  0
   -0.6839    5.1983    8.2137 C   0  0  0  0  0  0  0  0  0  0  0  0
   -0.3972    3.2529    9.7610 C   0  0  0  0  0  0  0  0  0  0  0  0
   -0.0330    1.7687    9.6177 C   0  0  0  0  0  0  0  0  0  0  0  0
    0.7972    1.4930    8.3438 C   0  0  2  0  0  0  0  0  0  0  0  0
    2.1432    2.2510    8.4098 C   0  0  0  0  0  0  0  0  0  0  0  0
    0.0276    1.9691    7.0758 C   0  0  2  0  0  0  0  0  0  0  0  0
   -1.2717    2.8163    7.3795 C   0  0  0  0  0  0  0  0  0  0  0  0
   -0.2820    0.6561    6.3642 C   0  0  1  0  0  0  0  0  0  0  0  0
   -1.5618    0.1494    6.8179 O   0  0  0  0  0  0  0  0  0  0  0  0
   -1.2633    0.0468    5.4333 C   0  0  2  0  0  0  0  0  0  0  0  0
   -0.8237   -1.3190    5.0306 C   0  0  0  0  0  0  0  0  0  0  0  0
    0.3524   -1.6754    6.0180 C   0  0  1  0  0  0  0  0  0  0  0  0
   -0.1147   -2.6932    7.0845 C   0  0  0  0  0  0  0  0  0  0  0  0
    1.5791   -2.2576    5.2814 C   0  0  1  0  0  0  0  0  0  0  0  0
    1.3968   -3.4235    4.2615 C   0  0  0  0  0  0  0  0  0  0  0  0
    2.6941   -3.7357    3.4540 C   0  0  0  0  0  0  0  0  0  0  0  0
    3.3119   -2.4483    2.8507 C   0  0  2  0  0  0  0  0  0  0  0  0
    2.3016   -1.9653    1.7629 C   0  0  0  0  0  0  0  0  0  0  0  0
    4.6916   -2.5691    2.1572 C   0  0  1  0  0  0  0  0  0  0  0  0
    4.6331   -2.8292    0.7641 O   0  0  0  0  0  0  0  0  0  0  0  0
    5.3170   -1.7855    0.1454 C   0  0  0  0  0  0  0  0  0  0  0  0
    6.7502   -2.2739   -0.1911 C   0  0  0  0  0  0  0  0  0  0  0  0
    4.5489   -1.4044   -1.1351 C   0  0  0  0  0  0  0  0  0  0  0  0
    5.3598   -0.6517    0.9618 O   0  0  0  0  0  0  0  0  0  0  0  0
    5.3211   -1.1657    2.2770 C   0  0  1  0  0  0  0  0  0  0  0  0
    4.4663   -0.3495    3.2916 C   0  0  1  0  0  0  0  0  0  0  0  0
    3.6236    0.6096    2.6937 O   0  0  0  0  0  0  0  0  0  0  0  0
    3.6159   -1.4265    4.0070 C   0  0  2  0  0  0  0  0  0  0  0  0
    4.5887   -2.0120    5.0854 C   0  0  0  0  0  0  0  0  0  0  0  0
    2.2548   -1.0253    4.6722 C   0  0  2  0  0  0  0  0  0  0  0  0
    2.1702    0.0317    5.7929 C   0  0  0  0  0  0  0  0  0  0  0  0
    0.8696   -0.2886    6.6037 C   0  0  1  0  0  0  0  0  0  0  0  0
    0.9964   -0.0492    8.1267 C   0  0  1  0  0  0  0  0  0  0  0  0
    2.1685   -0.5807    8.7170 O   0  0  0  0  0  0  0  0  0  0  0  0
   -2.7773    4.7119    9.8980 H   0  0  0  0  0  0  0  0  0  0  0  0
   -3.1341    3.0692    9.4026 H   0  0  0  0  0  0  0  0  0  0  0  0
   -3.3366    4.3881    8.2624 H   0  0  0  0  0  0  0  0  0  0  0  0
    0.3442    5.1401    7.8634 H   0  0  0  0  0  0  0  0  0  0  0  0
   -0.6901    5.8638    9.0819 H   0  0  0  0  0  0  0  0  0  0  0  0
   -1.2747    5.6847    7.4430 H   0  0  0  0  0  0  0  0  0  0  0  0
    0.5038    3.8537    9.9131 H   0  0  0  0  0  0  0  0  0  0  0  0
   -0.9482    3.3665   10.6920 H   0  0  0  0  0  0  0  0  0  0  0  0
    0.5109    1.4366   10.4968 H   0  0  0  0  0  0  0  0  0  0  0  0
   -0.9579    1.1901    9.6036 H   0  0  0  0  0  0  0  0  0  0  0  0
    2.8070    1.9816    7.5922 H   0  0  0  0  0  0  0  0  0  0  0  0
    2.6632    2.0587    9.3435 H   0  0  0  0  0  0  0  0  0  0  0  0
    2.0032    3.3301    8.3338 H   0  0  0  0  0  0  0  0  0  0  0  0
    0.6784    2.5575    6.4175 H   0  0  0  0  0  0  0  0  0  0  0  0
   -2.1659    2.1986    7.5030 H   0  0  0  0  0  0  0  0  0  0  0  0
   -1.4859    3.4057    6.4943 H   0  0  0  0  0  0  0  0  0  0  0  0
   -1.9124    0.6465    4.7933 H   0  0  0  0  0  0  0  0  0  0  0  0
   -1.6593   -2.0141    5.1209 H   0  0  0  0  0  0  0  0  0  0  0  0
   -0.5162   -1.2899    3.9903 H   0  0  0  0  0  0  0  0  0  0  0  0
    0.6714   -2.9083    7.8108 H   0  0  0  0  0  0  0  0  0  0  0  0
   -0.4155   -3.6435    6.6371 H   0  0  0  0  0  0  0  0  0  0  0  0
   -0.9712   -2.3290    7.6359 H   0  0  0  0  0  0  0  0  0  0  0  0
    2.2060   -2.6473    6.0805 H   0  0  0  0  0  0  0  0  0  0  0  0
    1.1042   -4.3279    4.7908 H   0  0  0  0  0  0  0  0  0  0  0  0
    0.5768   -3.2196    3.5750 H   0  0  0  0  0  0  0  0  0  0  0  0
    3.4127   -4.2434    4.0955 H   0  0  0  0  0  0  0  0  0  0  0  0
    2.4763   -4.4581    2.6647 H   0  0  0  0  0  0  0  0  0  0  0  0
    2.6213   -1.0712    1.2363 H   0  0  0  0  0  0  0  0  0  0  0  0
    1.3021   -1.7567    2.1294 H   0  0  0  0  0  0  0  0  0  0  0  0
    2.1771   -2.7240    0.9903 H   0  0  0  0  0  0  0  0  0  0  0  0
    5.3274   -3.3123    2.6413 H   0  0  0  0  0  0  0  0  0  0  0  0
    7.2943   -2.5710    0.7079 H   0  0  0  0  0  0  0  0  0  0  0  0
    7.3135   -1.4892   -0.6786 H   0  0  0  0  0  0  0  0  0  0  0  0
    6.7053   -3.1262   -0.8737 H   0  0  0  0  0  0  0  0  0  0  0  0
    3.5447   -1.0651   -0.8759 H   0  0  0  0  0  0  0  0  0  0  0  0
    4.4629   -2.2667   -1.7978 H   0  0  0  0  0  0  0  0  0  0  0  0
    5.0574   -0.5961   -1.6614 H   0  0  0  0  0  0  0  0  0  0  0  0
    6.3460   -1.2745    2.6305 H   0  0  0  0  0  0  0  0  0  0  0  0
    5.0988    0.1956    3.9930 H   0  0  0  0  0  0  0  0  0  0  0  0
    4.1310    1.3640    2.4298 H   0  0  0  0  0  0  0  0  0  0  0  0
    4.8020   -1.2833    5.8647 H   0  0  0  0  0  0  0  0  0  0  0  0
    5.5595   -2.2906    4.6793 H   0  0  0  0  0  0  0  0  0  0  0  0
    4.2300   -2.9059    5.5872 H   0  0  0  0  0  0  0  0  0  0  0  0
    1.6120   -0.6094    3.8997 H   0  0  0  0  0  0  0  0  0  0  0  0
    3.0454   -0.0743    6.4282 H   0  0  0  0  0  0  0  0  0  0  0  0
    2.1972    1.0440    5.3865 H   0  0  0  0  0  0  0  0  0  0  0  0
    0.1730   -0.5478    8.6328 H   0  0  0  0  0  0  0  0  0  0  0  0
    2.9129   -0.1478    8.3541 H   0  0  0  0  0  0  0  0  0  0  0  0
  1  2  1  0
  1 37  1  0
  1 38  1  0
  1 39  1  0
  2  9  1  0
  2  3  1  0
  2  4  1  0
  3 40  1  0
  3 41  1  0
  3 42  1  0
  4  5  1  0
  4 43  1  0
  4 44  1  0
  5  6  1  0
  5 45  1  0
  5 46  1  0
  6 35  1  0
  6  7  1  1
  6  8  1  0
  7 47  1  0
  7 48  1  0
  7 49  1  0
  8  9  1  0
  8 10  1  0
  8 50  1  6
  9 51  1  0
  9 52  1  0
 10 12  1  0
 10 34  1  0
 10 11  1  1
 11 12  1  0
 12 13  1  0
 12 53  1  6
 13 14  1  0
 13 54  1  0
 13 55  1  0
 14 34  1  0
 14 15  1  1
 14 16  1  0
 15 56  1  0
 15 57  1  0
 15 58  1  0
 16 32  1  0
 16 17  1  0
 16 59  1  1
 17 18  1  0
 17 60  1  0
 17 61  1  0
 18 19  1  0
 18 62  1  0
 18 63  1  0
 19 30  1  0
 19 20  1  6
 19 21  1  0
 20 64  1  0
 20 65  1  0
 20 66  1  0
 21 27  1  0
 21 22  1  0
 21 67  1  1
 22 23  1  0
 23 24  1  0
 23 25  1  0
 23 26  1  0
 24 68  1  0
 24 69  1  0
 24 70  1  0
 25 71  1  0
 25 72  1  0
 25 73  1  0
 26 27  1  0
 27 28  1  0
 27 74  1  1
 28 29  1  0
 28 30  1  0
 28 75  1  1
 29 76  1  0
 30 31  1  1
 30 32  1  0
 31 77  1  0
 31 78  1  0
 31 79  1  0
 32 33  1  0
 32 80  1  6
 34 33  1  6
 33 81  1  0
 33 82  1  0
 34 35  1  0
 35 36  1  0
 35 83  1  1
 36 84  1  0
M  END
>  <i_m_ct_stereo_status>  (95) 
1

>  <s_m_source_file>  (95) 
/var/tmp/pbs.5076255.sched01/tmpaqd8m8vp/41rn73ajce.sdf

>  <i_m_source_file_index>  (95) 
8

>  <i_lp_mmshare_version>  (95) 
48012

>  <i_f3d_flags>  (95) 
0

>  <s_epik_input>  (95) 
W0NIMl0xW0NIMl1DKFtDSDNdKShbQ0gzXSlbQ0gyXVtDQEhdMltDQF0xKFtDSDNdKVtDQEhdKFtPSF0pW0NAXTMoW0NAXTI0NSlbQ0BAXShbQ0gzXSkoW0NIMl1bQ0BIXTVPNClbQ0BASF02W0NAQEhdKFtDSDJdMylbQ0BAXTcoW0NIM10pW0NAXShbQ0gzXSkoW0NIMl1bQ0gyXTYpW0NAQEhdOFtDQEhdKFtDQEhdN1tPSF0pT0MoTzgpKFtDSDNdKVtDSDNd

>  <s_epik_cmdline>  (95) 
J2VwaWtfcHl0aG9uJywgJy1waHQnLCAnMi4wJywgJy1waCcsICc3LjAnLCAnLXRuJywgJzgnLCAnLW1hJywgJzIwMCcsICctaW1hZScsICc8aW5maWxlLm1hZT4nLCAnLW9tYWUnLCAnPG91dGZpbGUubWFlPic=

>  <r_lp_tautomer_probability>  (95) 
1

>  <r_epik_Ionization_Penalty>  (95) 
5.36896e-07

>  <r_epik_Ionization_Penalty_Charging>  (95) 
0

>  <r_epik_Ionization_Penalty_Neutral>  (95) 
5.36896e-07

>  <r_epik_State_Penalty>  (95) 
-0

>  <r_epik_Charging_Adjusted_Penalty>  (95) 
0

>  <i_epik_Tot_Q>  (95) 
0

>  <i_epik_Tot_abs_Q>  (95) 
0

>  <s_lp_Force_Field>  (95) 
OPLS3e

>  <r_lp_Energy>  (95) 
96.7423

>  <b_lp_Chiralities_Consistent>  (95) 
1

>  <s_lp_Variant>  (95) 
37:0-1

>  <s_i_glide_gridfile>  (95) 
pfpi4k_grid

>  <i_i_glide_lignum>  (95) 
8

>  <i_i_glide_rotatable_bonds>  (95) 
2

>  <r_i_docking_score>  (95) 
-2.36653

>  <r_i_glide_ligand_efficiency>  (95) 
-0.0657369

>  <r_i_glide_ligand_efficiency_sa>  (95) 
-0.217059

>  <r_i_glide_ligand_efficiency_ln>  (95) 
-0.516313

>  <r_i_glide_gscore>  (95) 
-2.36653

>  <r_i_glide_lipo>  (95) 
-0.2844

>  <r_i_glide_hbond>  (95) 
-0.16

>  <r_i_glide_metal>  (95) 
-0

>  <r_i_glide_rewards>  (95) 
-0.02735

>  <r_i_glide_evdw>  (95) 
-26.4055

>  <r_i_glide_ecoul>  (95) 
-3.83004

>  <r_i_glide_erotb>  (95) 
0

>  <r_i_glide_esite>  (95) 
0

>  <r_i_glide_emodel>  (95) 
-33.6237

>  <r_i_glide_energy>  (95) 
-30.2355

>  <r_i_glide_einternal>  (95) 
0.61846

>  <r_i_glide_intrahb_reward>  (95) 
-0

>  <i_i_glide_confnum>  (95) 
1

>  <i_i_glide_posenum>  (95) 
4

>  <r_i_glide_eff_state_penalty>  (95) 
0

>  <ligand_id>  (95) 
37

>  <original_smiles>  (95) 
CC1(C)CCC2(C)C(C1)C13OC1CC1(C)C4CCC5(C)C6OC(C)(C)OC6C(O)C5(C)C4CC13C2O

>  <smiles>  (95) 
[H]OC1([H])C2([H])OC(C([H])([H])[H])(C([H])([H])[H])OC2([H])C2(C([H])([H])[H])C([H])([H])C([H])([H])C3([H])C([H])(C([H])([H])C45C([H])(O[H])C6(C([H])([H])[H])C([H])([H])C([H])([H])C(C([H])([H])[H])(C([H])([H])[H])C([H])([H])C6([H])C46OC6([H])C([H])([H])C35C([H])([H])[H])C12C([H])([H])[H]

$$$$
37:0:1
     RDKit          3D

 84 91  0  0  1  0  0  0  0  0999 V2000
   -2.6074    3.9592    8.8717 C   0  0  0  0  0  0  0  0  0  0  0  0
   -1.1459    3.7304    8.4052 C   0  0  0  0  0  0  0  0  0  0  0  0
   -0.5652    5.1166    8.0493 C   0  0  0  0  0  0  0  0  0  0  0  0
   -0.3301    3.1590    9.5856 C   0  0  0  0  0  0  0  0  0  0  0  0
    0.0070    1.6702    9.4387 C   0  0  0  0  0  0  0  0  0  0  0  0
    0.8456    1.3913    8.1717 C   0  0  2  0  0  0  0  0  0  0  0  0
    2.2031    2.1257    8.2580 C   0  0  0  0  0  0  0  0  0  0  0  0
    0.1001    1.8884    6.8973 C   0  0  2  0  0  0  0  0  0  0  0  0
   -1.1864    2.7493    7.1938 C   0  0  0  0  0  0  0  0  0  0  0  0
   -0.2238    0.5802    6.1751 C   0  0  1  0  0  0  0  0  0  0  0  0
   -1.5273    0.0986    6.6025 O   0  0  0  0  0  0  0  0  0  0  0  0
   -1.2023   -0.0038    5.2241 C   0  0  2  0  0  0  0  0  0  0  0  0
   -0.7738   -1.3772    4.8256 C   0  0  0  0  0  0  0  0  0  0  0  0
    0.3840   -1.7541    5.8219 C   0  0  1  0  0  0  0  0  0  0  0  0
   -0.1088   -2.7722    6.8775 C   0  0  0  0  0  0  0  0  0  0  0  0
    1.6078   -2.3555    5.0955 C   0  0  1  0  0  0  0  0  0  0  0  0
    1.4186   -3.5110    4.0658 C   0  0  0  0  0  0  0  0  0  0  0  0
    2.7194   -3.8398    3.2714 C   0  0  0  0  0  0  0  0  0  0  0  0
    3.3672   -2.5581    2.6862 C   0  0  2  0  0  0  0  0  0  0  0  0
    2.3786   -2.0530    1.5944 C   0  0  0  0  0  0  0  0  0  0  0  0
    4.7509   -2.6957    2.0034 C   0  0  1  0  0  0  0  0  0  0  0  0
    4.7021   -2.9502    0.6101 O   0  0  0  0  0  0  0  0  0  0  0  0
    5.4115   -1.9121    0.0035 C   0  0  0  0  0  0  0  0  0  0  0  0
    6.8433   -2.4178   -0.3175 C   0  0  0  0  0  0  0  0  0  0  0  0
    4.6645   -1.5092   -1.2815 C   0  0  0  0  0  0  0  0  0  0  0  0
    5.4587   -0.7816    0.8253 O   0  0  0  0  0  0  0  0  0  0  0  0
    5.3966   -1.2985    2.1353 C   0  0  1  0  0  0  0  0  0  0  0  0
    4.5437   -0.4715    3.1489 C   0  0  1  0  0  0  0  0  0  0  0  0
    3.7259    0.5334    2.5740 O   0  0  0  0  0  0  0  0  0  0  0  0
    3.6706   -1.5447    3.8481 C   0  0  2  0  0  0  0  0  0  0  0  0
    4.6205   -2.1551    4.9320 C   0  0  0  0  0  0  0  0  0  0  0  0
    2.3086   -1.1295    4.5024 C   0  0  2  0  0  0  0  0  0  0  0  0
    2.2289   -0.0789    5.6295 C   0  0  0  0  0  0  0  0  0  0  0  0
    0.9098   -0.3781    6.4232 C   0  0  1  0  0  0  0  0  0  0  0  0
    1.0233   -0.1491    7.9491 C   0  0  1  0  0  0  0  0  0  0  0  0
    2.1943   -0.6642    8.5483 O   0  0  0  0  0  0  0  0  0  0  0  0
   -2.6847    4.6547    9.7106 H   0  0  0  0  0  0  0  0  0  0  0  0
   -3.0653    3.0209    9.1968 H   0  0  0  0  0  0  0  0  0  0  0  0
   -3.2330    4.3538    8.0694 H   0  0  0  0  0  0  0  0  0  0  0  0
    0.4651    5.0431    7.7109 H   0  0  0  0  0  0  0  0  0  0  0  0
   -0.5722    5.7771    8.9206 H   0  0  0  0  0  0  0  0  0  0  0  0
   -1.1360    5.6199    7.2764 H   0  0  0  0  0  0  0  0  0  0  0  0
    0.5780    3.7440    9.7525 H   0  0  0  0  0  0  0  0  0  0  0  0
   -0.8908    3.2748   10.5112 H   0  0  0  0  0  0  0  0  0  0  0  0
    0.5365    1.3260   10.3220 H   0  0  0  0  0  0  0  0  0  0  0  0
   -0.9257    1.1073    9.4097 H   0  0  0  0  0  0  0  0  0  0  0  0
    2.8733    1.8422    7.4488 H   0  0  0  0  0  0  0  0  0  0  0  0
    2.7137    1.9192    9.1939 H   0  0  0  0  0  0  0  0  0  0  0  0
    2.0872    3.2081    8.1841 H   0  0  0  0  0  0  0  0  0  0  0  0
    0.7707    2.4637    6.2496 H   0  0  0  0  0  0  0  0  0  0  0  0
   -2.0943    2.1502    7.3015 H   0  0  0  0  0  0  0  0  0  0  0  0
   -1.3787    3.3496    6.3084 H   0  0  0  0  0  0  0  0  0  0  0  0
   -1.8269    0.6062    4.5763 H   0  0  0  0  0  0  0  0  0  0  0  0
   -1.6183   -2.0558    4.9006 H   0  0  0  0  0  0  0  0  0  0  0  0
   -0.4515   -1.3440    3.7916 H   0  0  0  0  0  0  0  0  0  0  0  0
    0.6692   -3.0117    7.6040 H   0  0  0  0  0  0  0  0  0  0  0  0
   -0.4329   -3.7109    6.4214 H   0  0  0  0  0  0  0  0  0  0  0  0
   -0.9515   -2.3803    7.4305 H   0  0  0  0  0  0  0  0  0  0  0  0
    2.2197   -2.7599    5.8985 H   0  0  0  0  0  0  0  0  0  0  0  0
    1.1041   -4.4145    4.5854 H   0  0  0  0  0  0  0  0  0  0  0  0
    0.6110   -3.2897    3.3706 H   0  0  0  0  0  0  0  0  0  0  0  0
    3.4207   -4.3657    3.9171 H   0  0  0  0  0  0  0  0  0  0  0  0
    2.4984   -4.5531    2.4740 H   0  0  0  0  0  0  0  0  0  0  0  0
    2.7202   -1.1603    1.0782 H   0  0  0  0  0  0  0  0  0  0  0  0
    1.3790   -1.8283    1.9508 H   0  0  0  0  0  0  0  0  0  0  0  0
    2.2417   -2.8041    0.8152 H   0  0  0  0  0  0  0  0  0  0  0  0
    5.3695   -3.4525    2.4896 H   0  0  0  0  0  0  0  0  0  0  0  0
    7.3699   -2.7324    0.5836 H   0  0  0  0  0  0  0  0  0  0  0  0
    7.4248   -1.6303   -0.7840 H   0  0  0  0  0  0  0  0  0  0  0  0
    6.7941   -3.2629   -1.0111 H   0  0  0  0  0  0  0  0  0  0  0  0
    3.6626   -1.1553   -1.0323 H   0  0  0  0  0  0  0  0  0  0  0  0
    4.5726   -2.3660   -1.9528 H   0  0  0  0  0  0  0  0  0  0  0  0
    5.1933   -0.7049   -1.7970 H   0  0  0  0  0  0  0  0  0  0  0  0
    6.4177   -1.4314    2.4939 H   0  0  0  0  0  0  0  0  0  0  0  0
    5.1826    0.0458    3.8636 H   0  0  0  0  0  0  0  0  0  0  0  0
    4.2230    1.3172    2.4012 H   0  0  0  0  0  0  0  0  0  0  0  0
    4.8358   -1.4379    5.7214 H   0  0  0  0  0  0  0  0  0  0  0  0
    5.5919   -2.4495    4.5369 H   0  0  0  0  0  0  0  0  0  0  0  0
    4.2415   -3.0470    5.4233 H   0  0  0  0  0  0  0  0  0  0  0  0
    1.6831   -0.6971    3.7260 H   0  0  0  0  0  0  0  0  0  0  0  0
    3.0893   -0.2059    6.2810 H   0  0  0  0  0  0  0  0  0  0  0  0
    2.2792    0.9350    5.2329 H   0  0  0  0  0  0  0  0  0  0  0  0
    0.1913   -0.6457    8.4444 H   0  0  0  0  0  0  0  0  0  0  0  0
    2.1566   -0.4904    9.4721 H   0  0  0  0  0  0  0  0  0  0  0  0
  1  2  1  0
  1 37  1  0
  1 38  1  0
  1 39  1  0
  2  9  1  0
  2  3  1  0
  2  4  1  0
  3 40  1  0
  3 41  1  0
  3 42  1  0
  4  5  1  0
  4 43  1  0
  4 44  1  0
  5  6  1  0
  5 45  1  0
  5 46  1  0
  6 35  1  0
  6  7  1  1
  6  8  1  0
  7 47  1  0
  7 48  1  0
  7 49  1  0
  8  9  1  0
  8 10  1  0
  8 50  1  6
  9 51  1  0
  9 52  1  0
 10 12  1  0
 10 34  1  0
 10 11  1  1
 11 12  1  0
 12 13  1  0
 12 53  1  6
 13 14  1  0
 13 54  1  0
 13 55  1  0
 14 34  1  0
 14 15  1  1
 14 16  1  0
 15 56  1  0
 15 57  1  0
 15 58  1  0
 16 32  1  0
 16 17  1  0
 16 59  1  1
 17 18  1  0
 17 60  1  0
 17 61  1  0
 18 19  1  0
 18 62  1  0
 18 63  1  0
 19 30  1  0
 19 20  1  6
 19 21  1  0
 20 64  1  0
 20 65  1  0
 20 66  1  0
 21 27  1  0
 21 22  1  0
 21 67  1  1
 22 23  1  0
 23 24  1  0
 23 25  1  0
 23 26  1  0
 24 68  1  0
 24 69  1  0
 24 70  1  0
 25 71  1  0
 25 72  1  0
 25 73  1  0
 26 27  1  0
 27 28  1  0
 27 74  1  1
 28 29  1  0
 28 30  1  0
 28 75  1  1
 29 76  1  0
 30 31  1  1
 30 32  1  0
 31 77  1  0
 31 78  1  0
 31 79  1  0
 32 33  1  0
 32 80  1  6
 34 33  1  6
 33 81  1  0
 33 82  1  0
 34 35  1  0
 35 36  1  0
 35 83  1  1
 36 84  1  0
M  END
>  <i_m_ct_stereo_status>  (96) 
1

>  <s_m_source_file>  (96) 
/var/tmp/pbs.5076255.sched01/tmpaqd8m8vp/41rn73ajce.sdf

>  <i_m_source_file_index>  (96) 
8

>  <i_lp_mmshare_version>  (96) 
48012

>  <i_f3d_flags>  (96) 
0

>  <s_epik_input>  (96) 
W0NIMl0xW0NIMl1DKFtDSDNdKShbQ0gzXSlbQ0gyXVtDQEhdMltDQF0xKFtDSDNdKVtDQEhdKFtPSF0pW0NAXTMoW0NAXTI0NSlbQ0BAXShbQ0gzXSkoW0NIMl1bQ0BIXTVPNClbQ0BASF02W0NAQEhdKFtDSDJdMylbQ0BAXTcoW0NIM10pW0NAXShbQ0gzXSkoW0NIMl1bQ0gyXTYpW0NAQEhdOFtDQEhdKFtDQEhdN1tPSF0pT0MoTzgpKFtDSDNdKVtDSDNd

>  <s_epik_cmdline>  (96) 
J2VwaWtfcHl0aG9uJywgJy1waHQnLCAnMi4wJywgJy1waCcsICc3LjAnLCAnLXRuJywgJzgnLCAnLW1hJywgJzIwMCcsICctaW1hZScsICc8aW5maWxlLm1hZT4nLCAnLW9tYWUnLCAnPG91dGZpbGUubWFlPic=

>  <r_lp_tautomer_probability>  (96) 
1

>  <r_epik_Ionization_Penalty>  (96) 
5.36896e-07

>  <r_epik_Ionization_Penalty_Charging>  (96) 
0

>  <r_epik_Ionization_Penalty_Neutral>  (96) 
5.36896e-07

>  <r_epik_State_Penalty>  (96) 
-0

>  <r_epik_Charging_Adjusted_Penalty>  (96) 
0

>  <i_epik_Tot_Q>  (96) 
0

>  <i_epik_Tot_abs_Q>  (96) 
0

>  <s_lp_Force_Field>  (96) 
OPLS3e

>  <r_lp_Energy>  (96) 
96.7423

>  <b_lp_Chiralities_Consistent>  (96) 
1

>  <s_lp_Variant>  (96) 
37:0-1

>  <s_i_glide_gridfile>  (96) 
pfpi4k_grid

>  <i_i_glide_lignum>  (96) 
8

>  <i_i_glide_rotatable_bonds>  (96) 
2

>  <r_i_docking_score>  (96) 
-2.3193

>  <r_i_glide_ligand_efficiency>  (96) 
-0.0644251

>  <r_i_glide_ligand_efficiency_sa>  (96) 
-0.212727

>  <r_i_glide_ligand_efficiency_ln>  (96) 
-0.506009

>  <r_i_glide_gscore>  (96) 
-2.3193

>  <r_i_glide_lipo>  (96) 
-0.306742

>  <r_i_glide_hbond>  (96) 
-0.16

>  <r_i_glide_metal>  (96) 
-0

>  <r_i_glide_rewards>  (96) 
0

>  <r_i_glide_evdw>  (96) 
-27.6695

>  <r_i_glide_ecoul>  (96) 
-3.12407

>  <r_i_glide_erotb>  (96) 
0

>  <r_i_glide_esite>  (96) 
-0.000472499

>  <r_i_glide_emodel>  (96) 
-33.8261

>  <r_i_glide_energy>  (96) 
-30.7936

>  <r_i_glide_einternal>  (96) 
1.28101

>  <r_i_glide_intrahb_reward>  (96) 
-0

>  <i_i_glide_confnum>  (96) 
1

>  <i_i_glide_posenum>  (96) 
26

>  <r_i_glide_eff_state_penalty>  (96) 
0

>  <ligand_id>  (96) 
37

>  <original_smiles>  (96) 
CC1(C)CCC2(C)C(C1)C13OC1CC1(C)C4CCC5(C)C6OC(C)(C)OC6C(O)C5(C)C4CC13C2O

>  <smiles>  (96) 
[H]OC1([H])C2([H])OC(C([H])([H])[H])(C([H])([H])[H])OC2([H])C2(C([H])([H])[H])C([H])([H])C([H])([H])C3([H])C([H])(C([H])([H])C45C([H])(O[H])C6(C([H])([H])[H])C([H])([H])C([H])([H])C(C([H])([H])[H])(C([H])([H])[H])C([H])([H])C6([H])C46OC6([H])C([H])([H])C35C([H])([H])[H])C12C([H])([H])[H]

$$$$
37:0:2
     RDKit          3D

 84 91  0  0  1  0  0  0  0  0999 V2000
   -2.1034    3.7393    7.9341 C   0  0  0  0  0  0  0  0  0  0  0  0
   -0.6816    3.5931    7.3268 C   0  0  0  0  0  0  0  0  0  0  0  0
   -0.2811    4.9643    6.7469 C   0  0  0  0  0  0  0  0  0  0  0  0
    0.3103    3.2405    8.4602 C   0  0  0  0  0  0  0  0  0  0  0  0
    0.7841    1.7841    8.4360 C   0  0  0  0  0  0  0  0  0  0  0  0
    1.5038    1.4164    7.1198 C   0  0  2  0  0  0  0  0  0  0  0  0
    2.7827    2.2812    6.9486 C   0  0  0  0  0  0  0  0  0  0  0  0
    0.5570    1.6782    5.9077 C   0  0  2  0  0  0  0  0  0  0  0  0
   -0.7524    2.4743    6.2379 C   0  0  0  0  0  0  0  0  0  0  0  0
    0.3001    0.2569    5.3958 C   0  0  1  0  0  0  0  0  0  0  0  0
   -0.8794   -0.2957    6.0577 O   0  0  0  0  0  0  0  0  0  0  0  0
   -0.7248   -0.5138    4.6492 C   0  0  2  0  0  0  0  0  0  0  0  0
   -0.1854   -1.8740    4.3444 C   0  0  0  0  0  0  0  0  0  0  0  0
    1.0990   -2.0289    5.2240 C   0  0  1  0  0  0  0  0  0  0  0  0
    0.8144   -2.9331    6.4491 C   0  0  0  0  0  0  0  0  0  0  0  0
    2.2852   -2.5984    4.4120 C   0  0  1  0  0  0  0  0  0  0  0  0
    2.1076   -3.8837    3.5540 C   0  0  0  0  0  0  0  0  0  0  0  0
    3.3415   -4.1932    2.6458 C   0  0  0  0  0  0  0  0  0  0  0  0
    3.7831   -2.9451    1.8403 C   0  0  2  0  0  0  0  0  0  0  0  0
    2.6463   -2.6693    0.8194 C   0  0  0  0  0  0  0  0  0  0  0  0
    5.0978   -3.0414    1.0183 C   0  0  1  0  0  0  0  0  0  0  0  0
    4.9352   -3.4642   -0.3262 O   0  0  0  0  0  0  0  0  0  0  0  0
    5.4558   -2.4539   -1.1298 C   0  0  0  0  0  0  0  0  0  0  0  0
    6.8819   -2.8566   -1.5771 C   0  0  0  0  0  0  0  0  0  0  0  0
    4.5275   -2.2799   -2.3480 C   0  0  0  0  0  0  0  0  0  0  0  0
    5.4890   -1.2413   -0.4438 O   0  0  0  0  0  0  0  0  0  0  0  0
    5.6156   -1.5893    0.9223 C   0  0  1  0  0  0  0  0  0  0  0  0
    4.7810   -0.7198    1.9141 C   0  0  1  0  0  0  0  0  0  0  0  0
    3.8450    0.1259    1.2778 O   0  0  0  0  0  0  0  0  0  0  0  0
    4.0805   -1.7650    2.8306 C   0  0  2  0  0  0  0  0  0  0  0  0
    5.1592   -2.1492    3.8687 C   0  0  0  0  0  0  0  0  0  0  0  0
    2.7730   -1.3932    3.5949 C   0  0  2  0  0  0  0  0  0  0  0  0
    2.7299   -0.2270    4.6071 C   0  0  0  0  0  0  0  0  0  0  0  0
    1.5498   -0.5458    5.5956 C   0  0  1  0  0  0  0  0  0  0  0  0
    1.8195   -0.1194    7.0573 C   0  0  1  0  0  0  0  0  0  0  0  0
    3.0794   -0.4886    7.5737 O   0  0  0  0  0  0  0  0  0  0  0  0
   -2.1568    4.5272    8.6840 H   0  0  0  0  0  0  0  0  0  0  0  0
   -2.4178    2.8121    8.4178 H   0  0  0  0  0  0  0  0  0  0  0  0
   -2.8452    3.9673    7.1674 H   0  0  0  0  0  0  0  0  0  0  0  0
    0.7033    4.9410    6.2940 H   0  0  0  0  0  0  0  0  0  0  0  0
   -0.2648    5.7287    7.5246 H   0  0  0  0  0  0  0  0  0  0  0  0
   -0.9830    5.3085    5.9798 H   0  0  0  0  0  0  0  0  0  0  0  0
    1.1720    3.9087    8.4395 H   0  0  0  0  0  0  0  0  0  0  0  0
   -0.1446    3.4340    9.4316 H   0  0  0  0  0  0  0  0  0  0  0  0
    1.4472    1.5924    9.2819 H   0  0  0  0  0  0  0  0  0  0  0  0
   -0.0791    1.1358    8.5817 H   0  0  0  0  0  0  0  0  0  0  0  0
    3.3847    1.9617    6.1010 H   0  0  0  0  0  0  0  0  0  0  0  0
    3.4094    2.2335    7.8374 H   0  0  0  0  0  0  0  0  0  0  0  0
    2.5466    3.3278    6.7719 H   0  0  0  0  0  0  0  0  0  0  0  0
    1.0843    2.2082    5.1240 H   0  0  0  0  0  0  0  0  0  0  0  0
   -1.5580    1.8122    6.5265 H   0  0  0  0  0  0  0  0  0  0  0  0
   -1.1191    2.9304    5.3096 H   0  0  0  0  0  0  0  0  0  0  0  0
   -1.4609   -0.0286    4.0195 H   0  0  0  0  0  0  0  0  0  0  0  0
   -0.9359   -2.6253    4.5774 H   0  0  0  0  0  0  0  0  0  0  0  0
    0.0298   -1.9248    3.2879 H   0  0  0  0  0  0  0  0  0  0  0  0
    1.6886   -3.0109    7.0978 H   0  0  0  0  0  0  0  0  0  0  0  0
    0.5513   -3.9428    6.1329 H   0  0  0  0  0  0  0  0  0  0  0  0
   -0.0089   -2.5533    7.0450 H   0  0  0  0  0  0  0  0  0  0  0  0
    3.0201   -2.8412    5.1750 H   0  0  0  0  0  0  0  0  0  0  0  0
    1.9456   -4.7439    4.2045 H   0  0  0  0  0  0  0  0  0  0  0  0
    1.2149   -3.8240    2.9387 H   0  0  0  0  0  0  0  0  0  0  0  0
    4.1628   -4.5712    3.2547 H   0  0  0  0  0  0  0  0  0  0  0  0
    3.1137   -5.0160    1.9677 H   0  0  0  0  0  0  0  0  0  0  0  0
    2.8410   -1.8343    0.1542 H   0  0  0  0  0  0  0  0  0  0  0  0
    1.6874   -2.4652    1.2807 H   0  0  0  0  0  0  0  0  0  0  0  0
    2.4927   -3.5265    0.1702 H   0  0  0  0  0  0  0  0  0  0  0  0
    5.8376   -3.6798    1.5043 H   0  0  0  0  0  0  0  0  0  0  0  0
    7.5398   -3.0070   -0.7214 H   0  0  0  0  0  0  0  0  0  0  0  0
    7.3116   -2.1001   -2.2354 H   0  0  0  0  0  0  0  0  0  0  0  0
    6.8322   -3.7861   -2.1505 H   0  0  0  0  0  0  0  0  0  0  0  0
    3.5340   -1.9864   -2.0140 H   0  0  0  0  0  0  0  0  0  0  0  0
    4.4502   -3.2184   -2.8972 H   0  0  0  0  0  0  0  0  0  0  0  0
    4.9157   -1.5058   -3.0090 H   0  0  0  0  0  0  0  0  0  0  0  0
    6.6726   -1.5773    1.1855 H   0  0  0  0  0  0  0  0  0  0  0  0
    5.4411   -0.0643    2.4855 H   0  0  0  0  0  0  0  0  0  0  0  0
    3.2678   -0.4061    0.7490 H   0  0  0  0  0  0  0  0  0  0  0  0
    5.4441   -1.3251    4.5202 H   0  0  0  0  0  0  0  0  0  0  0  0
    6.0558   -2.4414    3.3412 H   0  0  0  0  0  0  0  0  0  0  0  0
    4.9585   -3.0054    4.5078 H   0  0  0  0  0  0  0  0  0  0  0  0
    2.0213   -1.1129    2.8614 H   0  0  0  0  0  0  0  0  0  0  0  0
    3.6686   -0.1931    5.1446 H   0  0  0  0  0  0  0  0  0  0  0  0
    2.6260    0.7298    4.0976 H   0  0  0  0  0  0  0  0  0  0  0  0
    1.0918   -0.6123    7.6974 H   0  0  0  0  0  0  0  0  0  0  0  0
    3.7561   -0.0970    7.0413 H   0  0  0  0  0  0  0  0  0  0  0  0
  1  2  1  0
  1 37  1  0
  1 38  1  0
  1 39  1  0
  2  9  1  0
  2  3  1  0
  2  4  1  0
  3 40  1  0
  3 41  1  0
  3 42  1  0
  4  5  1  0
  4 43  1  0
  4 44  1  0
  5  6  1  0
  5 45  1  0
  5 46  1  0
  6 35  1  0
  6  7  1  6
  6  8  1  0
  7 47  1  0
  7 48  1  0
  7 49  1  0
  8  9  1  0
  8 10  1  0
  8 50  1  6
  9 51  1  0
  9 52  1  0
 10 12  1  0
 10 34  1  0
 10 11  1  1
 11 12  1  0
 12 13  1  0
 12 53  1  6
 13 14  1  0
 13 54  1  0
 13 55  1  0
 14 34  1  0
 14 15  1  1
 14 16  1  0
 15 56  1  0
 15 57  1  0
 15 58  1  0
 16 32  1  0
 16 17  1  0
 16 59  1  1
 17 18  1  0
 17 60  1  0
 17 61  1  0
 18 19  1  0
 18 62  1  0
 18 63  1  0
 19 30  1  0
 19 20  1  6
 19 21  1  0
 20 64  1  0
 20 65  1  0
 20 66  1  0
 21 27  1  0
 21 22  1  0
 21 67  1  1
 22 23  1  0
 23 24  1  0
 23 25  1  0
 23 26  1  0
 24 68  1  0
 24 69  1  0
 24 70  1  0
 25 71  1  0
 25 72  1  0
 25 73  1  0
 26 27  1  0
 27 28  1  0
 27 74  1  1
 28 29  1  0
 28 30  1  0
 28 75  1  1
 29 76  1  0
 30 31  1  1
 30 32  1  0
 31 77  1  0
 31 78  1  0
 31 79  1  0
 32 33  1  0
 32 80  1  6
 34 33  1  6
 33 81  1  0
 33 82  1  0
 34 35  1  0
 35 36  1  0
 35 83  1  1
 36 84  1  0
M  END
>  <i_m_ct_stereo_status>  (97) 
1

>  <s_m_source_file>  (97) 
/var/tmp/pbs.5076255.sched01/tmpaqd8m8vp/41rn73ajce.sdf

>  <i_m_source_file_index>  (97) 
8

>  <i_lp_mmshare_version>  (97) 
48012

>  <i_f3d_flags>  (97) 
0

>  <s_epik_input>  (97) 
W0NIMl0xW0NIMl1DKFtDSDNdKShbQ0gzXSlbQ0gyXVtDQEhdMltDQF0xKFtDSDNdKVtDQEhdKFtPSF0pW0NAXTMoW0NAXTI0NSlbQ0BAXShbQ0gzXSkoW0NIMl1bQ0BIXTVPNClbQ0BASF02W0NAQEhdKFtDSDJdMylbQ0BAXTcoW0NIM10pW0NAXShbQ0gzXSkoW0NIMl1bQ0gyXTYpW0NAQEhdOFtDQEhdKFtDQEhdN1tPSF0pT0MoTzgpKFtDSDNdKVtDSDNd

>  <s_epik_cmdline>  (97) 
J2VwaWtfcHl0aG9uJywgJy1waHQnLCAnMi4wJywgJy1waCcsICc3LjAnLCAnLXRuJywgJzgnLCAnLW1hJywgJzIwMCcsICctaW1hZScsICc8aW5maWxlLm1hZT4nLCAnLW9tYWUnLCAnPG91dGZpbGUubWFlPic=

>  <r_lp_tautomer_probability>  (97) 
1

>  <r_epik_Ionization_Penalty>  (97) 
5.36896e-07

>  <r_epik_Ionization_Penalty_Charging>  (97) 
0

>  <r_epik_Ionization_Penalty_Neutral>  (97) 
5.36896e-07

>  <r_epik_State_Penalty>  (97) 
-0

>  <r_epik_Charging_Adjusted_Penalty>  (97) 
0

>  <i_epik_Tot_Q>  (97) 
0

>  <i_epik_Tot_abs_Q>  (97) 
0

>  <s_lp_Force_Field>  (97) 
OPLS3e

>  <r_lp_Energy>  (97) 
96.7423

>  <b_lp_Chiralities_Consistent>  (97) 
1

>  <s_lp_Variant>  (97) 
37:0-1

>  <s_i_glide_gridfile>  (97) 
pfpi4k_grid

>  <i_i_glide_lignum>  (97) 
8

>  <i_i_glide_rotatable_bonds>  (97) 
2

>  <r_i_docking_score>  (97) 
-2.13119

>  <r_i_glide_ligand_efficiency>  (97) 
-0.0591998

>  <r_i_glide_ligand_efficiency_sa>  (97) 
-0.195474

>  <r_i_glide_ligand_efficiency_ln>  (97) 
-0.464969

>  <r_i_glide_gscore>  (97) 
-2.13119

>  <r_i_glide_lipo>  (97) 
-0.415145

>  <r_i_glide_hbond>  (97) 
0

>  <r_i_glide_metal>  (97) 
-0

>  <r_i_glide_rewards>  (97) 
0

>  <r_i_glide_evdw>  (97) 
-28.4535

>  <r_i_glide_ecoul>  (97) 
-1.83519

>  <r_i_glide_erotb>  (97) 
0

>  <r_i_glide_esite>  (97) 
-0.0180949

>  <r_i_glide_emodel>  (97) 
-33.5968

>  <r_i_glide_energy>  (97) 
-30.2887

>  <r_i_glide_einternal>  (97) 
0.029652

>  <r_i_glide_intrahb_reward>  (97) 
-0

>  <i_i_glide_confnum>  (97) 
2

>  <i_i_glide_posenum>  (97) 
29

>  <r_i_glide_eff_state_penalty>  (97) 
0

>  <ligand_id>  (97) 
37

>  <original_smiles>  (97) 
CC1(C)CCC2(C)C(C1)C13OC1CC1(C)C4CCC5(C)C6OC(C)(C)OC6C(O)C5(C)C4CC13C2O

>  <smiles>  (97) 
[H]OC1([H])C2([H])OC(C([H])([H])[H])(C([H])([H])[H])OC2([H])C2(C([H])([H])[H])C([H])([H])C([H])([H])C3([H])C([H])(C([H])([H])C45C([H])(O[H])C6(C([H])([H])[H])C([H])([H])C([H])([H])C(C([H])([H])[H])(C([H])([H])[H])C([H])([H])C6([H])C46OC6([H])C([H])([H])C35C([H])([H])[H])C12C([H])([H])[H]

$$$$
38:0:0
     RDKit          3D

 31 33  0  0  1  0  0  0  0  0999 V2000
    4.3468   -1.1214   -0.1108 C   0  0  0  0  0  0  0  0  0  0  0  0
    4.4278   -2.0461   -1.3555 C   0  0  0  0  0  0  0  0  0  0  0  0
    3.9441   -1.2591   -2.5858 C   0  0  0  0  0  0  0  0  0  0  0  0
    5.8676   -2.5202   -1.6072 C   0  0  0  0  0  0  0  0  0  0  0  0
    6.3993   -3.4510   -0.5165 C   0  0  0  0  0  0  0  0  0  0  0  0
    7.6128   -3.4127   -0.3037 O   0  0  0  0  0  0  0  0  0  0  0  0
    5.4325   -4.3431    0.1826 C   0  0  0  0  0  0  0  0  0  0  0  0
    4.1126   -4.2916   -0.1389 C   0  0  0  0  0  0  0  0  0  0  0  0
    3.1794   -5.2601    0.4735 C   0  0  0  0  0  0  0  0  0  0  0  0
    1.8333   -5.4276    0.0812 C   0  0  0  0  0  0  0  0  0  0  0  0
    0.9853   -6.3099    0.6386 N   0  0  0  0  0  0  0  0  0  0  0  0
    1.4889   -7.1498    1.5707 C   0  0  0  0  0  0  0  0  0  0  0  0
    2.8254   -7.0897    2.0151 C   0  0  0  0  0  0  0  0  0  0  0  0
    3.6900   -6.1275    1.4562 C   0  0  0  0  0  0  0  0  0  0  0  0
    5.0126   -6.0823    1.8396 O   0  0  0  0  0  0  0  0  0  0  0  0
    5.9539   -5.3215    1.1970 C   0  0  0  0  0  0  0  0  0  0  0  0
    7.1446   -5.4501    1.4803 O   0  0  0  0  0  0  0  0  0  0  0  0
    3.5591   -3.3079   -1.1735 C   0  0  0  0  0  0  0  0  0  0  0  0
    4.9833   -0.2428   -0.2200 H   0  0  0  0  0  0  0  0  0  0  0  0
    4.6575   -1.6248    0.8055 H   0  0  0  0  0  0  0  0  0  0  0  0
    3.3277   -0.7681    0.0539 H   0  0  0  0  0  0  0  0  0  0  0  0
    3.9865   -1.8815   -3.4800 H   0  0  0  0  0  0  0  0  0  0  0  0
    4.5496   -0.3720   -2.7721 H   0  0  0  0  0  0  0  0  0  0  0  0
    2.9099   -0.9347   -2.4655 H   0  0  0  0  0  0  0  0  0  0  0  0
    5.9243   -3.0596   -2.5537 H   0  0  0  0  0  0  0  0  0  0  0  0
    6.5360   -1.6648   -1.6939 H   0  0  0  0  0  0  0  0  0  0  0  0
    1.3962   -4.8214   -0.7014 H   0  0  0  0  0  0  0  0  0  0  0  0
    0.8220   -7.9171    1.9482 H   0  0  0  0  0  0  0  0  0  0  0  0
    3.1968   -7.7954    2.7487 H   0  0  0  0  0  0  0  0  0  0  0  0
    2.5667   -2.9602   -0.8840 H   0  0  0  0  0  0  0  0  0  0  0  0
    3.4522   -3.8426   -2.1251 H   0  0  0  0  0  0  0  0  0  0  0  0
  1  2  1  0
  1 19  1  0
  1 20  1  0
  1 21  1  0
  2 18  1  0
  2  3  1  0
  2  4  1  0
  3 22  1  0
  3 23  1  0
  3 24  1  0
  4  5  1  0
  4 25  1  0
  4 26  1  0
  5  6  2  0
  5  7  1  0
  7 16  1  0
  7  8  2  0
  8  9  1  0
  8 18  1  0
  9 14  2  0
  9 10  1  0
 10 11  2  0
 10 27  1  0
 11 12  1  0
 12 13  2  0
 12 28  1  0
 13 14  1  0
 13 29  1  0
 14 15  1  0
 15 16  1  0
 16 17  2  0
 18 30  1  0
 18 31  1  0
M  END
>  <i_m_ct_stereo_status>  (98) 
1

>  <s_m_source_file>  (98) 
/var/tmp/pbs.5076255.sched01/tmpaqd8m8vp/41rn73ajce.sdf

>  <i_m_source_file_index>  (98) 
9

>  <i_lp_mmshare_version>  (98) 
48012

>  <i_f3d_flags>  (98) 
0

>  <s_epik_input>  (98) 
Tz1DMVtDSDJdQyhbQ0gzXSkoW0NIM10pW0NIMl1jKGMxMiljM2Mob2MyPU8pW2NIXVtjSF1uW2NIXTM=

>  <s_epik_cmdline>  (98) 
J2VwaWtfcHl0aG9uJywgJy1waHQnLCAnMi4wJywgJy1waCcsICc3LjAnLCAnLXRuJywgJzgnLCAnLW1hJywgJzIwMCcsICctaW1hZScsICc8aW5maWxlLm1hZT4nLCAnLW9tYWUnLCAnPG91dGZpbGUubWFlPic=

>  <r_lp_tautomer_probability>  (98) 
0.99995

>  <r_epik_Ionization_Penalty>  (98) 
0.000691795

>  <r_epik_Ionization_Penalty_Charging>  (98) 
0

>  <r_epik_Ionization_Penalty_Neutral>  (98) 
0.000691795

>  <r_epik_State_Penalty>  (98) 
0.000439906

>  <r_epik_Charging_Adjusted_Penalty>  (98) 
0.000439906

>  <i_epik_Tot_Q>  (98) 
0

>  <i_epik_Tot_abs_Q>  (98) 
0

>  <s_lp_Force_Field>  (98) 
OPLS3e

>  <r_lp_Energy>  (98) 
43.4074

>  <b_lp_Chiralities_Consistent>  (98) 
1

>  <s_lp_Variant>  (98) 
38:0-1

>  <s_i_glide_gridfile>  (98) 
pfpi4k_grid

>  <i_i_glide_lignum>  (98) 
9

>  <i_i_glide_rotatable_bonds>  (98) 
0

>  <r_i_docking_score>  (98) 
-4.06668

>  <r_i_glide_ligand_efficiency>  (98) 
-0.225927

>  <r_i_glide_ligand_efficiency_sa>  (98) 
-0.592096

>  <r_i_glide_ligand_efficiency_ln>  (98) 
-1.04532

>  <r_i_glide_gscore>  (98) 
-4.06668

>  <r_i_glide_lipo>  (98) 
-0.241454

>  <r_i_glide_hbond>  (98) 
-0.16

>  <r_i_glide_metal>  (98) 
-0

>  <r_i_glide_rewards>  (98) 
-1.89024

>  <r_i_glide_evdw>  (98) 
-23.8219

>  <r_i_glide_ecoul>  (98) 
-3.89265

>  <r_i_glide_erotb>  (98) 
0

>  <r_i_glide_esite>  (98) 
0

>  <r_i_glide_emodel>  (98) 
-34.4684

>  <r_i_glide_energy>  (98) 
-27.7145

>  <r_i_glide_einternal>  (98) 
0

>  <r_i_glide_intrahb_reward>  (98) 
-0

>  <i_i_glide_confnum>  (98) 
1

>  <i_i_glide_posenum>  (98) 
1

>  <r_i_glide_eff_state_penalty>  (98) 
0

>  <ligand_id>  (98) 
38

>  <original_smiles>  (98) 
CC1(C)CC(=O)c2c(c3cnccc3oc2=O)C1

>  <smiles>  (98) 
[H]c1nc([H])c2c3c(c(=O)oc2c1[H])C(=O)C([H])([H])C(C([H])([H])[H])(C([H])([H])[H])C3([H])[H]

$$$$
38:0:1
     RDKit          3D

 31 33  0  0  1  0  0  0  0  0999 V2000
    4.8058   -5.6969    1.1244 C   0  0  0  0  0  0  0  0  0  0  0  0
    3.3849   -5.1355    1.3892 C   0  0  0  0  0  0  0  0  0  0  0  0
    2.4425   -6.3059    1.7121 C   0  0  0  0  0  0  0  0  0  0  0  0
    3.3796   -4.1554    2.5745 C   0  0  0  0  0  0  0  0  0  0  0  0
    4.1469   -2.8582    2.2981 C   0  0  0  0  0  0  0  0  0  0  0  0
    4.6798   -2.3059    3.2628 O   0  0  0  0  0  0  0  0  0  0  0  0
    4.1712   -2.3433    0.9024 C   0  0  0  0  0  0  0  0  0  0  0  0
    3.5560   -3.0374   -0.0912 C   0  0  0  0  0  0  0  0  0  0  0  0
    3.4976   -2.4733   -1.4537 C   0  0  0  0  0  0  0  0  0  0  0  0
    2.7277   -3.0064   -2.5177 C   0  0  0  0  0  0  0  0  0  0  0  0
    2.6634   -2.4409   -3.7395 N   0  0  0  0  0  0  0  0  0  0  0  0
    3.3173   -1.2765   -3.9315 C   0  0  0  0  0  0  0  0  0  0  0  0
    4.1091   -0.6648   -2.9435 C   0  0  0  0  0  0  0  0  0  0  0  0
    4.1928   -1.2715   -1.6804 C   0  0  0  0  0  0  0  0  0  0  0  0
    4.9178   -0.6638   -0.6825 O   0  0  0  0  0  0  0  0  0  0  0  0
    4.8659   -1.0430    0.6294 C   0  0  0  0  0  0  0  0  0  0  0  0
    5.4142   -0.3456    1.4830 O   0  0  0  0  0  0  0  0  0  0  0  0
    2.8661   -4.3728    0.1596 C   0  0  0  0  0  0  0  0  0  0  0  0
    5.2023   -6.2207    1.9971 H   0  0  0  0  0  0  0  0  0  0  0  0
    5.5219   -4.9159    0.8680 H   0  0  0  0  0  0  0  0  0  0  0  0
    4.8031   -6.4061    0.2949 H   0  0  0  0  0  0  0  0  0  0  0  0
    1.4326   -5.9486    1.9071 H   0  0  0  0  0  0  0  0  0  0  0  0
    2.7674   -6.8581    2.5944 H   0  0  0  0  0  0  0  0  0  0  0  0
    2.3865   -7.0118    0.8833 H   0  0  0  0  0  0  0  0  0  0  0  0
    2.3547   -3.8775    2.8282 H   0  0  0  0  0  0  0  0  0  0  0  0
    3.8051   -4.6297    3.4605 H   0  0  0  0  0  0  0  0  0  0  0  0
    2.1171   -3.8848   -2.4019 H   0  0  0  0  0  0  0  0  0  0  0  0
    3.1890   -0.8096   -4.8986 H   0  0  0  0  0  0  0  0  0  0  0  0
    4.5971    0.2838   -3.1285 H   0  0  0  0  0  0  0  0  0  0  0  0
    2.9683   -5.0296   -0.6951 H   0  0  0  0  0  0  0  0  0  0  0  0
    1.8101   -4.1603    0.2715 H   0  0  0  0  0  0  0  0  0  0  0  0
  1  2  1  0
  1 19  1  0
  1 20  1  0
  1 21  1  0
  2 18  1  0
  2  3  1  0
  2  4  1  0
  3 22  1  0
  3 23  1  0
  3 24  1  0
  4  5  1  0
  4 25  1  0
  4 26  1  0
  5  6  2  0
  5  7  1  0
  7 16  1  0
  7  8  2  0
  8  9  1  0
  8 18  1  0
  9 14  2  0
  9 10  1  0
 10 11  2  0
 10 27  1  0
 11 12  1  0
 12 13  2  0
 12 28  1  0
 13 14  1  0
 13 29  1  0
 14 15  1  0
 15 16  1  0
 16 17  2  0
 18 30  1  0
 18 31  1  0
M  END
>  <i_m_ct_stereo_status>  (99) 
1

>  <s_m_source_file>  (99) 
/var/tmp/pbs.5076255.sched01/tmpaqd8m8vp/41rn73ajce.sdf

>  <i_m_source_file_index>  (99) 
9

>  <i_lp_mmshare_version>  (99) 
48012

>  <i_f3d_flags>  (99) 
0

>  <s_epik_input>  (99) 
Tz1DMVtDSDJdQyhbQ0gzXSkoW0NIM10pW0NIMl1jKGMxMiljM2Mob2MyPU8pW2NIXVtjSF1uW2NIXTM=

>  <s_epik_cmdline>  (99) 
J2VwaWtfcHl0aG9uJywgJy1waHQnLCAnMi4wJywgJy1waCcsICc3LjAnLCAnLXRuJywgJzgnLCAnLW1hJywgJzIwMCcsICctaW1hZScsICc8aW5maWxlLm1hZT4nLCAnLW9tYWUnLCAnPG91dGZpbGUubWFlPic=

>  <r_lp_tautomer_probability>  (99) 
0.99995

>  <r_epik_Ionization_Penalty>  (99) 
0.000691795

>  <r_epik_Ionization_Penalty_Charging>  (99) 
0

>  <r_epik_Ionization_Penalty_Neutral>  (99) 
0.000691795

>  <r_epik_State_Penalty>  (99) 
0.000439906

>  <r_epik_Charging_Adjusted_Penalty>  (99) 
0.000439906

>  <i_epik_Tot_Q>  (99) 
0

>  <i_epik_Tot_abs_Q>  (99) 
0

>  <s_lp_Force_Field>  (99) 
OPLS3e

>  <r_lp_Energy>  (99) 
43.4074

>  <b_lp_Chiralities_Consistent>  (99) 
1

>  <s_lp_Variant>  (99) 
38:0-1

>  <s_i_glide_gridfile>  (99) 
pfpi4k_grid

>  <i_i_glide_lignum>  (99) 
9

>  <i_i_glide_rotatable_bonds>  (99) 
0

>  <r_i_docking_score>  (99) 
-3.75978

>  <r_i_glide_ligand_efficiency>  (99) 
-0.208877

>  <r_i_glide_ligand_efficiency_sa>  (99) 
-0.547412

>  <r_i_glide_ligand_efficiency_ln>  (99) 
-0.966432

>  <r_i_glide_gscore>  (99) 
-3.75978

>  <r_i_glide_lipo>  (99) 
-0.428909

>  <r_i_glide_hbond>  (99) 
-0.141178

>  <r_i_glide_metal>  (99) 
-0

>  <r_i_glide_rewards>  (99) 
-1.75513

>  <r_i_glide_evdw>  (99) 
-25.3161

>  <r_i_glide_ecoul>  (99) 
-1.12507

>  <r_i_glide_erotb>  (99) 
0

>  <r_i_glide_esite>  (99) 
0

>  <r_i_glide_emodel>  (99) 
-32.6528

>  <r_i_glide_energy>  (99) 
-26.4412

>  <r_i_glide_einternal>  (99) 
0

>  <r_i_glide_intrahb_reward>  (99) 
-0

>  <i_i_glide_confnum>  (99) 
1

>  <i_i_glide_posenum>  (99) 
2

>  <r_i_glide_eff_state_penalty>  (99) 
0

>  <ligand_id>  (99) 
38

>  <original_smiles>  (99) 
CC1(C)CC(=O)c2c(c3cnccc3oc2=O)C1

>  <smiles>  (99) 
[H]c1nc([H])c2c3c(c(=O)oc2c1[H])C(=O)C([H])([H])C(C([H])([H])[H])(C([H])([H])[H])C3([H])[H]

$$$$
38:0:2
     RDKit          3D

 31 33  0  0  1  0  0  0  0  0999 V2000
    3.5274   -0.1884    3.8056 C   0  0  0  0  0  0  0  0  0  0  0  0
    2.5403   -0.3507    2.6210 C   0  0  0  0  0  0  0  0  0  0  0  0
    3.3026   -0.1097    1.3105 C   0  0  0  0  0  0  0  0  0  0  0  0
    1.9369   -1.7625    2.5849 C   0  0  0  0  0  0  0  0  0  0  0  0
    1.0086   -2.0532    3.7653 C   0  0  0  0  0  0  0  0  0  0  0  0
    0.9184   -3.2286    4.1278 O   0  0  0  0  0  0  0  0  0  0  0  0
    0.2379   -0.9226    4.3570 C   0  0  0  0  0  0  0  0  0  0  0  0
    0.3861    0.3316    3.8487 C   0  0  0  0  0  0  0  0  0  0  0  0
   -0.4618    1.4281    4.3597 C   0  0  0  0  0  0  0  0  0  0  0  0
   -0.5257    2.7308    3.8042 C   0  0  0  0  0  0  0  0  0  0  0  0
   -1.3611    3.6890    4.2673 N   0  0  0  0  0  0  0  0  0  0  0  0
   -2.1694    3.3791    5.2971 C   0  0  0  0  0  0  0  0  0  0  0  0
   -2.1726    2.1288    5.9343 C   0  0  0  0  0  0  0  0  0  0  0  0
   -1.3152    1.1286    5.4423 C   0  0  0  0  0  0  0  0  0  0  0  0
   -1.3708   -0.1276    6.0011 O   0  0  0  0  0  0  0  0  0  0  0  0
   -0.7320   -1.2085    5.4657 C   0  0  0  0  0  0  0  0  0  0  0  0
   -0.9695   -2.3257    5.9226 O   0  0  0  0  0  0  0  0  0  0  0  0
    1.3643    0.6462    2.7156 C   0  0  0  0  0  0  0  0  0  0  0  0
    4.3485   -0.9063    3.7482 H   0  0  0  0  0  0  0  0  0  0  0  0
    3.0433   -0.3342    4.7710 H   0  0  0  0  0  0  0  0  0  0  0  0
    3.9683    0.8098    3.8220 H   0  0  0  0  0  0  0  0  0  0  0  0
    2.6228   -0.2293    0.4680 H   0  0  0  0  0  0  0  0  0  0  0  0
    4.1204   -0.8154    1.1667 H   0  0  0  0  0  0  0  0  0  0  0  0
    3.7150    0.8985    1.2629 H   0  0  0  0  0  0  0  0  0  0  0  0
    1.3525   -1.8848    1.6712 H   0  0  0  0  0  0  0  0  0  0  0  0
    2.7257   -2.5153    2.5556 H   0  0  0  0  0  0  0  0  0  0  0  0
    0.0806    3.0247    2.9604 H   0  0  0  0  0  0  0  0  0  0  0  0
   -2.8538    4.1461    5.6270 H   0  0  0  0  0  0  0  0  0  0  0  0
   -2.8559    1.9268    6.7467 H   0  0  0  0  0  0  0  0  0  0  0  0
    1.8017    1.6338    2.8501 H   0  0  0  0  0  0  0  0  0  0  0  0
    0.7948    0.6673    1.7792 H   0  0  0  0  0  0  0  0  0  0  0  0
  1  2  1  0
  1 19  1  0
  1 20  1  0
  1 21  1  0
  2 18  1  0
  2  3  1  0
  2  4  1  0
  3 22  1  0
  3 23  1  0
  3 24  1  0
  4  5  1  0
  4 25  1  0
  4 26  1  0
  5  6  2  0
  5  7  1  0
  7 16  1  0
  7  8  2  0
  8  9  1  0
  8 18  1  0
  9 14  2  0
  9 10  1  0
 10 11  2  0
 10 27  1  0
 11 12  1  0
 12 13  2  0
 12 28  1  0
 13 14  1  0
 13 29  1  0
 14 15  1  0
 15 16  1  0
 16 17  2  0
 18 30  1  0
 18 31  1  0
M  END
>  <i_m_ct_stereo_status>  (100) 
1

>  <s_m_source_file>  (100) 
/var/tmp/pbs.5076255.sched01/tmpaqd8m8vp/41rn73ajce.sdf

>  <i_m_source_file_index>  (100) 
9

>  <i_lp_mmshare_version>  (100) 
48012

>  <i_f3d_flags>  (100) 
0

>  <s_epik_input>  (100) 
Tz1DMVtDSDJdQyhbQ0gzXSkoW0NIM10pW0NIMl1jKGMxMiljM2Mob2MyPU8pW2NIXVtjSF1uW2NIXTM=

>  <s_epik_cmdline>  (100) 
J2VwaWtfcHl0aG9uJywgJy1waHQnLCAnMi4wJywgJy1waCcsICc3LjAnLCAnLXRuJywgJzgnLCAnLW1hJywgJzIwMCcsICctaW1hZScsICc8aW5maWxlLm1hZT4nLCAnLW9tYWUnLCAnPG91dGZpbGUubWFlPic=

>  <r_lp_tautomer_probability>  (100) 
0.99995

>  <r_epik_Ionization_Penalty>  (100) 
0.000691795

>  <r_epik_Ionization_Penalty_Charging>  (100) 
0

>  <r_epik_Ionization_Penalty_Neutral>  (100) 
0.000691795

>  <r_epik_State_Penalty>  (100) 
0.000439906

>  <r_epik_Charging_Adjusted_Penalty>  (100) 
0.000439906

>  <i_epik_Tot_Q>  (100) 
0

>  <i_epik_Tot_abs_Q>  (100) 
0

>  <s_lp_Force_Field>  (100) 
OPLS3e

>  <r_lp_Energy>  (100) 
43.4074

>  <b_lp_Chiralities_Consistent>  (100) 
1

>  <s_lp_Variant>  (100) 
38:0-1

>  <s_i_glide_gridfile>  (100) 
pfpi4k_grid

>  <i_i_glide_lignum>  (100) 
9

>  <i_i_glide_rotatable_bonds>  (100) 
0

>  <r_i_docking_score>  (100) 
-3.21454

>  <r_i_glide_ligand_efficiency>  (100) 
-0.178585

>  <r_i_glide_ligand_efficiency_sa>  (100) 
-0.468026

>  <r_i_glide_ligand_efficiency_ln>  (100) 
-0.82628

>  <r_i_glide_gscore>  (100) 
-3.21454

>  <r_i_glide_lipo>  (100) 
-0.0120832

>  <r_i_glide_hbond>  (100) 
-0.0691042

>  <r_i_glide_metal>  (100) 
-0

>  <r_i_glide_rewards>  (100) 
-1.78504

>  <r_i_glide_evdw>  (100) 
-20.5462

>  <r_i_glide_ecoul>  (100) 
-2.13999

>  <r_i_glide_erotb>  (100) 
0

>  <r_i_glide_esite>  (100) 
0

>  <r_i_glide_emodel>  (100) 
-27.9771

>  <r_i_glide_energy>  (100) 
-22.6862

>  <r_i_glide_einternal>  (100) 
0

>  <r_i_glide_intrahb_reward>  (100) 
-0

>  <i_i_glide_confnum>  (100) 
2

>  <i_i_glide_posenum>  (100) 
3

>  <r_i_glide_eff_state_penalty>  (100) 
0

>  <ligand_id>  (100) 
38

>  <original_smiles>  (100) 
CC1(C)CC(=O)c2c(c3cnccc3oc2=O)C1

>  <smiles>  (100) 
[H]c1nc([H])c2c3c(c(=O)oc2c1[H])C(=O)C([H])([H])C(C([H])([H])[H])(C([H])([H])[H])C3([H])[H]

$$$$
39:0:0
     RDKit          3D

 28 29  0  0  1  0  0  0  0  0999 V2000
    6.6909   -5.5107    0.9145 C   0  0  0  0  0  0  0  0  0  0  0  0
    6.5955   -4.2175    0.3412 O   0  0  0  0  0  0  0  0  0  0  0  0
    5.9489   -3.2212    1.0452 C   0  0  0  0  0  0  0  0  0  0  0  0
    5.4194   -3.4101    2.2854 C   0  0  0  0  0  0  0  0  0  0  0  0
    4.7841   -2.3152    3.0490 C   0  0  0  0  0  0  0  0  0  0  0  0
    4.3062   -2.5068    4.1682 O   0  0  0  0  0  0  0  0  0  0  0  0
    4.7461   -0.9891    2.3860 C   0  0  0  0  0  0  0  0  0  0  0  0
    4.1589    0.0209    3.0398 O   0  0  0  0  0  0  0  0  0  0  0  0
    5.2743   -0.8144    1.1467 C   0  0  0  0  0  0  0  0  0  0  0  0
    5.9246   -1.8873    0.2584 C   0  0  1  0  0  0  0  0  0  0  0  0
    7.1498   -1.4953    0.0615 O   0  0  0  0  0  0  0  0  0  0  0  0
    5.2309   -2.0515   -1.1118 C   0  0  0  0  0  0  0  0  0  0  0  0
    5.7118   -2.9594   -2.0990 C   0  0  0  0  0  0  0  0  0  0  0  0
    5.0168   -3.1498   -3.3170 C   0  0  0  0  0  0  0  0  0  0  0  0
    3.8512   -2.4144   -3.5991 C   0  0  0  0  0  0  0  0  0  0  0  0
    3.3796   -1.5024   -2.6448 C   0  0  0  0  0  0  0  0  0  0  0  0
    4.0483   -1.3438   -1.4126 C   0  0  0  0  0  0  0  0  0  0  0  0
    7.2030   -6.1585    0.2030 H   0  0  0  0  0  0  0  0  0  0  0  0
    5.7069   -5.9421    1.1060 H   0  0  0  0  0  0  0  0  0  0  0  0
    7.2792   -5.4914    1.8308 H   0  0  0  0  0  0  0  0  0  0  0  0
    5.4666   -4.3601    2.8015 H   0  0  0  0  0  0  0  0  0  0  0  0
    4.1961    0.7864    2.4869 H   0  0  0  0  0  0  0  0  0  0  0  0
    5.2301    0.1620    0.6933 H   0  0  0  0  0  0  0  0  0  0  0  0
    6.6135   -3.5330   -1.9389 H   0  0  0  0  0  0  0  0  0  0  0  0
    5.3888   -3.8608   -4.0422 H   0  0  0  0  0  0  0  0  0  0  0  0
    3.3123   -2.5443   -4.5272 H   0  0  0  0  0  0  0  0  0  0  0  0
    2.4745   -0.9371   -2.8173 H   0  0  0  0  0  0  0  0  0  0  0  0
    3.5881   -0.6562   -0.7138 H   0  0  0  0  0  0  0  0  0  0  0  0
  1  2  1  0
  1 18  1  0
  1 19  1  0
  1 20  1  0
  2  3  1  0
  3 10  1  0
  3  4  2  0
  4  5  1  0
  4 21  1  0
  5  6  2  0
  5  7  1  0
  7  8  1  0
  7  9  2  0
  8 22  1  0
  9 10  1  0
  9 23  1  0
 10 11  1  6
 10 12  1  0
 12 17  1  0
 12 13  2  0
 13 14  1  0
 13 24  1  0
 14 15  2  0
 14 25  1  0
 15 16  1  0
 15 26  1  0
 16 17  2  0
 16 27  1  0
 17 28  1  0
M  CHG  1  11  -1
M  END
>  <i_m_ct_stereo_status>  (101) 
1

>  <s_m_source_file>  (101) 
/var/tmp/pbs.5076255.sched01/tmpaqd8m8vp/41rn73ajce.sdf

>  <i_m_source_file_index>  (101) 
10

>  <i_lp_mmshare_version>  (101) 
48012

>  <i_f3d_flags>  (101) 
0

>  <s_epik_input>  (101) 
W09IXUMoPVtDSF0xKUMoPU8pW0NIXT1DKE9bQ0gzXSlbQ0BAXTEoW09IXSljMltjSF1bY0hdW2NIXVtjSF1bY0hdMg==

>  <s_epik_cmdline>  (101) 
J2VwaWtfcHl0aG9uJywgJy1waHQnLCAnMi4wJywgJy1waCcsICc3LjAnLCAnLXRuJywgJzgnLCAnLW1hJywgJzIwMCcsICctaW1hZScsICc8aW5maWxlLm1hZT4nLCAnLW9tYWUnLCAnPG91dGZpbGUubWFlPic=

>  <r_epik_Ionization_Penalty>  (101) 
0.072765

>  <r_epik_Ionization_Penalty_Charging>  (101) 
0.0724215

>  <r_epik_Ionization_Penalty_Neutral>  (101) 
0.000343553

>  <r_epik_State_Penalty>  (101) 
0.26888

>  <r_epik_Charging_Adjusted_Penalty>  (101) 
0.341302

>  <i_epik_Tot_Q>  (101) 
-1

>  <i_epik_Tot_abs_Q>  (101) 
1

>  <s_lp_Force_Field>  (101) 
OPLS3e

>  <r_lp_Energy>  (101) 
39.2274

>  <b_lp_Chiralities_Consistent>  (101) 
1

>  <s_lp_Variant>  (101) 
39:0-1

>  <s_i_glide_gridfile>  (101) 
pfpi4k_grid

>  <i_i_glide_lignum>  (101) 
10

>  <i_i_glide_rotatable_bonds>  (101) 
3

>  <r_i_docking_score>  (101) 
-4.05589

>  <r_i_glide_ligand_efficiency>  (101) 
-0.238582

>  <r_i_glide_ligand_efficiency_sa>  (101) 
-0.613461

>  <r_i_glide_ligand_efficiency_ln>  (101) 
-1.05809

>  <r_i_glide_gscore>  (101) 
-4.05589

>  <r_i_glide_lipo>  (101) 
-1.01291

>  <r_i_glide_hbond>  (101) 
-0.129655

>  <r_i_glide_metal>  (101) 
-0

>  <r_i_glide_rewards>  (101) 
-1.89259

>  <r_i_glide_evdw>  (101) 
-24.2759

>  <r_i_glide_ecoul>  (101) 
-0.845571

>  <r_i_glide_erotb>  (101) 
0.319898

>  <r_i_glide_esite>  (101) 
0

>  <r_i_glide_emodel>  (101) 
-33.0721

>  <r_i_glide_energy>  (101) 
-25.1215

>  <r_i_glide_einternal>  (101) 
1.22282

>  <r_i_glide_intrahb_reward>  (101) 
-0

>  <i_i_glide_confnum>  (101) 
5

>  <i_i_glide_posenum>  (101) 
38

>  <r_i_glide_eff_state_penalty>  (101) 
0

>  <ligand_id>  (101) 
39

>  <original_smiles>  (101) 
COC1=CC(=O)C(O)=CC1(O)c1ccccc1

>  <smiles>  (101) 
[H]OC1=C([H])C([O-])(c2c([H])c([H])c([H])c([H])c2[H])C(OC([H])([H])[H])=C([H])C1=O

$$$$
39:0:1
     RDKit          3D

 28 29  0  0  1  0  0  0  0  0999 V2000
   -3.5753    3.5470    2.7425 C   0  0  0  0  0  0  0  0  0  0  0  0
   -2.5829    4.0971    3.5934 O   0  0  0  0  0  0  0  0  0  0  0  0
   -1.3746    3.4374    3.7051 C   0  0  0  0  0  0  0  0  0  0  0  0
   -0.9848    2.4296    2.8788 C   0  0  0  0  0  0  0  0  0  0  0  0
    0.3507    1.7972    2.9728 C   0  0  0  0  0  0  0  0  0  0  0  0
    0.7072    0.8843    2.2279 O   0  0  0  0  0  0  0  0  0  0  0  0
    1.2224    2.3186    4.0509 C   0  0  0  0  0  0  0  0  0  0  0  0
    2.4399    1.7649    4.1340 O   0  0  0  0  0  0  0  0  0  0  0  0
    0.8124    3.2922    4.9039 C   0  0  0  0  0  0  0  0  0  0  0  0
   -0.5553    4.0057    4.8933 C   0  0  1  0  0  0  0  0  0  0  0  0
   -0.3574    5.2820    4.6687 O   0  0  0  0  0  0  0  0  0  0  0  0
   -1.2675    3.8399    6.2500 C   0  0  0  0  0  0  0  0  0  0  0  0
   -2.4313    3.0449    6.3781 C   0  0  0  0  0  0  0  0  0  0  0  0
   -3.0926    2.9319    7.6141 C   0  0  0  0  0  0  0  0  0  0  0  0
   -2.5985    3.5873    8.7509 C   0  0  0  0  0  0  0  0  0  0  0  0
   -1.4432    4.3782    8.6415 C   0  0  0  0  0  0  0  0  0  0  0  0
   -0.7763    4.5038    7.4050 C   0  0  0  0  0  0  0  0  0  0  0  0
   -4.4813    4.1398    2.8219 H   0  0  0  0  0  0  0  0  0  0  0  0
   -3.8325    2.5433    3.0560 H   0  0  0  0  0  0  0  0  0  0  0  0
   -3.2726    3.5388    1.7002 H   0  0  0  0  0  0  0  0  0  0  0  0
   -1.6111    2.0666    2.0779 H   0  0  0  0  0  0  0  0  0  0  0  0
    2.5140    1.1679    3.4030 H   0  0  0  0  0  0  0  0  0  0  0  0
    1.5062    3.6293    5.6586 H   0  0  0  0  0  0  0  0  0  0  0  0
   -2.8676    2.5380    5.5303 H   0  0  0  0  0  0  0  0  0  0  0  0
   -3.9883    2.3384    7.6699 H   0  0  0  0  0  0  0  0  0  0  0  0
   -3.1108    3.4769    9.6946 H   0  0  0  0  0  0  0  0  0  0  0  0
   -1.0638    4.8818    9.5156 H   0  0  0  0  0  0  0  0  0  0  0  0
    0.0991    5.1376    7.3419 H   0  0  0  0  0  0  0  0  0  0  0  0
  1  2  1  0
  1 18  1  0
  1 19  1  0
  1 20  1  0
  2  3  1  0
  3 10  1  0
  3  4  2  0
  4  5  1  0
  4 21  1  0
  5  6  2  0
  5  7  1  0
  7  8  1  0
  7  9  2  0
  8 22  1  0
  9 10  1  0
  9 23  1  0
 10 11  1  6
 10 12  1  0
 12 17  1  0
 12 13  2  0
 13 14  1  0
 13 24  1  0
 14 15  2  0
 14 25  1  0
 15 16  1  0
 15 26  1  0
 16 17  2  0
 16 27  1  0
 17 28  1  0
M  CHG  1  11  -1
M  END
>  <i_m_ct_stereo_status>  (102) 
1

>  <s_m_source_file>  (102) 
/var/tmp/pbs.5076255.sched01/tmpaqd8m8vp/41rn73ajce.sdf

>  <i_m_source_file_index>  (102) 
10

>  <i_lp_mmshare_version>  (102) 
48012

>  <i_f3d_flags>  (102) 
0

>  <s_epik_input>  (102) 
W09IXUMoPVtDSF0xKUMoPU8pW0NIXT1DKE9bQ0gzXSlbQ0BAXTEoW09IXSljMltjSF1bY0hdW2NIXVtjSF1bY0hdMg==

>  <s_epik_cmdline>  (102) 
J2VwaWtfcHl0aG9uJywgJy1waHQnLCAnMi4wJywgJy1waCcsICc3LjAnLCAnLXRuJywgJzgnLCAnLW1hJywgJzIwMCcsICctaW1hZScsICc8aW5maWxlLm1hZT4nLCAnLW9tYWUnLCAnPG91dGZpbGUubWFlPic=

>  <r_epik_Ionization_Penalty>  (102) 
0.072765

>  <r_epik_Ionization_Penalty_Charging>  (102) 
0.0724215

>  <r_epik_Ionization_Penalty_Neutral>  (102) 
0.000343553

>  <r_epik_State_Penalty>  (102) 
0.26888

>  <r_epik_Charging_Adjusted_Penalty>  (102) 
0.341302

>  <i_epik_Tot_Q>  (102) 
-1

>  <i_epik_Tot_abs_Q>  (102) 
1

>  <s_lp_Force_Field>  (102) 
OPLS3e

>  <r_lp_Energy>  (102) 
39.2274

>  <b_lp_Chiralities_Consistent>  (102) 
1

>  <s_lp_Variant>  (102) 
39:0-1

>  <s_i_glide_gridfile>  (102) 
pfpi4k_grid

>  <i_i_glide_lignum>  (102) 
10

>  <i_i_glide_rotatable_bonds>  (102) 
3

>  <r_i_docking_score>  (102) 
-3.31093

>  <r_i_glide_ligand_efficiency>  (102) 
-0.194761

>  <r_i_glide_ligand_efficiency_sa>  (102) 
-0.500785

>  <r_i_glide_ligand_efficiency_ln>  (102) 
-0.863749

>  <r_i_glide_gscore>  (102) 
-3.31093

>  <r_i_glide_lipo>  (102) 
-0.365377

>  <r_i_glide_hbond>  (102) 
-0.0702389

>  <r_i_glide_metal>  (102) 
-0

>  <r_i_glide_rewards>  (102) 
-1.83256

>  <r_i_glide_evdw>  (102) 
-19.3709

>  <r_i_glide_ecoul>  (102) 
-2.27667

>  <r_i_glide_erotb>  (102) 
0.319898

>  <r_i_glide_esite>  (102) 
-0.0526083

>  <r_i_glide_emodel>  (102) 
-26.9996

>  <r_i_glide_energy>  (102) 
-21.6476

>  <r_i_glide_einternal>  (102) 
3.00451

>  <r_i_glide_intrahb_reward>  (102) 
-0

>  <i_i_glide_confnum>  (102) 
3

>  <i_i_glide_posenum>  (102) 
1

>  <r_i_glide_eff_state_penalty>  (102) 
0

>  <ligand_id>  (102) 
39

>  <original_smiles>  (102) 
COC1=CC(=O)C(O)=CC1(O)c1ccccc1

>  <smiles>  (102) 
[H]OC1=C([H])C([O-])(c2c([H])c([H])c([H])c([H])c2[H])C(OC([H])([H])[H])=C([H])C1=O

$$$$
39:0:2
     RDKit          3D

 28 29  0  0  1  0  0  0  0  0999 V2000
   -3.5747    3.3644    2.7782 C   0  0  0  0  0  0  0  0  0  0  0  0
   -2.5824    3.9765    3.5863 O   0  0  0  0  0  0  0  0  0  0  0  0
   -1.3506    3.3609    3.6877 C   0  0  0  0  0  0  0  0  0  0  0  0
   -0.9511    2.3389    2.8774 C   0  0  0  0  0  0  0  0  0  0  0  0
    0.4017    1.7442    2.9595 C   0  0  0  0  0  0  0  0  0  0  0  0
    0.7446    0.8135    2.2251 O   0  0  0  0  0  0  0  0  0  0  0  0
    1.2875    2.3259    4.0042 C   0  0  0  0  0  0  0  0  0  0  0  0
    2.5226    1.8107    4.1019 O   0  0  0  0  0  0  0  0  0  0  0  0
    0.8644    3.3148    4.8330 C   0  0  0  0  0  0  0  0  0  0  0  0
   -0.5244    3.9875    4.8315 C   0  0  1  0  0  0  0  0  0  0  0  0
   -0.3664    5.2620    4.5662 O   0  0  0  0  0  0  0  0  0  0  0  0
   -1.1999    3.8503    6.2131 C   0  0  0  0  0  0  0  0  0  0  0  0
   -2.3446    3.0306    6.3929 C   0  0  0  0  0  0  0  0  0  0  0  0
   -2.9815    2.9417    7.6427 C   0  0  0  0  0  0  0  0  0  0  0  0
   -2.4820    3.6509    8.7485 C   0  0  0  0  0  0  0  0  0  0  0  0
   -1.3471    4.4663    8.5874 C   0  0  0  0  0  0  0  0  0  0  0  0
   -0.7080    4.5642    7.3354 C   0  0  0  0  0  0  0  0  0  0  0  0
   -4.5002    3.9288    2.8585 H   0  0  0  0  0  0  0  0  0  0  0  0
   -3.7831    2.3647    3.1439 H   0  0  0  0  0  0  0  0  0  0  0  0
   -3.2956    3.3358    1.7268 H   0  0  0  0  0  0  0  0  0  0  0  0
   -1.5790    1.9342    2.0976 H   0  0  0  0  0  0  0  0  0  0  0  0
    2.9861    2.2895    4.7681 H   0  0  0  0  0  0  0  0  0  0  0  0
    1.5513    3.7001    5.5726 H   0  0  0  0  0  0  0  0  0  0  0  0
   -2.7787    2.4798    5.5736 H   0  0  0  0  0  0  0  0  0  0  0  0
   -3.8536    2.3198    7.7309 H   0  0  0  0  0  0  0  0  0  0  0  0
   -2.9676    3.5621    9.7070 H   0  0  0  0  0  0  0  0  0  0  0  0
   -0.9643    5.0119    9.4348 H   0  0  0  0  0  0  0  0  0  0  0  0
    0.1488    5.2191    7.2325 H   0  0  0  0  0  0  0  0  0  0  0  0
  1  2  1  0
  1 18  1  0
  1 19  1  0
  1 20  1  0
  2  3  1  0
  3 10  1  0
  3  4  2  0
  4  5  1  0
  4 21  1  0
  5  6  2  0
  5  7  1  0
  7  8  1  0
  7  9  2  0
  8 22  1  0
  9 10  1  0
  9 23  1  0
 10 11  1  6
 10 12  1  0
 12 17  1  0
 12 13  2  0
 13 14  1  0
 13 24  1  0
 14 15  2  0
 14 25  1  0
 15 16  1  0
 15 26  1  0
 16 17  2  0
 16 27  1  0
 17 28  1  0
M  CHG  1  11  -1
M  END
>  <i_m_ct_stereo_status>  (103) 
1

>  <s_m_source_file>  (103) 
/var/tmp/pbs.5076255.sched01/tmpaqd8m8vp/41rn73ajce.sdf

>  <i_m_source_file_index>  (103) 
10

>  <i_lp_mmshare_version>  (103) 
48012

>  <i_f3d_flags>  (103) 
0

>  <s_epik_input>  (103) 
W09IXUMoPVtDSF0xKUMoPU8pW0NIXT1DKE9bQ0gzXSlbQ0BAXTEoW09IXSljMltjSF1bY0hdW2NIXVtjSF1bY0hdMg==

>  <s_epik_cmdline>  (103) 
J2VwaWtfcHl0aG9uJywgJy1waHQnLCAnMi4wJywgJy1waCcsICc3LjAnLCAnLXRuJywgJzgnLCAnLW1hJywgJzIwMCcsICctaW1hZScsICc8aW5maWxlLm1hZT4nLCAnLW9tYWUnLCAnPG91dGZpbGUubWFlPic=

>  <r_epik_Ionization_Penalty>  (103) 
0.072765

>  <r_epik_Ionization_Penalty_Charging>  (103) 
0.0724215

>  <r_epik_Ionization_Penalty_Neutral>  (103) 
0.000343553

>  <r_epik_State_Penalty>  (103) 
0.26888

>  <r_epik_Charging_Adjusted_Penalty>  (103) 
0.341302

>  <i_epik_Tot_Q>  (103) 
-1

>  <i_epik_Tot_abs_Q>  (103) 
1

>  <s_lp_Force_Field>  (103) 
OPLS3e

>  <r_lp_Energy>  (103) 
39.2274

>  <b_lp_Chiralities_Consistent>  (103) 
1

>  <s_lp_Variant>  (103) 
39:0-1

>  <s_i_glide_gridfile>  (103) 
pfpi4k_grid

>  <i_i_glide_lignum>  (103) 
10

>  <i_i_glide_rotatable_bonds>  (103) 
3

>  <r_i_docking_score>  (103) 
-3.12783

>  <r_i_glide_ligand_efficiency>  (103) 
-0.18399

>  <r_i_glide_ligand_efficiency_sa>  (103) 
-0.47309

>  <r_i_glide_ligand_efficiency_ln>  (103) 
-0.815981

>  <r_i_glide_gscore>  (103) 
-3.12783

>  <r_i_glide_lipo>  (103) 
-0.308401

>  <r_i_glide_hbond>  (103) 
-0.028362

>  <r_i_glide_metal>  (103) 
-0

>  <r_i_glide_rewards>  (103) 
-1.83256

>  <r_i_glide_evdw>  (103) 
-19.6966

>  <r_i_glide_ecoul>  (103) 
-1.62852

>  <r_i_glide_erotb>  (103) 
0.319898

>  <r_i_glide_esite>  (103) 
-0.0492932

>  <r_i_glide_emodel>  (103) 
-27.3565

>  <r_i_glide_energy>  (103) 
-21.3251

>  <r_i_glide_einternal>  (103) 
0.892317

>  <r_i_glide_intrahb_reward>  (103) 
-0

>  <i_i_glide_confnum>  (103) 
4

>  <i_i_glide_posenum>  (103) 
11

>  <r_i_glide_eff_state_penalty>  (103) 
0

>  <ligand_id>  (103) 
39

>  <original_smiles>  (103) 
COC1=CC(=O)C(O)=CC1(O)c1ccccc1

>  <smiles>  (103) 
[H]OC1=C([H])C([O-])(c2c([H])c([H])c([H])c([H])c2[H])C(OC([H])([H])[H])=C([H])C1=O

$$$$
39:1:0
     RDKit          3D

 29 30  0  0  1  0  0  0  0  0999 V2000
    8.5143   -2.8737   -1.4994 C   0  0  0  0  0  0  0  0  0  0  0  0
    7.2744   -2.2570   -1.1992 O   0  0  0  0  0  0  0  0  0  0  0  0
    6.4783   -2.8165   -0.2288 C   0  0  0  0  0  0  0  0  0  0  0  0
    6.7882   -3.9476    0.4437 C   0  0  0  0  0  0  0  0  0  0  0  0
    5.8789   -4.4934    1.4609 C   0  0  0  0  0  0  0  0  0  0  0  0
    6.1454   -5.5512    2.0248 O   0  0  0  0  0  0  0  0  0  0  0  0
    4.6506   -3.7331    1.7721 C   0  0  0  0  0  0  0  0  0  0  0  0
    3.8590   -4.2088    2.7487 O   0  0  0  0  0  0  0  0  0  0  0  0
    4.3483   -2.6104    1.1001 C   0  0  0  0  0  0  0  0  0  0  0  0
    5.1958   -2.0029   -0.0167 C   0  0  1  0  0  0  0  0  0  0  0  0
    5.5775   -0.7128    0.4142 O   0  0  0  0  0  0  0  0  0  0  0  0
    4.4251   -1.9391   -1.3425 C   0  0  0  0  0  0  0  0  0  0  0  0
    4.4849   -0.8019   -2.1899 C   0  0  0  0  0  0  0  0  0  0  0  0
    3.7776   -0.7656   -3.4085 C   0  0  0  0  0  0  0  0  0  0  0  0
    3.0075   -1.8725   -3.8016 C   0  0  0  0  0  0  0  0  0  0  0  0
    2.9467   -3.0129   -2.9805 C   0  0  0  0  0  0  0  0  0  0  0  0
    3.6555   -3.0517   -1.7618 C   0  0  0  0  0  0  0  0  0  0  0  0
    9.0074   -2.2790   -2.2638 H   0  0  0  0  0  0  0  0  0  0  0  0
    8.3615   -3.8590   -1.9204 H   0  0  0  0  0  0  0  0  0  0  0  0
    9.1730   -2.9327   -0.6332 H   0  0  0  0  0  0  0  0  0  0  0  0
    7.6965   -4.5081    0.2718 H   0  0  0  0  0  0  0  0  0  0  0  0
    3.1340   -3.6130    2.8502 H   0  0  0  0  0  0  0  0  0  0  0  0
    3.4513   -2.0629    1.3472 H   0  0  0  0  0  0  0  0  0  0  0  0
    4.8083   -0.1609    0.3991 H   0  0  0  0  0  0  0  0  0  0  0  0
    5.0603    0.0691   -1.9222 H   0  0  0  0  0  0  0  0  0  0  0  0
    3.8038    0.1174   -4.0329 H   0  0  0  0  0  0  0  0  0  0  0  0
    2.4385   -1.8318   -4.7096 H   0  0  0  0  0  0  0  0  0  0  0  0
    2.3397   -3.8557   -3.2828 H   0  0  0  0  0  0  0  0  0  0  0  0
    3.5991   -3.9441   -1.1535 H   0  0  0  0  0  0  0  0  0  0  0  0
  1  2  1  0
  1 18  1  0
  1 19  1  0
  1 20  1  0
  2  3  1  0
  3 10  1  0
  3  4  2  0
  4  5  1  0
  4 21  1  0
  5  6  2  0
  5  7  1  0
  7  8  1  0
  7  9  2  0
  8 22  1  0
  9 10  1  0
  9 23  1  0
 10 11  1  1
 10 12  1  0
 11 24  1  0
 12 17  1  0
 12 13  2  0
 13 14  1  0
 13 25  1  0
 14 15  2  0
 14 26  1  0
 15 16  1  0
 15 27  1  0
 16 17  2  0
 16 28  1  0
 17 29  1  0
M  END
>  <i_m_ct_stereo_status>  (104) 
1

>  <s_m_source_file>  (104) 
/var/tmp/pbs.5076255.sched01/tmpaqd8m8vp/41rn73ajce.sdf

>  <i_m_source_file_index>  (104) 
11

>  <i_lp_mmshare_version>  (104) 
48012

>  <i_f3d_flags>  (104) 
0

>  <s_epik_input>  (104) 
W09IXUMoPVtDSF0xKUMoPU8pW0NIXT1DKE9bQ0gzXSlbQ0BAXTEoW09IXSljMltjSF1bY0hdW2NIXVtjSF1bY0hdMg==

>  <s_epik_cmdline>  (104) 
J2VwaWtfcHl0aG9uJywgJy1waHQnLCAnMi4wJywgJy1waCcsICc3LjAnLCAnLXRuJywgJzgnLCAnLW1hJywgJzIwMCcsICctaW1hZScsICc8aW5maWxlLm1hZT4nLCAnLW9tYWUnLCAnPG91dGZpbGUubWFlPic=

>  <r_epik_Ionization_Penalty>  (104) 
1.39308

>  <r_epik_Ionization_Penalty_Charging>  (104) 
0

>  <r_epik_Ionization_Penalty_Neutral>  (104) 
1.39308

>  <r_epik_State_Penalty>  (104) 
0.873984

>  <r_epik_Charging_Adjusted_Penalty>  (104) 
0.873984

>  <i_epik_Tot_Q>  (104) 
0

>  <i_epik_Tot_abs_Q>  (104) 
0

>  <s_lp_Force_Field>  (104) 
OPLS3e

>  <r_lp_Energy>  (104) 
31.4348

>  <b_lp_Chiralities_Consistent>  (104) 
1

>  <s_lp_Variant>  (104) 
39:0-2

>  <s_i_glide_gridfile>  (104) 
pfpi4k_grid

>  <i_i_glide_lignum>  (104) 
11

>  <i_i_glide_rotatable_bonds>  (104) 
4

>  <r_i_docking_score>  (104) 
-4.07115

>  <r_i_glide_ligand_efficiency>  (104) 
-0.23948

>  <r_i_glide_ligand_efficiency_sa>  (104) 
-0.615769

>  <r_i_glide_ligand_efficiency_ln>  (104) 
-1.06207

>  <r_i_glide_gscore>  (104) 
-4.07115

>  <r_i_glide_lipo>  (104) 
-0.562903

>  <r_i_glide_hbond>  (104) 
-0.16

>  <r_i_glide_metal>  (104) 
-0

>  <r_i_glide_rewards>  (104) 
-1.91516

>  <r_i_glide_evdw>  (104) 
-21.9994

>  <r_i_glide_ecoul>  (104) 
-4.33773

>  <r_i_glide_erotb>  (104) 
0.317543

>  <r_i_glide_esite>  (104) 
0

>  <r_i_glide_emodel>  (104) 
-33.5399

>  <r_i_glide_energy>  (104) 
-26.3371

>  <r_i_glide_einternal>  (104) 
0.75438

>  <r_i_glide_intrahb_reward>  (104) 
-0

>  <i_i_glide_confnum>  (104) 
3

>  <i_i_glide_posenum>  (104) 
31

>  <r_i_glide_eff_state_penalty>  (104) 
0

>  <ligand_id>  (104) 
39

>  <original_smiles>  (104) 
COC1=CC(=O)C(O)=CC1(O)c1ccccc1

>  <smiles>  (104) 
[H]OC1=C([H])C(O[H])(c2c([H])c([H])c([H])c([H])c2[H])C(OC([H])([H])[H])=C([H])C1=O

$$$$
39:1:1
     RDKit          3D

 29 30  0  0  1  0  0  0  0  0999 V2000
    5.6782   -5.0009    1.0867 C   0  0  0  0  0  0  0  0  0  0  0  0
    5.6452   -3.7353    0.4464 O   0  0  0  0  0  0  0  0  0  0  0  0
    4.9236   -2.7230    1.0459 C   0  0  0  0  0  0  0  0  0  0  0  0
    4.2690   -2.8411    2.2260 C   0  0  0  0  0  0  0  0  0  0  0  0
    3.5228   -1.7091    2.7955 C   0  0  0  0  0  0  0  0  0  0  0  0
    2.9051   -1.8435    3.8482 O   0  0  0  0  0  0  0  0  0  0  0  0
    3.5564   -0.4230    2.0668 C   0  0  0  0  0  0  0  0  0  0  0  0
    2.9567    0.6325    2.6448 O   0  0  0  0  0  0  0  0  0  0  0  0
    4.1890   -0.3228    0.8831 C   0  0  0  0  0  0  0  0  0  0  0  0
    4.9231   -1.4570    0.1760 C   0  0  1  0  0  0  0  0  0  0  0  0
    6.2680   -1.0455    0.0350 O   0  0  0  0  0  0  0  0  0  0  0  0
    4.2992   -1.7190   -1.2047 C   0  0  0  0  0  0  0  0  0  0  0  0
    3.4042   -2.7993   -1.4179 C   0  0  0  0  0  0  0  0  0  0  0  0
    2.8411   -3.0328   -2.6852 C   0  0  0  0  0  0  0  0  0  0  0  0
    3.1549   -2.1897   -3.7627 C   0  0  0  0  0  0  0  0  0  0  0  0
    4.0374   -1.1112   -3.5717 C   0  0  0  0  0  0  0  0  0  0  0  0
    4.6065   -0.8800   -2.3037 C   0  0  0  0  0  0  0  0  0  0  0  0
    6.2728   -5.6819    0.4777 H   0  0  0  0  0  0  0  0  0  0  0  0
    4.6832   -5.4350    1.1910 H   0  0  0  0  0  0  0  0  0  0  0  0
    6.1505   -4.9302    2.0669 H   0  0  0  0  0  0  0  0  0  0  0  0
    4.2546   -3.7580    2.7990 H   0  0  0  0  0  0  0  0  0  0  0  0
    3.0825    1.3885    2.0915 H   0  0  0  0  0  0  0  0  0  0  0  0
    4.2113    0.6348    0.3839 H   0  0  0  0  0  0  0  0  0  0  0  0
    6.6122   -0.8266    0.8896 H   0  0  0  0  0  0  0  0  0  0  0  0
    3.1333   -3.4726   -0.6168 H   0  0  0  0  0  0  0  0  0  0  0  0
    2.1577   -3.8567   -2.8300 H   0  0  0  0  0  0  0  0  0  0  0  0
    2.6955   -2.3726   -4.7197 H   0  0  0  0  0  0  0  0  0  0  0  0
    4.2693   -0.4563   -4.3995 H   0  0  0  0  0  0  0  0  0  0  0  0
    5.2830   -0.0472   -2.1794 H   0  0  0  0  0  0  0  0  0  0  0  0
  1  2  1  0
  1 18  1  0
  1 19  1  0
  1 20  1  0
  2  3  1  0
  3 10  1  0
  3  4  2  0
  4  5  1  0
  4 21  1  0
  5  6  2  0
  5  7  1  0
  7  8  1  0
  7  9  2  0
  8 22  1  0
  9 10  1  0
  9 23  1  0
 10 11  1  6
 10 12  1  0
 11 24  1  0
 12 17  1  0
 12 13  2  0
 13 14  1  0
 13 25  1  0
 14 15  2  0
 14 26  1  0
 15 16  1  0
 15 27  1  0
 16 17  2  0
 16 28  1  0
 17 29  1  0
M  END
>  <i_m_ct_stereo_status>  (105) 
1

>  <s_m_source_file>  (105) 
/var/tmp/pbs.5076255.sched01/tmpaqd8m8vp/41rn73ajce.sdf

>  <i_m_source_file_index>  (105) 
11

>  <i_lp_mmshare_version>  (105) 
48012

>  <i_f3d_flags>  (105) 
0

>  <s_epik_input>  (105) 
W09IXUMoPVtDSF0xKUMoPU8pW0NIXT1DKE9bQ0gzXSlbQ0BAXTEoW09IXSljMltjSF1bY0hdW2NIXVtjSF1bY0hdMg==

>  <s_epik_cmdline>  (105) 
J2VwaWtfcHl0aG9uJywgJy1waHQnLCAnMi4wJywgJy1waCcsICc3LjAnLCAnLXRuJywgJzgnLCAnLW1hJywgJzIwMCcsICctaW1hZScsICc8aW5maWxlLm1hZT4nLCAnLW9tYWUnLCAnPG91dGZpbGUubWFlPic=

>  <r_epik_Ionization_Penalty>  (105) 
1.39308

>  <r_epik_Ionization_Penalty_Charging>  (105) 
0

>  <r_epik_Ionization_Penalty_Neutral>  (105) 
1.39308

>  <r_epik_State_Penalty>  (105) 
0.873984

>  <r_epik_Charging_Adjusted_Penalty>  (105) 
0.873984

>  <i_epik_Tot_Q>  (105) 
0

>  <i_epik_Tot_abs_Q>  (105) 
0

>  <s_lp_Force_Field>  (105) 
OPLS3e

>  <r_lp_Energy>  (105) 
31.4348

>  <b_lp_Chiralities_Consistent>  (105) 
1

>  <s_lp_Variant>  (105) 
39:0-2

>  <s_i_glide_gridfile>  (105) 
pfpi4k_grid

>  <i_i_glide_lignum>  (105) 
11

>  <i_i_glide_rotatable_bonds>  (105) 
4

>  <r_i_docking_score>  (105) 
-3.67634

>  <r_i_glide_ligand_efficiency>  (105) 
-0.216255

>  <r_i_glide_ligand_efficiency_sa>  (105) 
-0.556053

>  <r_i_glide_ligand_efficiency_ln>  (105) 
-0.959074

>  <r_i_glide_gscore>  (105) 
-3.67634

>  <r_i_glide_lipo>  (105) 
-0.654656

>  <r_i_glide_hbond>  (105) 
0

>  <r_i_glide_metal>  (105) 
-0

>  <r_i_glide_rewards>  (105) 
-1.82569

>  <r_i_glide_evdw>  (105) 
-21.7777

>  <r_i_glide_ecoul>  (105) 
-2.82611

>  <r_i_glide_erotb>  (105) 
0.317543

>  <r_i_glide_esite>  (105) 
-0.000728854

>  <r_i_glide_emodel>  (105) 
-31.1821

>  <r_i_glide_energy>  (105) 
-24.6039

>  <r_i_glide_einternal>  (105) 
0.471391

>  <r_i_glide_intrahb_reward>  (105) 
-0

>  <i_i_glide_confnum>  (105) 
4

>  <i_i_glide_posenum>  (105) 
10

>  <r_i_glide_eff_state_penalty>  (105) 
0

>  <ligand_id>  (105) 
39

>  <original_smiles>  (105) 
COC1=CC(=O)C(O)=CC1(O)c1ccccc1

>  <smiles>  (105) 
[H]OC1=C([H])C(O[H])(c2c([H])c([H])c([H])c([H])c2[H])C(OC([H])([H])[H])=C([H])C1=O

$$$$
39:1:2
     RDKit          3D

 29 30  0  0  1  0  0  0  0  0999 V2000
   -3.7847    3.1343    2.7364 C   0  0  0  0  0  0  0  0  0  0  0  0
   -2.6600    3.8205    3.2498 O   0  0  0  0  0  0  0  0  0  0  0  0
   -1.4425    3.1717    3.2171 C   0  0  0  0  0  0  0  0  0  0  0  0
   -1.2184    1.9734    2.6260 C   0  0  0  0  0  0  0  0  0  0  0  0
    0.1289    1.3848    2.6060 C   0  0  0  0  0  0  0  0  0  0  0  0
    0.3065    0.2679    2.1297 O   0  0  0  0  0  0  0  0  0  0  0  0
    1.2433    2.1701    3.1887 C   0  0  0  0  0  0  0  0  0  0  0  0
    2.4801    1.6595    3.0886 O   0  0  0  0  0  0  0  0  0  0  0  0
    1.0021    3.3514    3.7917 C   0  0  0  0  0  0  0  0  0  0  0  0
   -0.3721    3.9972    3.9364 C   0  0  1  0  0  0  0  0  0  0  0  0
   -0.3282    5.2431    3.2827 O   0  0  0  0  0  0  0  0  0  0  0  0
   -0.7131    4.1925    5.4231 C   0  0  0  0  0  0  0  0  0  0  0  0
   -1.6166    3.3290    6.0952 C   0  0  0  0  0  0  0  0  0  0  0  0
   -1.9467    3.5364    7.4485 C   0  0  0  0  0  0  0  0  0  0  0  0
   -1.3692    4.6001    8.1614 C   0  0  0  0  0  0  0  0  0  0  0  0
   -0.4650    5.4645    7.5114 C   0  0  0  0  0  0  0  0  0  0  0  0
   -0.1391    5.2651    6.1539 C   0  0  0  0  0  0  0  0  0  0  0  0
   -4.6755    3.7474    2.8600 H   0  0  0  0  0  0  0  0  0  0  0  0
   -3.9364    2.2236    3.3050 H   0  0  0  0  0  0  0  0  0  0  0  0
   -3.6764    2.9005    1.6769 H   0  0  0  0  0  0  0  0  0  0  0  0
   -1.9926    1.4007    2.1349 H   0  0  0  0  0  0  0  0  0  0  0  0
    3.0954    2.2846    3.4332 H   0  0  0  0  0  0  0  0  0  0  0  0
    1.8287    3.9086    4.2092 H   0  0  0  0  0  0  0  0  0  0  0  0
   -0.1720    5.0713    2.3470 H   0  0  0  0  0  0  0  0  0  0  0  0
   -2.0893    2.5103    5.5748 H   0  0  0  0  0  0  0  0  0  0  0  0
   -2.6478    2.8744    7.9315 H   0  0  0  0  0  0  0  0  0  0  0  0
   -1.6164    4.7447    9.2012 H   0  0  0  0  0  0  0  0  0  0  0  0
   -0.0263    6.2827    8.0599 H   0  0  0  0  0  0  0  0  0  0  0  0
    0.5398    5.9504    5.6637 H   0  0  0  0  0  0  0  0  0  0  0  0
  1  2  1  0
  1 18  1  0
  1 19  1  0
  1 20  1  0
  2  3  1  0
  3 10  1  0
  3  4  2  0
  4  5  1  0
  4 21  1  0
  5  6  2  0
  5  7  1  0
  7  8  1  0
  7  9  2  0
  8 22  1  0
  9 10  1  0
  9 23  1  0
 10 11  1  6
 10 12  1  0
 11 24  1  0
 12 17  1  0
 12 13  2  0
 13 14  1  0
 13 25  1  0
 14 15  2  0
 14 26  1  0
 15 16  1  0
 15 27  1  0
 16 17  2  0
 16 28  1  0
 17 29  1  0
M  END
>  <i_m_ct_stereo_status>  (106) 
1

>  <s_m_source_file>  (106) 
/var/tmp/pbs.5076255.sched01/tmpaqd8m8vp/41rn73ajce.sdf

>  <i_m_source_file_index>  (106) 
11

>  <i_lp_mmshare_version>  (106) 
48012

>  <i_f3d_flags>  (106) 
0

>  <s_epik_input>  (106) 
W09IXUMoPVtDSF0xKUMoPU8pW0NIXT1DKE9bQ0gzXSlbQ0BAXTEoW09IXSljMltjSF1bY0hdW2NIXVtjSF1bY0hdMg==

>  <s_epik_cmdline>  (106) 
J2VwaWtfcHl0aG9uJywgJy1waHQnLCAnMi4wJywgJy1waCcsICc3LjAnLCAnLXRuJywgJzgnLCAnLW1hJywgJzIwMCcsICctaW1hZScsICc8aW5maWxlLm1hZT4nLCAnLW9tYWUnLCAnPG91dGZpbGUubWFlPic=

>  <r_epik_Ionization_Penalty>  (106) 
1.39308

>  <r_epik_Ionization_Penalty_Charging>  (106) 
0

>  <r_epik_Ionization_Penalty_Neutral>  (106) 
1.39308

>  <r_epik_State_Penalty>  (106) 
0.873984

>  <r_epik_Charging_Adjusted_Penalty>  (106) 
0.873984

>  <i_epik_Tot_Q>  (106) 
0

>  <i_epik_Tot_abs_Q>  (106) 
0

>  <s_lp_Force_Field>  (106) 
OPLS3e

>  <r_lp_Energy>  (106) 
31.4348

>  <b_lp_Chiralities_Consistent>  (106) 
1

>  <s_lp_Variant>  (106) 
39:0-2

>  <s_i_glide_gridfile>  (106) 
pfpi4k_grid

>  <i_i_glide_lignum>  (106) 
11

>  <i_i_glide_rotatable_bonds>  (106) 
4

>  <r_i_docking_score>  (106) 
-3.60805

>  <r_i_glide_ligand_efficiency>  (106) 
-0.212239

>  <r_i_glide_ligand_efficiency_sa>  (106) 
-0.545725

>  <r_i_glide_ligand_efficiency_ln>  (106) 
-0.941261

>  <r_i_glide_gscore>  (106) 
-3.60805

>  <r_i_glide_lipo>  (106) 
-0.0826781

>  <r_i_glide_hbond>  (106) 
0

>  <r_i_glide_metal>  (106) 
-0

>  <r_i_glide_rewards>  (106) 
-1.82569

>  <r_i_glide_evdw>  (106) 
-17.8734

>  <r_i_glide_ecoul>  (106) 
-7.11864

>  <r_i_glide_erotb>  (106) 
0.317543

>  <r_i_glide_esite>  (106) 
-0.0557606

>  <r_i_glide_emodel>  (106) 
-31.2825

>  <r_i_glide_energy>  (106) 
-24.9921

>  <r_i_glide_einternal>  (106) 
0.601632

>  <r_i_glide_intrahb_reward>  (106) 
-0

>  <i_i_glide_confnum>  (106) 
4

>  <i_i_glide_posenum>  (106) 
35

>  <r_i_glide_eff_state_penalty>  (106) 
0

>  <ligand_id>  (106) 
39

>  <original_smiles>  (106) 
COC1=CC(=O)C(O)=CC1(O)c1ccccc1

>  <smiles>  (106) 
[H]OC1=C([H])C(O[H])(c2c([H])c([H])c([H])c([H])c2[H])C(OC([H])([H])[H])=C([H])C1=O

$$$$
39:2:0
     RDKit          3D

 28 29  0  0  1  0  0  0  0  0999 V2000
    8.5140   -2.8673   -1.4524 C   0  0  0  0  0  0  0  0  0  0  0  0
    7.2811   -2.2527   -1.1333 O   0  0  0  0  0  0  0  0  0  0  0  0
    6.4725   -2.8577   -0.1933 C   0  0  0  0  0  0  0  0  0  0  0  0
    6.7920   -3.9870    0.4631 C   0  0  0  0  0  0  0  0  0  0  0  0
    5.8721   -4.5816    1.4507 C   0  0  0  0  0  0  0  0  0  0  0  0
    6.1725   -5.6480    1.9804 O   0  0  0  0  0  0  0  0  0  0  0  0
    4.5737   -3.8885    1.8071 C   0  0  0  0  0  0  0  0  0  0  0  0
    3.9055   -4.4727    2.7111 O   0  0  0  0  0  0  0  0  0  0  0  0
    4.3161   -2.7293    1.1007 C   0  0  0  0  0  0  0  0  0  0  0  0
    5.1709   -2.0895    0.0032 C   0  0  1  0  0  0  0  0  0  0  0  0
    5.4994   -0.7985    0.4669 O   0  0  0  0  0  0  0  0  0  0  0  0
    4.4064   -2.0002   -1.3286 C   0  0  0  0  0  0  0  0  0  0  0  0
    3.5608   -3.0559   -1.7468 C   0  0  0  0  0  0  0  0  0  0  0  0
    2.8687   -2.9760   -2.9734 C   0  0  0  0  0  0  0  0  0  0  0  0
    3.0090   -1.8387   -3.7945 C   0  0  0  0  0  0  0  0  0  0  0  0
    3.8455   -0.7834   -3.3934 C   0  0  0  0  0  0  0  0  0  0  0  0
    4.5432   -0.8699   -2.1736 C   0  0  0  0  0  0  0  0  0  0  0  0
    9.0074   -2.2363   -2.1929 H   0  0  0  0  0  0  0  0  0  0  0  0
    8.3657   -3.8473   -1.9027 H   0  0  0  0  0  0  0  0  0  0  0  0
    9.1760   -2.9447   -0.5885 H   0  0  0  0  0  0  0  0  0  0  0  0
    7.7173   -4.5190    0.3064 H   0  0  0  0  0  0  0  0  0  0  0  0
    3.4083   -2.1830    1.3086 H   0  0  0  0  0  0  0  0  0  0  0  0
    4.7003   -0.2955    0.4712 H   0  0  0  0  0  0  0  0  0  0  0  0
    3.4339   -3.9332   -1.1294 H   0  0  0  0  0  0  0  0  0  0  0  0
    2.2131   -3.7783   -3.2764 H   0  0  0  0  0  0  0  0  0  0  0  0
    2.4649   -1.7607   -4.7183 H   0  0  0  0  0  0  0  0  0  0  0  0
    3.9412    0.0995   -4.0104 H   0  0  0  0  0  0  0  0  0  0  0  0
    5.1790   -0.0454   -1.8977 H   0  0  0  0  0  0  0  0  0  0  0  0
  1  2  1  0
  1 18  1  0
  1 19  1  0
  1 20  1  0
  2  3  1  0
  3 10  1  0
  3  4  2  0
  4  5  1  0
  4 21  1  0
  5  6  2  0
  5  7  1  0
  7  8  1  0
  7  9  2  0
  9 10  1  0
  9 22  1  0
 10 11  1  1
 10 12  1  0
 11 23  1  0
 12 17  1  0
 12 13  2  0
 13 14  1  0
 13 24  1  0
 14 15  2  0
 14 25  1  0
 15 16  1  0
 15 26  1  0
 16 17  2  0
 16 27  1  0
 17 28  1  0
M  CHG  1   8  -1
M  END
>  <i_m_ct_stereo_status>  (107) 
1

>  <s_m_source_file>  (107) 
/var/tmp/pbs.5076255.sched01/tmpaqd8m8vp/41rn73ajce.sdf

>  <i_m_source_file_index>  (107) 
12

>  <i_lp_mmshare_version>  (107) 
48012

>  <i_f3d_flags>  (107) 
0

>  <s_epik_input>  (107) 
W09IXUMoPVtDSF0xKUMoPU8pW0NIXT1DKE9bQ0gzXSlbQ0BAXTEoW09IXSljMltjSF1bY0hdW2NIXVtjSF1bY0hdMg==

>  <s_epik_cmdline>  (107) 
J2VwaWtfcHl0aG9uJywgJy1waHQnLCAnMi4wJywgJy1waCcsICc3LjAnLCAnLXRuJywgJzgnLCAnLW1hJywgJzIwMCcsICctaW1hZScsICc8aW5maWxlLm1hZT4nLCAnLW9tYWUnLCAnPG91dGZpbGUubWFlPic=

>  <r_epik_Ionization_Penalty>  (107) 
1.04257

>  <r_epik_Ionization_Penalty_Charging>  (107) 
1.0424

>  <r_epik_Ionization_Penalty_Neutral>  (107) 
0.00016701

>  <r_epik_State_Penalty>  (107) 
1.18217

>  <r_epik_Charging_Adjusted_Penalty>  (107) 
2.22457

>  <i_epik_Tot_Q>  (107) 
-1

>  <i_epik_Tot_abs_Q>  (107) 
1

>  <s_lp_Force_Field>  (107) 
OPLS3e

>  <r_lp_Energy>  (107) 
35.9674

>  <b_lp_Chiralities_Consistent>  (107) 
1

>  <s_lp_Variant>  (107) 
39:0-3

>  <s_i_glide_gridfile>  (107) 
pfpi4k_grid

>  <i_i_glide_lignum>  (107) 
12

>  <i_i_glide_rotatable_bonds>  (107) 
3

>  <r_i_docking_score>  (107) 
-3.70696

>  <r_i_glide_ligand_efficiency>  (107) 
-0.218057

>  <r_i_glide_ligand_efficiency_sa>  (107) 
-0.560685

>  <r_i_glide_ligand_efficiency_ln>  (107) 
-0.967064

>  <r_i_glide_gscore>  (107) 
-3.70696

>  <r_i_glide_lipo>  (107) 
-0.580145

>  <r_i_glide_hbond>  (107) 
-0.16

>  <r_i_glide_metal>  (107) 
-0

>  <r_i_glide_rewards>  (107) 
-1.9226

>  <r_i_glide_evdw>  (107) 
-22.0147

>  <r_i_glide_ecoul>  (107) 
-1.75585

>  <r_i_glide_erotb>  (107) 
0.319898

>  <r_i_glide_esite>  (107) 
0

>  <r_i_glide_emodel>  (107) 
-30.1956

>  <r_i_glide_energy>  (107) 
-23.7706

>  <r_i_glide_einternal>  (107) 
0.971661

>  <r_i_glide_intrahb_reward>  (107) 
-0

>  <i_i_glide_confnum>  (107) 
3

>  <i_i_glide_posenum>  (107) 
18

>  <r_i_glide_eff_state_penalty>  (107) 
0

>  <ligand_id>  (107) 
39

>  <original_smiles>  (107) 
COC1=CC(=O)C(O)=CC1(O)c1ccccc1

>  <smiles>  (107) 
[H]OC1(c2c([H])c([H])c([H])c([H])c2[H])C([H])=C([O-])C(=O)C([H])=C1OC([H])([H])[H]

$$$$
39:2:1
     RDKit          3D

 28 29  0  0  1  0  0  0  0  0999 V2000
    8.5269   -2.8826   -1.5248 C   0  0  0  0  0  0  0  0  0  0  0  0
    7.2996   -2.2564   -1.1866 O   0  0  0  0  0  0  0  0  0  0  0  0
    6.4991   -2.8663   -0.2463 C   0  0  0  0  0  0  0  0  0  0  0  0
    6.8240   -3.9927    0.4155 C   0  0  0  0  0  0  0  0  0  0  0  0
    5.9190   -4.5770    1.4181 C   0  0  0  0  0  0  0  0  0  0  0  0
    6.2282   -5.6423    1.9570 O   0  0  0  0  0  0  0  0  0  0  0  0
    4.6244   -3.8759    1.7906 C   0  0  0  0  0  0  0  0  0  0  0  0
    3.9719   -4.4476    2.7026 O   0  0  0  0  0  0  0  0  0  0  0  0
    4.3673   -2.7151    1.0726 C   0  0  0  0  0  0  0  0  0  0  0  0
    5.2064   -2.0889   -0.0358 C   0  0  1  0  0  0  0  0  0  0  0  0
    5.5637   -0.7983    0.4094 O   0  0  0  0  0  0  0  0  0  0  0  0
    4.4225   -2.0078   -1.3537 C   0  0  0  0  0  0  0  0  0  0  0  0
    3.5805   -3.0699   -1.7627 C   0  0  0  0  0  0  0  0  0  0  0  0
    2.8714   -3.0021   -2.9789 C   0  0  0  0  0  0  0  0  0  0  0  0
    2.9960   -1.8676   -3.8013 C   0  0  0  0  0  0  0  0  0  0  0  0
    3.8244   -0.8024   -3.4148 C   0  0  0  0  0  0  0  0  0  0  0  0
    4.5370   -0.8805   -2.2047 C   0  0  0  0  0  0  0  0  0  0  0  0
    9.0091   -2.2579   -2.2770 H   0  0  0  0  0  0  0  0  0  0  0  0
    8.3616   -3.8598   -1.9695 H   0  0  0  0  0  0  0  0  0  0  0  0
    9.2006   -2.9642   -0.6694 H   0  0  0  0  0  0  0  0  0  0  0  0
    7.7511   -4.5216    0.2524 H   0  0  0  0  0  0  0  0  0  0  0  0
    3.4622   -2.1713    1.2913 H   0  0  0  0  0  0  0  0  0  0  0  0
    5.9217   -0.8706    1.2795 H   0  0  0  0  0  0  0  0  0  0  0  0
    3.4678   -3.9505   -1.1417 H   0  0  0  0  0  0  0  0  0  0  0  0
    2.2186   -3.8137   -3.2741 H   0  0  0  0  0  0  0  0  0  0  0  0
    2.4254   -1.7946   -4.7065 H   0  0  0  0  0  0  0  0  0  0  0  0
    3.9001    0.0792   -4.0376 H   0  0  0  0  0  0  0  0  0  0  0  0
    5.1622   -0.0463   -1.9267 H   0  0  0  0  0  0  0  0  0  0  0  0
  1  2  1  0
  1 18  1  0
  1 19  1  0
  1 20  1  0
  2  3  1  0
  3 10  1  0
  3  4  2  0
  4  5  1  0
  4 21  1  0
  5  6  2  0
  5  7  1  0
  7  8  1  0
  7  9  2  0
  9 10  1  0
  9 22  1  0
 10 11  1  1
 10 12  1  0
 11 23  1  0
 12 17  1  0
 12 13  2  0
 13 14  1  0
 13 24  1  0
 14 15  2  0
 14 25  1  0
 15 16  1  0
 15 26  1  0
 16 17  2  0
 16 27  1  0
 17 28  1  0
M  CHG  1   8  -1
M  END
>  <i_m_ct_stereo_status>  (108) 
1

>  <s_m_source_file>  (108) 
/var/tmp/pbs.5076255.sched01/tmpaqd8m8vp/41rn73ajce.sdf

>  <i_m_source_file_index>  (108) 
12

>  <i_lp_mmshare_version>  (108) 
48012

>  <i_f3d_flags>  (108) 
0

>  <s_epik_input>  (108) 
W09IXUMoPVtDSF0xKUMoPU8pW0NIXT1DKE9bQ0gzXSlbQ0BAXTEoW09IXSljMltjSF1bY0hdW2NIXVtjSF1bY0hdMg==

>  <s_epik_cmdline>  (108) 
J2VwaWtfcHl0aG9uJywgJy1waHQnLCAnMi4wJywgJy1waCcsICc3LjAnLCAnLXRuJywgJzgnLCAnLW1hJywgJzIwMCcsICctaW1hZScsICc8aW5maWxlLm1hZT4nLCAnLW9tYWUnLCAnPG91dGZpbGUubWFlPic=

>  <r_epik_Ionization_Penalty>  (108) 
1.04257

>  <r_epik_Ionization_Penalty_Charging>  (108) 
1.0424

>  <r_epik_Ionization_Penalty_Neutral>  (108) 
0.00016701

>  <r_epik_State_Penalty>  (108) 
1.18217

>  <r_epik_Charging_Adjusted_Penalty>  (108) 
2.22457

>  <i_epik_Tot_Q>  (108) 
-1

>  <i_epik_Tot_abs_Q>  (108) 
1

>  <s_lp_Force_Field>  (108) 
OPLS3e

>  <r_lp_Energy>  (108) 
35.9674

>  <b_lp_Chiralities_Consistent>  (108) 
1

>  <s_lp_Variant>  (108) 
39:0-3

>  <s_i_glide_gridfile>  (108) 
pfpi4k_grid

>  <i_i_glide_lignum>  (108) 
12

>  <i_i_glide_rotatable_bonds>  (108) 
3

>  <r_i_docking_score>  (108) 
-3.6458

>  <r_i_glide_ligand_efficiency>  (108) 
-0.214459

>  <r_i_glide_ligand_efficiency_sa>  (108) 
-0.551434

>  <r_i_glide_ligand_efficiency_ln>  (108) 
-0.951107

>  <r_i_glide_gscore>  (108) 
-3.6458

>  <r_i_glide_lipo>  (108) 
-0.58692

>  <r_i_glide_hbond>  (108) 
-0.16

>  <r_i_glide_metal>  (108) 
-0

>  <r_i_glide_rewards>  (108) 
-1.92728

>  <r_i_glide_evdw>  (108) 
-21.8704

>  <r_i_glide_ecoul>  (108) 
-1.31984

>  <r_i_glide_erotb>  (108) 
0.319898

>  <r_i_glide_esite>  (108) 
0

>  <r_i_glide_emodel>  (108) 
-29.9516

>  <r_i_glide_energy>  (108) 
-23.1902

>  <r_i_glide_einternal>  (108) 
0.234424

>  <r_i_glide_intrahb_reward>  (108) 
-0

>  <i_i_glide_confnum>  (108) 
3

>  <i_i_glide_posenum>  (108) 
20

>  <r_i_glide_eff_state_penalty>  (108) 
0

>  <ligand_id>  (108) 
39

>  <original_smiles>  (108) 
COC1=CC(=O)C(O)=CC1(O)c1ccccc1

>  <smiles>  (108) 
[H]OC1(c2c([H])c([H])c([H])c([H])c2[H])C([H])=C([O-])C(=O)C([H])=C1OC([H])([H])[H]

$$$$
39:2:2
     RDKit          3D

 28 29  0  0  1  0  0  0  0  0999 V2000
    7.6732   -3.2777   -0.0762 C   0  0  0  0  0  0  0  0  0  0  0  0
    6.3781   -2.7365   -0.2952 O   0  0  0  0  0  0  0  0  0  0  0  0
    5.2811   -3.5453   -0.0690 C   0  0  0  0  0  0  0  0  0  0  0  0
    5.3484   -4.8618    0.2255 C   0  0  0  0  0  0  0  0  0  0  0  0
    4.1381   -5.6611    0.4772 C   0  0  0  0  0  0  0  0  0  0  0  0
    4.2377   -6.8743    0.6804 O   0  0  0  0  0  0  0  0  0  0  0  0
    2.7768   -4.9916    0.4803 C   0  0  0  0  0  0  0  0  0  0  0  0
    1.8128   -5.7466    0.7589 O   0  0  0  0  0  0  0  0  0  0  0  0
    2.7821   -3.6376    0.1765 C   0  0  0  0  0  0  0  0  0  0  0  0
    3.9783   -2.7615   -0.1827 C   0  0  1  0  0  0  0  0  0  0  0  0
    4.0028   -1.7375    0.7873 O   0  0  0  0  0  0  0  0  0  0  0  0
    3.8461   -2.1571   -1.5894 C   0  0  0  0  0  0  0  0  0  0  0  0
    3.2217   -2.8740   -2.6331 C   0  0  0  0  0  0  0  0  0  0  0  0
    3.1032   -2.3258   -3.9198 C   0  0  0  0  0  0  0  0  0  0  0  0
    3.5976   -1.0409   -4.1909 C   0  0  0  0  0  0  0  0  0  0  0  0
    4.2090   -0.3080   -3.1594 C   0  0  0  0  0  0  0  0  0  0  0  0
    4.3451   -0.8670   -1.8769 C   0  0  0  0  0  0  0  0  0  0  0  0
    8.4114   -2.5098   -0.3079 H   0  0  0  0  0  0  0  0  0  0  0  0
    7.8766   -4.1332   -0.7198 H   0  0  0  0  0  0  0  0  0  0  0  0
    7.8067   -3.5707    0.9658 H   0  0  0  0  0  0  0  0  0  0  0  0
    6.2794   -5.3920    0.2906 H   0  0  0  0  0  0  0  0  0  0  0  0
    1.8400   -3.1094    0.1654 H   0  0  0  0  0  0  0  0  0  0  0  0
    3.2115   -1.2322    0.6719 H   0  0  0  0  0  0  0  0  0  0  0  0
    2.8149   -3.8531   -2.4431 H   0  0  0  0  0  0  0  0  0  0  0  0
    2.6144   -2.8969   -4.6969 H   0  0  0  0  0  0  0  0  0  0  0  0
    3.4920   -0.6138   -5.1717 H   0  0  0  0  0  0  0  0  0  0  0  0
    4.5723    0.6895   -3.3468 H   0  0  0  0  0  0  0  0  0  0  0  0
    4.8215   -0.2787   -1.1017 H   0  0  0  0  0  0  0  0  0  0  0  0
  1  2  1  0
  1 18  1  0
  1 19  1  0
  1 20  1  0
  2  3  1  0
  3 10  1  0
  3  4  2  0
  4  5  1  0
  4 21  1  0
  5  6  2  0
  5  7  1  0
  7  8  1  0
  7  9  2  0
  9 10  1  0
  9 22  1  0
 10 11  1  1
 10 12  1  0
 11 23  1  0
 12 17  1  0
 12 13  2  0
 13 14  1  0
 13 24  1  0
 14 15  2  0
 14 25  1  0
 15 16  1  0
 15 26  1  0
 16 17  2  0
 16 27  1  0
 17 28  1  0
M  CHG  1   8  -1
M  END
>  <i_m_ct_stereo_status>  (109) 
1

>  <s_m_source_file>  (109) 
/var/tmp/pbs.5076255.sched01/tmpaqd8m8vp/41rn73ajce.sdf

>  <i_m_source_file_index>  (109) 
12

>  <i_lp_mmshare_version>  (109) 
48012

>  <i_f3d_flags>  (109) 
0

>  <s_epik_input>  (109) 
W09IXUMoPVtDSF0xKUMoPU8pW0NIXT1DKE9bQ0gzXSlbQ0BAXTEoW09IXSljMltjSF1bY0hdW2NIXVtjSF1bY0hdMg==

>  <s_epik_cmdline>  (109) 
J2VwaWtfcHl0aG9uJywgJy1waHQnLCAnMi4wJywgJy1waCcsICc3LjAnLCAnLXRuJywgJzgnLCAnLW1hJywgJzIwMCcsICctaW1hZScsICc8aW5maWxlLm1hZT4nLCAnLW9tYWUnLCAnPG91dGZpbGUubWFlPic=

>  <r_epik_Ionization_Penalty>  (109) 
1.04257

>  <r_epik_Ionization_Penalty_Charging>  (109) 
1.0424

>  <r_epik_Ionization_Penalty_Neutral>  (109) 
0.00016701

>  <r_epik_State_Penalty>  (109) 
1.18217

>  <r_epik_Charging_Adjusted_Penalty>  (109) 
2.22457

>  <i_epik_Tot_Q>  (109) 
-1

>  <i_epik_Tot_abs_Q>  (109) 
1

>  <s_lp_Force_Field>  (109) 
OPLS3e

>  <r_lp_Energy>  (109) 
35.9674

>  <b_lp_Chiralities_Consistent>  (109) 
1

>  <s_lp_Variant>  (109) 
39:0-3

>  <s_i_glide_gridfile>  (109) 
pfpi4k_grid

>  <i_i_glide_lignum>  (109) 
12

>  <i_i_glide_rotatable_bonds>  (109) 
3

>  <r_i_docking_score>  (109) 
-3.59452

>  <r_i_glide_ligand_efficiency>  (109) 
-0.211442

>  <r_i_glide_ligand_efficiency_sa>  (109) 
-0.543678

>  <r_i_glide_ligand_efficiency_ln>  (109) 
-0.93773

>  <r_i_glide_gscore>  (109) 
-3.59452

>  <r_i_glide_lipo>  (109) 
-0.694103

>  <r_i_glide_hbond>  (109) 
-0.102422

>  <r_i_glide_metal>  (109) 
-0

>  <r_i_glide_rewards>  (109) 
-1.93332

>  <r_i_glide_evdw>  (109) 
-22.8904

>  <r_i_glide_ecoul>  (109) 
-0.267025

>  <r_i_glide_erotb>  (109) 
0.319898

>  <r_i_glide_esite>  (109) 
0

>  <r_i_glide_emodel>  (109) 
-29.3212

>  <r_i_glide_energy>  (109) 
-23.1574

>  <r_i_glide_einternal>  (109) 
1.06828

>  <r_i_glide_intrahb_reward>  (109) 
-0

>  <i_i_glide_confnum>  (109) 
2

>  <i_i_glide_posenum>  (109) 
37

>  <r_i_glide_eff_state_penalty>  (109) 
0

>  <ligand_id>  (109) 
39

>  <original_smiles>  (109) 
COC1=CC(=O)C(O)=CC1(O)c1ccccc1

>  <smiles>  (109) 
[H]OC1(c2c([H])c([H])c([H])c([H])c2[H])C([H])=C([O-])C(=O)C([H])=C1OC([H])([H])[H]

$$$$
40:0:0
     RDKit          3D

 17 18  0  0  1  0  0  0  0  0999 V2000
    6.2633   -3.2161   -1.0055 C   0  0  0  0  0  0  0  0  0  0  0  0
    6.1803   -1.8409   -1.0070 N   0  0  0  0  0  0  0  0  0  0  0  0
    5.1875   -1.7128   -1.8727 C   0  0  0  0  0  0  0  0  0  0  0  0
    4.7217   -2.8489   -2.3806 N   0  0  0  0  0  0  0  0  0  0  0  0
    5.4142   -3.8586   -1.8149 N   0  0  0  0  0  0  0  0  0  0  0  0
    3.6896   -3.0262   -3.3913 C   0  0  0  0  0  0  0  0  0  0  0  0
    2.8880   -1.7212   -3.5770 C   0  0  0  0  0  0  0  0  0  0  0  0
    3.7900   -0.4779   -3.5730 C   0  0  0  0  0  0  0  0  0  0  0  0
    4.6499   -0.5474   -2.3993 N   0  0  0  0  0  0  0  0  0  0  0  0
    6.9916   -3.7608   -0.4107 H   0  0  0  0  0  0  0  0  0  0  0  0
    4.1853   -3.2943   -4.3181 H   0  0  0  0  0  0  0  0  0  0  0  0
    3.0278   -3.8369   -3.0957 H   0  0  0  0  0  0  0  0  0  0  0  0
    2.2560   -1.7519   -4.4605 H   0  0  0  0  0  0  0  0  0  0  0  0
    2.2146   -1.6430   -2.7268 H   0  0  0  0  0  0  0  0  0  0  0  0
    4.4219   -0.4841   -4.4619 H   0  0  0  0  0  0  0  0  0  0  0  0
    3.2174    0.4532   -3.5896 H   0  0  0  0  0  0  0  0  0  0  0  0
    4.9553    0.3183   -1.9813 H   0  0  0  0  0  0  0  0  0  0  0  0
  1  5  2  0
  1  2  1  0
  1 10  1  0
  2  3  2  0
  3  9  1  0
  3  4  1  0
  4  5  1  0
  4  6  1  0
  6  7  1  0
  6 11  1  0
  6 12  1  0
  7  8  1  0
  7 13  1  0
  7 14  1  0
  8  9  1  0
  8 15  1  0
  8 16  1  0
  9 17  1  0
M  END
>  <i_m_ct_stereo_status>  (110) 
1

>  <s_m_source_file>  (110) 
/var/tmp/pbs.5076255.sched01/tmpaqd8m8vp/41rn73ajce.sdf

>  <i_m_source_file_index>  (110) 
13

>  <i_lp_mmshare_version>  (110) 
48012

>  <i_f3d_flags>  (110) 
0

>  <s_epik_input>  (110) 
bjFbY0hdbm4oYzEyKVtDSDJdW0NIMl1bQ0gyXVtOSF0y

>  <s_epik_cmdline>  (110) 
J2VwaWtfcHl0aG9uJywgJy1waHQnLCAnMi4wJywgJy1waCcsICc3LjAnLCAnLXRuJywgJzgnLCAnLW1hJywgJzIwMCcsICctaW1hZScsICc8aW5maWxlLm1hZT4nLCAnLW9tYWUnLCAnPG91dGZpbGUubWFlPic=

>  <r_lp_tautomer_probability>  (110) 
1

>  <r_epik_Ionization_Penalty>  (110) 
0.00223607

>  <r_epik_Ionization_Penalty_Charging>  (110) 
0

>  <r_epik_Ionization_Penalty_Neutral>  (110) 
0.00223607

>  <r_epik_State_Penalty>  (110) 
-0

>  <r_epik_Charging_Adjusted_Penalty>  (110) 
0

>  <i_epik_Tot_Q>  (110) 
0

>  <i_epik_Tot_abs_Q>  (110) 
0

>  <s_lp_Force_Field>  (110) 
OPLS3e

>  <r_lp_Energy>  (110) 
17.1507

>  <b_lp_Chiralities_Consistent>  (110) 
1

>  <s_lp_Variant>  (110) 
40:0-1

>  <s_i_glide_gridfile>  (110) 
pfpi4k_grid

>  <i_i_glide_lignum>  (110) 
13

>  <i_i_glide_rotatable_bonds>  (110) 
0

>  <r_i_docking_score>  (110) 
-4.78904

>  <r_i_glide_ligand_efficiency>  (110) 
-0.532116

>  <r_i_glide_ligand_efficiency_sa>  (110) 
-1.10685

>  <r_i_glide_ligand_efficiency_ln>  (110) 
-1.49788

>  <r_i_glide_gscore>  (110) 
-4.78904

>  <r_i_glide_lipo>  (110) 
-0.600641

>  <r_i_glide_hbond>  (110) 
-0.435838

>  <r_i_glide_metal>  (110) 
-0

>  <r_i_glide_rewards>  (110) 
-2.49015

>  <r_i_glide_evdw>  (110) 
-16.2536

>  <r_i_glide_ecoul>  (110) 
-2.68572

>  <r_i_glide_erotb>  (110) 
0

>  <r_i_glide_esite>  (110) 
-0.0468779

>  <r_i_glide_emodel>  (110) 
-24.9835

>  <r_i_glide_energy>  (110) 
-18.9393

>  <r_i_glide_einternal>  (110) 
0

>  <r_i_glide_intrahb_reward>  (110) 
-0

>  <i_i_glide_confnum>  (110) 
2

>  <i_i_glide_posenum>  (110) 
40

>  <r_i_glide_eff_state_penalty>  (110) 
0

>  <ligand_id>  (110) 
40

>  <original_smiles>  (110) 
c1nc2n(n1)CCCN2

>  <smiles>  (110) 
[H]c1nc2n(n1)C([H])([H])C([H])([H])C([H])([H])N2[H]

$$$$
40:0:1
     RDKit          3D

 17 18  0  0  1  0  0  0  0  0999 V2000
    5.4425   -1.3080   -0.1379 C   0  0  0  0  0  0  0  0  0  0  0  0
    6.3341   -1.8559   -1.0269 N   0  0  0  0  0  0  0  0  0  0  0  0
    5.4736   -2.3709   -1.8875 C   0  0  0  0  0  0  0  0  0  0  0  0
    4.1902   -2.1509   -1.5886 N   0  0  0  0  0  0  0  0  0  0  0  0
    4.1450   -1.4629   -0.4245 N   0  0  0  0  0  0  0  0  0  0  0  0
    3.0133   -2.6229   -2.3080 C   0  0  0  0  0  0  0  0  0  0  0  0
    3.3882   -3.0722   -3.7435 C   0  0  0  0  0  0  0  0  0  0  0  0
    4.7178   -3.8571   -3.7465 C   0  0  0  0  0  0  0  0  0  0  0  0
    5.7305   -3.0978   -3.0372 N   0  0  0  0  0  0  0  0  0  0  0  0
    5.7537   -0.7859    0.7519 H   0  0  0  0  0  0  0  0  0  0  0  0
    2.6022   -3.4680   -1.7562 H   0  0  0  0  0  0  0  0  0  0  0  0
    2.2657   -1.8329   -2.3336 H   0  0  0  0  0  0  0  0  0  0  0  0
    2.5786   -3.6569   -4.1900 H   0  0  0  0  0  0  0  0  0  0  0  0
    3.5044   -2.1847   -4.3667 H   0  0  0  0  0  0  0  0  0  0  0  0
    4.6104   -4.7899   -3.1943 H   0  0  0  0  0  0  0  0  0  0  0  0
    5.0430   -4.1378   -4.7453 H   0  0  0  0  0  0  0  0  0  0  0  0
    6.7023   -3.3053   -3.2280 H   0  0  0  0  0  0  0  0  0  0  0  0
  1  5  2  0
  1  2  1  0
  1 10  1  0
  2  3  2  0
  3  9  1  0
  3  4  1  0
  4  5  1  0
  4  6  1  0
  6  7  1  0
  6 11  1  0
  6 12  1  0
  7  8  1  0
  7 13  1  0
  7 14  1  0
  8  9  1  0
  8 15  1  0
  8 16  1  0
  9 17  1  0
M  END
>  <i_m_ct_stereo_status>  (111) 
1

>  <s_m_source_file>  (111) 
/var/tmp/pbs.5076255.sched01/tmpaqd8m8vp/41rn73ajce.sdf

>  <i_m_source_file_index>  (111) 
13

>  <i_lp_mmshare_version>  (111) 
48012

>  <i_f3d_flags>  (111) 
0

>  <s_epik_input>  (111) 
bjFbY0hdbm4oYzEyKVtDSDJdW0NIMl1bQ0gyXVtOSF0y

>  <s_epik_cmdline>  (111) 
J2VwaWtfcHl0aG9uJywgJy1waHQnLCAnMi4wJywgJy1waCcsICc3LjAnLCAnLXRuJywgJzgnLCAnLW1hJywgJzIwMCcsICctaW1hZScsICc8aW5maWxlLm1hZT4nLCAnLW9tYWUnLCAnPG91dGZpbGUubWFlPic=

>  <r_lp_tautomer_probability>  (111) 
1

>  <r_epik_Ionization_Penalty>  (111) 
0.00223607

>  <r_epik_Ionization_Penalty_Charging>  (111) 
0

>  <r_epik_Ionization_Penalty_Neutral>  (111) 
0.00223607

>  <r_epik_State_Penalty>  (111) 
-0

>  <r_epik_Charging_Adjusted_Penalty>  (111) 
0

>  <i_epik_Tot_Q>  (111) 
0

>  <i_epik_Tot_abs_Q>  (111) 
0

>  <s_lp_Force_Field>  (111) 
OPLS3e

>  <r_lp_Energy>  (111) 
17.1507

>  <b_lp_Chiralities_Consistent>  (111) 
1

>  <s_lp_Variant>  (111) 
40:0-1

>  <s_i_glide_gridfile>  (111) 
pfpi4k_grid

>  <i_i_glide_lignum>  (111) 
13

>  <i_i_glide_rotatable_bonds>  (111) 
0

>  <r_i_docking_score>  (111) 
-4.18949

>  <r_i_glide_ligand_efficiency>  (111) 
-0.465499

>  <r_i_glide_ligand_efficiency_sa>  (111) 
-0.968276

>  <r_i_glide_ligand_efficiency_ln>  (111) 
-1.31035

>  <r_i_glide_gscore>  (111) 
-4.18949

>  <r_i_glide_lipo>  (111) 
-0.185294

>  <r_i_glide_hbond>  (111) 
-0.315548

>  <r_i_glide_metal>  (111) 
-0

>  <r_i_glide_rewards>  (111) 
-2.25

>  <r_i_glide_evdw>  (111) 
-16.5853

>  <r_i_glide_ecoul>  (111) 
-3.69604

>  <r_i_glide_erotb>  (111) 
0

>  <r_i_glide_esite>  (111) 
-0.0549757

>  <r_i_glide_emodel>  (111) 
-25.5757

>  <r_i_glide_energy>  (111) 
-20.2813

>  <r_i_glide_einternal>  (111) 
0

>  <r_i_glide_intrahb_reward>  (111) 
-0

>  <i_i_glide_confnum>  (111) 
1

>  <i_i_glide_posenum>  (111) 
17

>  <r_i_glide_eff_state_penalty>  (111) 
0

>  <ligand_id>  (111) 
40

>  <original_smiles>  (111) 
c1nc2n(n1)CCCN2

>  <smiles>  (111) 
[H]c1nc2n(n1)C([H])([H])C([H])([H])C([H])([H])N2[H]

$$$$
40:0:2
     RDKit          3D

 17 18  0  0  1  0  0  0  0  0999 V2000
    1.8406   -6.3185    1.1633 C   0  0  0  0  0  0  0  0  0  0  0  0
    0.4739   -6.2752    1.2724 N   0  0  0  0  0  0  0  0  0  0  0  0
    0.2741   -7.4322    1.8872 C   0  0  0  0  0  0  0  0  0  0  0  0
    1.3919   -8.1059    2.1574 N   0  0  0  0  0  0  0  0  0  0  0  0
    2.4452   -7.3912    1.6850 N   0  0  0  0  0  0  0  0  0  0  0  0
    1.5204   -9.4092    2.8003 C   0  0  0  0  0  0  0  0  0  0  0  0
    0.2039   -9.7941    3.5197 C   0  0  0  0  0  0  0  0  0  0  0  0
   -1.0316   -9.4130    2.6698 C   0  0  0  0  0  0  0  0  0  0  0  0
   -0.9233   -8.0213    2.2607 N   0  0  0  0  0  0  0  0  0  0  0  0
    2.4138   -5.5454    0.6732 H   0  0  0  0  0  0  0  0  0  0  0  0
    1.7391  -10.1422    2.0250 H   0  0  0  0  0  0  0  0  0  0  0  0
    2.3533   -9.3861    3.5017 H   0  0  0  0  0  0  0  0  0  0  0  0
    0.1913  -10.8532    3.7854 H   0  0  0  0  0  0  0  0  0  0  0  0
    0.1472   -9.2529    4.4666 H   0  0  0  0  0  0  0  0  0  0  0  0
   -1.0476  -10.0297    1.7697 H   0  0  0  0  0  0  0  0  0  0  0  0
   -1.9671   -9.5968    3.1998 H   0  0  0  0  0  0  0  0  0  0  0  0
   -1.7726   -7.5678    1.9719 H   0  0  0  0  0  0  0  0  0  0  0  0
  1  5  2  0
  1  2  1  0
  1 10  1  0
  2  3  2  0
  3  9  1  0
  3  4  1  0
  4  5  1  0
  4  6  1  0
  6  7  1  0
  6 11  1  0
  6 12  1  0
  7  8  1  0
  7 13  1  0
  7 14  1  0
  8  9  1  0
  8 15  1  0
  8 16  1  0
  9 17  1  0
M  END
>  <i_m_ct_stereo_status>  (112) 
1

>  <s_m_source_file>  (112) 
/var/tmp/pbs.5076255.sched01/tmpaqd8m8vp/41rn73ajce.sdf

>  <i_m_source_file_index>  (112) 
13

>  <i_lp_mmshare_version>  (112) 
48012

>  <i_f3d_flags>  (112) 
0

>  <s_epik_input>  (112) 
bjFbY0hdbm4oYzEyKVtDSDJdW0NIMl1bQ0gyXVtOSF0y

>  <s_epik_cmdline>  (112) 
J2VwaWtfcHl0aG9uJywgJy1waHQnLCAnMi4wJywgJy1waCcsICc3LjAnLCAnLXRuJywgJzgnLCAnLW1hJywgJzIwMCcsICctaW1hZScsICc8aW5maWxlLm1hZT4nLCAnLW9tYWUnLCAnPG91dGZpbGUubWFlPic=

>  <r_lp_tautomer_probability>  (112) 
1

>  <r_epik_Ionization_Penalty>  (112) 
0.00223607

>  <r_epik_Ionization_Penalty_Charging>  (112) 
0

>  <r_epik_Ionization_Penalty_Neutral>  (112) 
0.00223607

>  <r_epik_State_Penalty>  (112) 
-0

>  <r_epik_Charging_Adjusted_Penalty>  (112) 
0

>  <i_epik_Tot_Q>  (112) 
0

>  <i_epik_Tot_abs_Q>  (112) 
0

>  <s_lp_Force_Field>  (112) 
OPLS3e

>  <r_lp_Energy>  (112) 
17.1507

>  <b_lp_Chiralities_Consistent>  (112) 
1

>  <s_lp_Variant>  (112) 
40:0-1

>  <s_i_glide_gridfile>  (112) 
pfpi4k_grid

>  <i_i_glide_lignum>  (112) 
13

>  <i_i_glide_rotatable_bonds>  (112) 
0

>  <r_i_docking_score>  (112) 
-4.08095

>  <r_i_glide_ligand_efficiency>  (112) 
-0.453439

>  <r_i_glide_ligand_efficiency_sa>  (112) 
-0.943192

>  <r_i_glide_ligand_efficiency_ln>  (112) 
-1.27641

>  <r_i_glide_gscore>  (112) 
-4.08095

>  <r_i_glide_lipo>  (112) 
-0.138863

>  <r_i_glide_hbond>  (112) 
-0.16

>  <r_i_glide_metal>  (112) 
-0

>  <r_i_glide_rewards>  (112) 
-2.25

>  <r_i_glide_evdw>  (112) 
-13.7312

>  <r_i_glide_ecoul>  (112) 
-4.24671

>  <r_i_glide_erotb>  (112) 
0

>  <r_i_glide_esite>  (112) 
-0.208525

>  <r_i_glide_emodel>  (112) 
-23.1548

>  <r_i_glide_energy>  (112) 
-17.9779

>  <r_i_glide_einternal>  (112) 
0

>  <r_i_glide_intrahb_reward>  (112) 
-0

>  <i_i_glide_confnum>  (112) 
1

>  <i_i_glide_posenum>  (112) 
1

>  <r_i_glide_eff_state_penalty>  (112) 
0

>  <ligand_id>  (112) 
40

>  <original_smiles>  (112) 
c1nc2n(n1)CCCN2

>  <smiles>  (112) 
[H]c1nc2n(n1)C([H])([H])C([H])([H])C([H])([H])N2[H]

$$$$
41:1:0
     RDKit          3D

 92100  0  0  1  0  0  0  0  0999 V2000
    4.5028   -4.1554   -0.7697 C   0  0  0  0  0  0  0  0  0  0  0  0
    4.4150   -3.9279    0.6074 O   0  0  0  0  0  0  0  0  0  0  0  0
    3.7706   -4.7426    1.4350 C   0  0  0  0  0  0  0  0  0  0  0  0
    3.3016   -5.8359    1.0716 O   0  0  0  0  0  0  0  0  0  0  0  0
    3.6776   -4.2284    2.9183 C   0  0  1  0  0  0  0  0  0  0  0  0
    3.5612   -5.5190    3.7924 C   0  0  0  0  0  0  0  0  0  0  0  0
    4.9383   -3.4058    3.3212 C   0  0  0  0  0  0  0  0  0  0  0  0
    4.6689   -2.2842    4.3640 C   0  0  0  0  0  0  0  0  0  0  0  0
    3.7570   -1.0548    3.9378 C   0  0  1  0  0  0  0  0  0  0  0  0
    4.7234   -0.2904    2.9504 C   0  0  0  0  0  0  0  0  0  0  0  0
    2.5020   -1.7230    3.1134 C   0  0  1  0  0  0  0  0  0  0  0  0
    2.7180   -1.5570    1.5631 C   0  0  0  0  0  0  0  0  0  0  0  0
    2.4385   -3.3071    3.2421 C   0  0  0  0  0  0  0  0  0  0  0  0
    1.0372   -1.1249    3.4208 C   0  0  2  0  0  0  0  0  0  0  0  0
    0.9036    0.3596    2.7856 C   0  0  0  0  0  0  0  0  0  0  0  0
    1.5160    1.6569    3.4133 C   0  0  0  0  0  0  0  0  0  0  0  0
    1.1447    2.0836    4.8749 C   0  0  2  0  0  0  0  0  0  0  0  0
    2.0569    2.3955    6.1563 C   0  0  1  0  0  0  0  0  0  0  0  0
    1.4048    3.5993    6.8553 C   0  0  0  0  0  0  0  0  0  0  0  0
    0.1047    3.0739    7.4830 C   0  0  1  0  0  0  0  0  0  0  0  0
   -0.9199    4.1936    7.7771 C   0  0  0  0  0  0  0  0  0  0  0  0
   -0.4799    1.9010    6.6131 C   0  0  0  0  0  0  0  0  0  0  0  0
    0.4113    0.9848    5.4743 C   0  0  1  0  0  0  0  0  0  0  0  0
   -1.0113    0.7444    4.7534 C   0  0  0  0  0  0  0  0  0  0  0  0
    1.8659   -0.1849    5.7782 C   0  0  2  0  0  0  0  0  0  0  0  0
    2.1995   -1.7139    5.9737 O   0  0  0  0  0  0  0  0  0  0  0  0
    1.9807   -2.6693    7.0293 C   0  0  0  0  0  0  0  0  0  0  0  0
    2.2649   -4.0176    6.7446 C   0  0  0  0  0  0  0  0  0  0  0  0
    1.1838   -4.8706    6.4067 C   0  0  0  0  0  0  0  0  0  0  0  0
   -0.1112   -4.2895    6.3666 C   0  0  0  0  0  0  0  0  0  0  0  0
   -0.2242   -2.9980    6.9268 C   0  0  0  0  0  0  0  0  0  0  0  0
   -0.3173   -1.8043    6.1494 C   0  0  0  0  0  0  0  0  0  0  0  0
    0.2200   -0.7983    7.2138 C   0  0  0  0  0  0  0  0  0  0  0  0
    0.3344   -1.4949    8.3292 N   0  0  0  0  0  0  0  0  0  0  0  0
    0.7386   -2.6385    7.8274 C   0  0  0  0  0  0  0  0  0  0  0  0
    1.6074    0.0233    7.1226 C   0  0  2  0  0  0  0  0  0  0  0  0
    1.9461    1.4323    7.3031 O   0  0  0  0  0  0  0  0  0  0  0  0
   -0.0426   -1.8404    4.5199 C   0  0  0  0  0  0  0  0  0  0  0  0
    3.4372   -0.0365    5.2345 C   0  0  1  0  0  0  0  0  0  0  0  0
    4.4212   -0.4175    6.4285 C   0  0  0  0  0  0  0  0  0  0  0  0
    4.0775    1.4304    5.0489 C   0  0  0  0  0  0  0  0  0  0  0  0
    3.5343    2.5807    5.8821 C   0  0  1  0  0  0  0  0  0  0  0  0
    3.8001    3.8104    5.2392 O   0  0  0  0  0  0  0  0  0  0  0  0
    0.8986   -1.0883    9.0888 H   0  0  0  0  0  0  0  0  0  0  0  0
    4.9402   -3.2645   -1.2130 H   0  0  0  0  0  0  0  0  0  0  0  0
    3.5230   -4.2891   -1.2313 H   0  0  0  0  0  0  0  0  0  0  0  0
    5.1498   -5.0108   -0.9893 H   0  0  0  0  0  0  0  0  0  0  0  0
    3.9122   -5.3903    4.8154 H   0  0  0  0  0  0  0  0  0  0  0  0
    4.1522   -6.3563    3.4124 H   0  0  0  0  0  0  0  0  0  0  0  0
    2.5252   -5.8722    3.8255 H   0  0  0  0  0  0  0  0  0  0  0  0
    5.6642   -4.0958    3.7453 H   0  0  0  0  0  0  0  0  0  0  0  0
    5.4726   -2.9702    2.4766 H   0  0  0  0  0  0  0  0  0  0  0  0
    4.3085   -2.7719    5.2669 H   0  0  0  0  0  0  0  0  0  0  0  0
    5.6596   -1.9180    4.6116 H   0  0  0  0  0  0  0  0  0  0  0  0
    4.2314    0.5130    2.4041 H   0  0  0  0  0  0  0  0  0  0  0  0
    5.1851   -0.9004    2.1839 H   0  0  0  0  0  0  0  0  0  0  0  0
    5.6006    0.1232    3.4450 H   0  0  0  0  0  0  0  0  0  0  0  0
    1.9670   -2.0921    0.9746 H   0  0  0  0  0  0  0  0  0  0  0  0
    3.6702   -1.9116    1.2857 H   0  0  0  0  0  0  0  0  0  0  0  0
    2.7774   -0.5474    1.1487 H   0  0  0  0  0  0  0  0  0  0  0  0
    1.5741   -3.6781    2.6978 H   0  0  0  0  0  0  0  0  0  0  0  0
    2.1976   -3.5113    4.2748 H   0  0  0  0  0  0  0  0  0  0  0  0
    0.5324   -1.6072    2.5914 H   0  0  0  0  0  0  0  0  0  0  0  0
    1.2965    0.4264    1.7914 H   0  0  0  0  0  0  0  0  0  0  0  0
   -0.0854    0.5646    2.3812 H   0  0  0  0  0  0  0  0  0  0  0  0
    2.5261    1.7753    3.0859 H   0  0  0  0  0  0  0  0  0  0  0  0
    1.0768    2.4473    2.8057 H   0  0  0  0  0  0  0  0  0  0  0  0
    0.4880    2.9432    4.7117 H   0  0  0  0  0  0  0  0  0  0  0  0
    2.0494    4.0069    7.6307 H   0  0  0  0  0  0  0  0  0  0  0  0
    1.2245    4.4242    6.1614 H   0  0  0  0  0  0  0  0  0  0  0  0
    0.3607    2.6772    8.4750 H   0  0  0  0  0  0  0  0  0  0  0  0
   -1.2737    4.7019    6.8781 H   0  0  0  0  0  0  0  0  0  0  0  0
   -0.4973    4.9528    8.4354 H   0  0  0  0  0  0  0  0  0  0  0  0
   -1.7943    3.7911    8.2885 H   0  0  0  0  0  0  0  0  0  0  0  0
   -1.0046    1.2686    7.3128 H   0  0  0  0  0  0  0  0  0  0  0  0
   -1.3226    2.4493    6.1616 H   0  0  0  0  0  0  0  0  0  0  0  0
   -1.7668    0.3475    5.4383 H   0  0  0  0  0  0  0  0  0  0  0  0
   -1.1765    0.1344    3.8958 H   0  0  0  0  0  0  0  0  0  0  0  0
   -1.3967    1.6751    4.3245 H   0  0  0  0  0  0  0  0  0  0  0  0
    3.2628   -4.2848    6.4117 H   0  0  0  0  0  0  0  0  0  0  0  0
    1.3542   -5.8839    6.0423 H   0  0  0  0  0  0  0  0  0  0  0  0
   -0.9468   -4.8004    5.9245 H   0  0  0  0  0  0  0  0  0  0  0  0
    2.3301   -0.4056    7.8075 H   0  0  0  0  0  0  0  0  0  0  0  0
   -1.0350   -1.8150    4.0794 H   0  0  0  0  0  0  0  0  0  0  0  0
    0.1346   -2.8875    4.3002 H   0  0  0  0  0  0  0  0  0  0  0  0
    4.3576    0.2958    7.2502 H   0  0  0  0  0  0  0  0  0  0  0  0
    5.4760   -0.4112    6.1465 H   0  0  0  0  0  0  0  0  0  0  0  0
    4.2718   -1.3875    6.8932 H   0  0  0  0  0  0  0  0  0  0  0  0
    5.1526    1.4319    5.2494 H   0  0  0  0  0  0  0  0  0  0  0  0
    4.1611    1.8023    4.0441 H   0  0  0  0  0  0  0  0  0  0  0  0
    4.0656    2.6367    6.8304 H   0  0  0  0  0  0  0  0  0  0  0  0
    3.3794    3.8080    4.3903 H   0  0  0  0  0  0  0  0  0  0  0  0
  1  2  1  0
  1 45  1  0
  1 46  1  0
  1 47  1  0
  2  3  1  0
  3  4  2  0
  3  5  1  0
  5 13  1  0
  5  6  1  1
  5  7  1  0
  6 48  1  0
  6 49  1  0
  6 50  1  0
  7  8  1  0
  7 51  1  0
  7 52  1  0
  8  9  1  0
  8 53  1  0
  8 54  1  0
  9 39  1  0
  9 10  1  6
  9 11  1  0
 10 55  1  0
 10 56  1  0
 10 57  1  0
 11 12  1  6
 11 13  1  0
 11 14  1  0
 12 58  1  0
 12 59  1  0
 12 60  1  0
 13 61  1  0
 13 62  1  0
 14 38  1  0
 14 15  1  0
 14 63  1  6
 15 16  1  0
 15 64  1  0
 15 65  1  0
 16 17  1  0
 16 66  1  0
 16 67  1  0
 17 23  1  0
 17 18  1  0
 17 68  1  6
 18 37  1  0
 18 42  1  0
 18 19  1  1
 19 20  1  0
 19 69  1  0
 19 70  1  0
 20 21  1  0
 20 22  1  0
 20 71  1  1
 21 72  1  0
 21 73  1  0
 21 74  1  0
 22 23  1  0
 22 75  1  0
 22 76  1  0
 23 24  1  6
 23 25  1  0
 24 77  1  0
 24 78  1  0
 24 79  1  0
 25 36  1  0
 25 26  1  1
 25 39  1  0
 26 27  1  0
 27 35  2  0
 27 28  1  0
 28 29  2  0
 28 80  1  0
 29 30  1  0
 29 81  1  0
 30 31  2  0
 30 82  1  0
 31 35  1  0
 31 32  1  0
 32 33  2  0
 32 38  1  0
 33 34  1  0
 33 36  1  0
 34 44  1  0
 34 35  1  0
 36 37  1  0
 36 83  1  1
 38 84  1  0
 38 85  1  0
 39 40  1  1
 39 41  1  0
 40 86  1  0
 40 87  1  0
 40 88  1  0
 41 42  1  0
 41 89  1  0
 41 90  1  0
 42 43  1  0
 42 91  1  1
 43 92  1  0
M  END
>  <i_m_ct_stereo_status>  (113) 
1

>  <s_m_source_file>  (113) 
/var/tmp/pbs.5076255.sched01/tmpaqd8m8vp/41rn73ajce.sdf

>  <i_m_source_file_index>  (113) 
15

>  <i_lp_mmshare_version>  (113) 
48012

>  <i_f3d_flags>  (113) 
0

>  <s_epik_input>  (113) 
W0NIM11PQyg9TylbQ0BdKFtDSDNdKShbQ0gyXTEpW0NIMl1bQ0gyXVtDQF0oW0NIM10pKFtDQEBdMihbQ0gzXSlbQ0gyXVtDQEhdM1tPSF0pW0NAXTEoW0NIM10pW0NIXShbQ0gyXVtDSDJdNClbQ0gyXWMoYzVjKFtuSF02KWMoTzcpW2NIXVtjSF1bY0hdNSljNltDSF0oTzgpQzI3W0NAQF0oW0NASF00W0NAXTM4OSkoW0NIM10pW0NIMl1bQ0BASF0oW0NIMl05KVtDSDNd

>  <s_epik_cmdline>  (113) 
J2VwaWtfcHl0aG9uJywgJy1waHQnLCAnMi4wJywgJy1waCcsICc3LjAnLCAnLXRuJywgJzgnLCAnLW1hJywgJzIwMCcsICctaW1hZScsICc8aW5maWxlLm1hZT4nLCAnLW9tYWUnLCAnPG91dGZpbGUubWFlPic=

>  <r_lp_tautomer_probability>  (113) 
1

>  <r_epik_Ionization_Penalty>  (113) 
8.68251e-08

>  <r_epik_Ionization_Penalty_Charging>  (113) 
0

>  <r_epik_Ionization_Penalty_Neutral>  (113) 
8.68251e-08

>  <r_epik_State_Penalty>  (113) 
-0

>  <r_epik_Charging_Adjusted_Penalty>  (113) 
0

>  <i_epik_Tot_Q>  (113) 
0

>  <i_epik_Tot_abs_Q>  (113) 
0

>  <s_epik_Chemistry_Notes>  (113) 
This compound has an ester and may undergo hydrolysis at high or low pH.

>  <s_lp_Force_Field>  (113) 
OPLS3e

>  <r_lp_Energy>  (113) 
735.07

>  <b_lp_Chiralities_Consistent>  (113) 
1

>  <s_lp_Variant>  (113) 
41:0-2

>  <s_i_glide_gridfile>  (113) 
pfpi4k_grid

>  <i_i_glide_lignum>  (113) 
15

>  <i_i_glide_rotatable_bonds>  (113) 
3

>  <r_i_docking_score>  (113) 
-2.16215

>  <r_i_glide_ligand_efficiency>  (113) 
-0.0502826

>  <r_i_glide_ligand_efficiency_sa>  (113) 
-0.17616

>  <r_i_glide_ligand_efficiency_ln>  (113) 
-0.454119

>  <r_i_glide_gscore>  (113) 
-2.16215

>  <r_i_glide_lipo>  (113) 
-0.167476

>  <r_i_glide_hbond>  (113) 
0

>  <r_i_glide_metal>  (113) 
-0

>  <r_i_glide_rewards>  (113) 
-0.017704

>  <r_i_glide_evdw>  (113) 
-29.6199

>  <r_i_glide_ecoul>  (113) 
-3.29502

>  <r_i_glide_erotb>  (113) 
0.0606024

>  <r_i_glide_esite>  (113) 
-0.0623247

>  <r_i_glide_emodel>  (113) 
-34.1598

>  <r_i_glide_energy>  (113) 
-32.915

>  <r_i_glide_einternal>  (113) 
3.83071

>  <r_i_glide_intrahb_reward>  (113) 
-0

>  <i_i_glide_confnum>  (113) 
1

>  <i_i_glide_posenum>  (113) 
13

>  <r_i_glide_eff_state_penalty>  (113) 
0

>  <ligand_id>  (113) 
41

>  <original_smiles>  (113) 
COC(=O)C1(C)CCC2(C)C(C)(C1)C1CCC3C45CC(C)CC3(C)C3(Oc6cccc7c(c([nH]c67)C3O4)C1)C2(C)CC5O

>  <smiles>  (113) 
[H]OC1([H])C([H])([H])C2(C([H])([H])[H])C34Oc5c([H])c([H])c([H])c6c7c(n([H])c56)C3([H])OC13C([H])([H])C([H])(C([H])([H])[H])C([H])([H])C4(C([H])([H])[H])C3([H])C([H])([H])C([H])([H])C([H])(C7([H])[H])C1(C([H])([H])[H])C([H])([H])C(C(=O)OC([H])([H])[H])(C([H])([H])[H])C([H])([H])C([H])([H])C12C([H])([H])[H]

$$$$
41:1:1
     RDKit          3D

 92100  0  0  1  0  0  0  0  0999 V2000
    4.6287   -5.9105    0.0840 C   0  0  0  0  0  0  0  0  0  0  0  0
    4.5304   -5.2698    1.3440 O   0  0  0  0  0  0  0  0  0  0  0  0
    3.3354   -4.8307    1.7816 C   0  0  0  0  0  0  0  0  0  0  0  0
    2.2698   -4.9897    1.1805 O   0  0  0  0  0  0  0  0  0  0  0  0
    3.4037   -4.2240    3.2135 C   0  0  1  0  0  0  0  0  0  0  0  0
    3.3888   -5.4838    4.1309 C   0  0  0  0  0  0  0  0  0  0  0  0
    4.6916   -3.3898    3.4271 C   0  0  0  0  0  0  0  0  0  0  0  0
    4.5139   -2.2103    4.4212 C   0  0  0  0  0  0  0  0  0  0  0  0
    3.5632   -1.0225    3.9922 C   0  0  1  0  0  0  0  0  0  0  0  0
    4.4474   -0.3221    2.8979 C   0  0  0  0  0  0  0  0  0  0  0  0
    2.2652   -1.7549    3.2988 C   0  0  1  0  0  0  0  0  0  0  0  0
    2.4150   -1.7636    1.7211 C   0  0  0  0  0  0  0  0  0  0  0  0
    2.1991   -3.3032    3.5905 C   0  0  0  0  0  0  0  0  0  0  0  0
    0.8246   -1.1387    3.6428 C   0  0  2  0  0  0  0  0  0  0  0  0
    0.6469    0.2922    2.9184 C   0  0  0  0  0  0  0  0  0  0  0  0
    1.2654    1.6417    3.4351 C   0  0  0  0  0  0  0  0  0  0  0  0
    0.9735    2.1531    4.8898 C   0  0  2  0  0  0  0  0  0  0  0  0
    1.9636    2.5533    6.0882 C   0  0  1  0  0  0  0  0  0  0  0  0
    1.3509    3.7920    6.7554 C   0  0  0  0  0  0  0  0  0  0  0  0
    0.0999    3.3028    7.4968 C   0  0  1  0  0  0  0  0  0  0  0  0
   -0.9112    4.4356    7.7803 C   0  0  0  0  0  0  0  0  0  0  0  0
   -0.5322    2.0783    6.7340 C   0  0  0  0  0  0  0  0  0  0  0  0
    0.2933    1.0932    5.6005 C   0  0  1  0  0  0  0  0  0  0  0  0
   -1.1665    0.8053    4.9879 C   0  0  0  0  0  0  0  0  0  0  0  0
    1.7793   -0.0507    5.8868 C   0  0  2  0  0  0  0  0  0  0  0  0
    2.1342   -1.5512    6.1607 O   0  0  0  0  0  0  0  0  0  0  0  0
    1.9762   -2.4446    7.3160 C   0  0  0  0  0  0  0  0  0  0  0  0
    2.2720   -3.7994    7.0791 C   0  0  0  0  0  0  0  0  0  0  0  0
    1.1816   -4.6809    6.8581 C   0  0  0  0  0  0  0  0  0  0  0  0
   -0.1144   -4.0970    6.8404 C   0  0  0  0  0  0  0  0  0  0  0  0
   -0.2088   -2.7953    7.3203 C   0  0  0  0  0  0  0  0  0  0  0  0
   -0.3556   -1.6369    6.4934 C   0  0  0  0  0  0  0  0  0  0  0  0
    0.2147   -0.5829    7.4458 C   0  0  0  0  0  0  0  0  0  0  0  0
    0.4154   -1.1800    8.6246 N   0  0  0  0  0  0  0  0  0  0  0  0
    0.8206   -2.3638    8.1511 C   0  0  0  0  0  0  0  0  0  0  0  0
    1.5974    0.2506    7.2308 C   0  0  2  0  0  0  0  0  0  0  0  0
    1.9336    1.6637    7.3002 O   0  0  0  0  0  0  0  0  0  0  0  0
   -0.1882   -1.7870    4.8418 C   0  0  0  0  0  0  0  0  0  0  0  0
    3.3105    0.0748    5.2377 C   0  0  1  0  0  0  0  0  0  0  0  0
    4.3649   -0.2252    6.3896 C   0  0  0  0  0  0  0  0  0  0  0  0
    3.9195    1.5303    4.9215 C   0  0  0  0  0  0  0  0  0  0  0  0
    3.4205    2.7276    5.7174 C   0  0  1  0  0  0  0  0  0  0  0  0
    3.6384    3.9189    4.9900 O   0  0  0  0  0  0  0  0  0  0  0  0
    1.0578   -0.7298    9.2563 H   0  0  0  0  0  0  0  0  0  0  0  0
    5.6572   -6.2360   -0.0760 H   0  0  0  0  0  0  0  0  0  0  0  0
    4.3410   -5.2428   -0.7296 H   0  0  0  0  0  0  0  0  0  0  0  0
    3.9911   -6.7952    0.0632 H   0  0  0  0  0  0  0  0  0  0  0  0
    3.8216   -5.3117    5.1183 H   0  0  0  0  0  0  0  0  0  0  0  0
    3.9457   -6.3271    3.7084 H   0  0  0  0  0  0  0  0  0  0  0  0
    2.3635   -5.8429    4.2610 H   0  0  0  0  0  0  0  0  0  0  0  0
    5.4511   -4.0403    3.8463 H   0  0  0  0  0  0  0  0  0  0  0  0
    5.1189   -3.0670    2.4761 H   0  0  0  0  0  0  0  0  0  0  0  0
    4.2130   -2.6470    5.3698 H   0  0  0  0  0  0  0  0  0  0  0  0
    5.5123   -1.8306    4.5902 H   0  0  0  0  0  0  0  0  0  0  0  0
    3.9155    0.4508    2.3450 H   0  0  0  0  0  0  0  0  0  0  0  0
    4.8351   -0.9910    2.1339 H   0  0  0  0  0  0  0  0  0  0  0  0
    5.3510    0.1248    3.3143 H   0  0  0  0  0  0  0  0  0  0  0  0
    1.5690   -2.2462    1.2384 H   0  0  0  0  0  0  0  0  0  0  0  0
    3.2837   -2.2985    1.3660 H   0  0  0  0  0  0  0  0  0  0  0  0
    2.5304   -0.8040    1.2300 H   0  0  0  0  0  0  0  0  0  0  0  0
    1.3056   -3.6919    3.1085 H   0  0  0  0  0  0  0  0  0  0  0  0
    2.0255   -3.4511    4.6471 H   0  0  0  0  0  0  0  0  0  0  0  0
    0.2691   -1.6778    2.8809 H   0  0  0  0  0  0  0  0  0  0  0  0
    1.0179    0.2559    1.9024 H   0  0  0  0  0  0  0  0  0  0  0  0
   -0.3693    0.4706    2.5810 H   0  0  0  0  0  0  0  0  0  0  0  0
    2.2532    1.7485    3.0395 H   0  0  0  0  0  0  0  0  0  0  0  0
    0.7796    2.3933    2.8145 H   0  0  0  0  0  0  0  0  0  0  0  0
    0.3061    3.0040    4.7111 H   0  0  0  0  0  0  0  0  0  0  0  0
    2.0467    4.2473    7.4575 H   0  0  0  0  0  0  0  0  0  0  0  0
    1.1125    4.5722    6.0286 H   0  0  0  0  0  0  0  0  0  0  0  0
    0.4179    2.9661    8.4935 H   0  0  0  0  0  0  0  0  0  0  0  0
   -1.3160    4.8728    6.8666 H   0  0  0  0  0  0  0  0  0  0  0  0
   -0.4539    5.2429    8.3554 H   0  0  0  0  0  0  0  0  0  0  0  0
   -1.7502    4.0608    8.3648 H   0  0  0  0  0  0  0  0  0  0  0  0
   -1.0012    1.4899    7.5079 H   0  0  0  0  0  0  0  0  0  0  0  0
   -1.4101    2.5960    6.3097 H   0  0  0  0  0  0  0  0  0  0  0  0
   -1.8732    0.4540    5.7461 H   0  0  0  0  0  0  0  0  0  0  0  0
   -1.3786    0.1425    4.1827 H   0  0  0  0  0  0  0  0  0  0  0  0
   -1.5842    1.7064    4.5276 H   0  0  0  0  0  0  0  0  0  0  0  0
    3.2466   -4.0851    6.6991 H   0  0  0  0  0  0  0  0  0  0  0  0
    1.3379   -5.7094    6.5394 H   0  0  0  0  0  0  0  0  0  0  0  0
   -0.9857   -4.6424    6.4577 H   0  0  0  0  0  0  0  0  0  0  0  0
    2.3677   -0.1328    7.8849 H   0  0  0  0  0  0  0  0  0  0  0  0
   -1.1939   -1.7839    4.4658 H   0  0  0  0  0  0  0  0  0  0  0  0
   -0.0208   -2.8384    4.6851 H   0  0  0  0  0  0  0  0  0  0  0  0
    4.3436    0.5412    7.1641 H   0  0  0  0  0  0  0  0  0  0  0  0
    5.3984   -0.2338    6.0432 H   0  0  0  0  0  0  0  0  0  0  0  0
    4.2542   -1.1626    6.9252 H   0  0  0  0  0  0  0  0  0  0  0  0
    5.0027    1.5501    5.0561 H   0  0  0  0  0  0  0  0  0  0  0  0
    3.9398    1.8427    3.8931 H   0  0  0  0  0  0  0  0  0  0  0  0
    4.0075    2.8425    6.6290 H   0  0  0  0  0  0  0  0  0  0  0  0
    3.1716    3.8574    4.1639 H   0  0  0  0  0  0  0  0  0  0  0  0
  1  2  1  0
  1 45  1  0
  1 46  1  0
  1 47  1  0
  2  3  1  0
  3  4  2  0
  3  5  1  0
  5 13  1  0
  5  6  1  1
  5  7  1  0
  6 48  1  0
  6 49  1  0
  6 50  1  0
  7  8  1  0
  7 51  1  0
  7 52  1  0
  8  9  1  0
  8 53  1  0
  8 54  1  0
  9 39  1  0
  9 10  1  6
  9 11  1  0
 10 55  1  0
 10 56  1  0
 10 57  1  0
 11 12  1  6
 11 13  1  0
 11 14  1  0
 12 58  1  0
 12 59  1  0
 12 60  1  0
 13 61  1  0
 13 62  1  0
 14 38  1  0
 14 15  1  0
 14 63  1  6
 15 16  1  0
 15 64  1  0
 15 65  1  0
 16 17  1  0
 16 66  1  0
 16 67  1  0
 17 23  1  0
 17 18  1  0
 17 68  1  6
 18 37  1  0
 18 42  1  0
 18 19  1  1
 19 20  1  0
 19 69  1  0
 19 70  1  0
 20 21  1  0
 20 22  1  0
 20 71  1  1
 21 72  1  0
 21 73  1  0
 21 74  1  0
 22 23  1  0
 22 75  1  0
 22 76  1  0
 23 24  1  6
 23 25  1  0
 24 77  1  0
 24 78  1  0
 24 79  1  0
 25 36  1  0
 25 26  1  1
 25 39  1  0
 26 27  1  0
 27 35  2  0
 27 28  1  0
 28 29  2  0
 28 80  1  0
 29 30  1  0
 29 81  1  0
 30 31  2  0
 30 82  1  0
 31 35  1  0
 31 32  1  0
 32 33  2  0
 32 38  1  0
 33 34  1  0
 33 36  1  0
 34 44  1  0
 34 35  1  0
 36 37  1  0
 36 83  1  1
 38 84  1  0
 38 85  1  0
 39 40  1  1
 39 41  1  0
 40 86  1  0
 40 87  1  0
 40 88  1  0
 41 42  1  0
 41 89  1  0
 41 90  1  0
 42 43  1  0
 42 91  1  1
 43 92  1  0
M  END
>  <i_m_ct_stereo_status>  (114) 
1

>  <s_m_source_file>  (114) 
/var/tmp/pbs.5076255.sched01/tmpaqd8m8vp/41rn73ajce.sdf

>  <i_m_source_file_index>  (114) 
15

>  <i_lp_mmshare_version>  (114) 
48012

>  <i_f3d_flags>  (114) 
0

>  <s_epik_input>  (114) 
W0NIM11PQyg9TylbQ0BdKFtDSDNdKShbQ0gyXTEpW0NIMl1bQ0gyXVtDQF0oW0NIM10pKFtDQEBdMihbQ0gzXSlbQ0gyXVtDQEhdM1tPSF0pW0NAXTEoW0NIM10pW0NIXShbQ0gyXVtDSDJdNClbQ0gyXWMoYzVjKFtuSF02KWMoTzcpW2NIXVtjSF1bY0hdNSljNltDSF0oTzgpQzI3W0NAQF0oW0NASF00W0NAXTM4OSkoW0NIM10pW0NIMl1bQ0BASF0oW0NIMl05KVtDSDNd

>  <s_epik_cmdline>  (114) 
J2VwaWtfcHl0aG9uJywgJy1waHQnLCAnMi4wJywgJy1waCcsICc3LjAnLCAnLXRuJywgJzgnLCAnLW1hJywgJzIwMCcsICctaW1hZScsICc8aW5maWxlLm1hZT4nLCAnLW9tYWUnLCAnPG91dGZpbGUubWFlPic=

>  <r_lp_tautomer_probability>  (114) 
1

>  <r_epik_Ionization_Penalty>  (114) 
8.68251e-08

>  <r_epik_Ionization_Penalty_Charging>  (114) 
0

>  <r_epik_Ionization_Penalty_Neutral>  (114) 
8.68251e-08

>  <r_epik_State_Penalty>  (114) 
-0

>  <r_epik_Charging_Adjusted_Penalty>  (114) 
0

>  <i_epik_Tot_Q>  (114) 
0

>  <i_epik_Tot_abs_Q>  (114) 
0

>  <s_epik_Chemistry_Notes>  (114) 
This compound has an ester and may undergo hydrolysis at high or low pH.

>  <s_lp_Force_Field>  (114) 
OPLS3e

>  <r_lp_Energy>  (114) 
735.07

>  <b_lp_Chiralities_Consistent>  (114) 
1

>  <s_lp_Variant>  (114) 
41:0-2

>  <s_i_glide_gridfile>  (114) 
pfpi4k_grid

>  <i_i_glide_lignum>  (114) 
15

>  <i_i_glide_rotatable_bonds>  (114) 
3

>  <r_i_docking_score>  (114) 
-2.10662

>  <r_i_glide_ligand_efficiency>  (114) 
-0.0489911

>  <r_i_glide_ligand_efficiency_sa>  (114) 
-0.171635

>  <r_i_glide_ligand_efficiency_ln>  (114) 
-0.442456

>  <r_i_glide_gscore>  (114) 
-2.10662

>  <r_i_glide_lipo>  (114) 
-0.175628

>  <r_i_glide_hbond>  (114) 
-0.00566184

>  <r_i_glide_metal>  (114) 
-0

>  <r_i_glide_rewards>  (114) 
-0.00485863

>  <r_i_glide_evdw>  (114) 
-28.7156

>  <r_i_glide_ecoul>  (114) 
-3.2738

>  <r_i_glide_erotb>  (114) 
0.0606024

>  <r_i_glide_esite>  (114) 
-0.0542254

>  <r_i_glide_emodel>  (114) 
-35.8483

>  <r_i_glide_energy>  (114) 
-31.9894

>  <r_i_glide_einternal>  (114) 
0.259174

>  <r_i_glide_intrahb_reward>  (114) 
-0

>  <i_i_glide_confnum>  (114) 
2

>  <i_i_glide_posenum>  (114) 
30

>  <r_i_glide_eff_state_penalty>  (114) 
0

>  <ligand_id>  (114) 
41

>  <original_smiles>  (114) 
COC(=O)C1(C)CCC2(C)C(C)(C1)C1CCC3C45CC(C)CC3(C)C3(Oc6cccc7c(c([nH]c67)C3O4)C1)C2(C)CC5O

>  <smiles>  (114) 
[H]OC1([H])C([H])([H])C2(C([H])([H])[H])C34Oc5c([H])c([H])c([H])c6c7c(n([H])c56)C3([H])OC13C([H])([H])C([H])(C([H])([H])[H])C([H])([H])C4(C([H])([H])[H])C3([H])C([H])([H])C([H])([H])C([H])(C7([H])[H])C1(C([H])([H])[H])C([H])([H])C(C(=O)OC([H])([H])[H])(C([H])([H])[H])C([H])([H])C([H])([H])C12C([H])([H])[H]

$$$$
41:1:2
     RDKit          3D

 92100  0  0  1  0  0  0  0  0999 V2000
    4.6332   -5.9831    0.1051 C   0  0  0  0  0  0  0  0  0  0  0  0
    4.5358   -5.3201    1.3523 O   0  0  0  0  0  0  0  0  0  0  0  0
    3.3461   -4.8512    1.7681 C   0  0  0  0  0  0  0  0  0  0  0  0
    2.2890   -4.9723    1.1433 O   0  0  0  0  0  0  0  0  0  0  0  0
    3.4042   -4.2605    3.2076 C   0  0  1  0  0  0  0  0  0  0  0  0
    3.3717   -5.5314    4.1055 C   0  0  0  0  0  0  0  0  0  0  0  0
    4.6940   -3.4361    3.4450 C   0  0  0  0  0  0  0  0  0  0  0  0
    4.5128   -2.2652    4.4482 C   0  0  0  0  0  0  0  0  0  0  0  0
    3.5697   -1.0662    4.0248 C   0  0  1  0  0  0  0  0  0  0  0  0
    4.4719   -0.3564    2.9490 C   0  0  0  0  0  0  0  0  0  0  0  0
    2.2766   -1.7846    3.3056 C   0  0  1  0  0  0  0  0  0  0  0  0
    2.4434   -1.7752    1.7303 C   0  0  0  0  0  0  0  0  0  0  0  0
    2.1973   -3.3370    3.5767 C   0  0  0  0  0  0  0  0  0  0  0  0
    0.8365   -1.1655    3.6438 C   0  0  2  0  0  0  0  0  0  0  0  0
    0.6723    0.2724    2.9346 C   0  0  0  0  0  0  0  0  0  0  0  0
    1.2893    1.6118    3.4776 C   0  0  0  0  0  0  0  0  0  0  0  0
    0.9850    2.1094    4.9352 C   0  0  2  0  0  0  0  0  0  0  0  0
    1.9614    2.4907    6.1504 C   0  0  1  0  0  0  0  0  0  0  0  0
    1.3447    3.7232    6.8261 C   0  0  0  0  0  0  0  0  0  0  0  0
    0.0806    3.2310    7.5388 C   0  0  1  0  0  0  0  0  0  0  0  0
   -0.9314    4.3632    7.8296 C   0  0  0  0  0  0  0  0  0  0  0  0
   -0.5450    2.0122    6.7598 C   0  0  0  0  0  0  0  0  0  0  0  0
    0.2905    1.0418    5.6240 C   0  0  1  0  0  0  0  0  0  0  0  0
   -1.1630    0.7680    4.9894 C   0  0  0  0  0  0  0  0  0  0  0  0
    1.7689   -0.1077    5.9145 C   0  0  2  0  0  0  0  0  0  0  0  0
    2.1135   -1.6152    6.1670 O   0  0  0  0  0  0  0  0  0  0  0  0
    1.9349   -2.5245    7.3103 C   0  0  0  0  0  0  0  0  0  0  0  0
    2.2385   -3.8805    7.0558 C   0  0  0  0  0  0  0  0  0  0  0  0
    1.1419   -4.7518    6.8228 C   0  0  0  0  0  0  0  0  0  0  0  0
   -0.1517   -4.1633    6.7955 C   0  0  0  0  0  0  0  0  0  0  0  0
   -0.2493   -2.8658    7.2911 C   0  0  0  0  0  0  0  0  0  0  0  0
   -0.3792   -1.6965    6.4744 C   0  0  0  0  0  0  0  0  0  0  0  0
    0.1914   -0.6534    7.4417 C   0  0  0  0  0  0  0  0  0  0  0  0
    0.3717   -1.2660    8.6205 N   0  0  0  0  0  0  0  0  0  0  0  0
    0.7805   -2.4556    8.1297 C   0  0  0  0  0  0  0  0  0  0  0  0
    1.5770    0.1725    7.2580 C   0  0  2  0  0  0  0  0  0  0  0  0
    1.9154    1.5883    7.3515 O   0  0  0  0  0  0  0  0  0  0  0  0
   -0.1963   -1.8252    4.8276 C   0  0  0  0  0  0  0  0  0  0  0  0
    3.3095    0.0159    5.2807 C   0  0  1  0  0  0  0  0  0  0  0  0
    4.3487   -0.3018    6.4426 C   0  0  0  0  0  0  0  0  0  0  0  0
    3.9263    1.4776    4.9939 C   0  0  0  0  0  0  0  0  0  0  0  0
    3.4258    2.6652    5.8033 C   0  0  1  0  0  0  0  0  0  0  0  0
    3.6543    3.8561    5.0764 O   0  0  0  0  0  0  0  0  0  0  0  0
    1.0000   -0.8375    9.2708 H   0  0  0  0  0  0  0  0  0  0  0  0
    5.6580   -6.3245   -0.0379 H   0  0  0  0  0  0  0  0  0  0  0  0
    4.3737   -5.3228   -0.7240 H   0  0  0  0  0  0  0  0  0  0  0  0
    3.9780   -6.8547    0.0852 H   0  0  0  0  0  0  0  0  0  0  0  0
    3.7924   -5.3735    5.0987 H   0  0  0  0  0  0  0  0  0  0  0  0
    3.9310   -6.3729    3.6840 H   0  0  0  0  0  0  0  0  0  0  0  0
    2.3442   -5.8869    4.2194 H   0  0  0  0  0  0  0  0  0  0  0  0
    5.4503   -4.0949    3.8633 H   0  0  0  0  0  0  0  0  0  0  0  0
    5.1317   -3.1055    2.5015 H   0  0  0  0  0  0  0  0  0  0  0  0
    4.1982   -2.7135    5.3864 H   0  0  0  0  0  0  0  0  0  0  0  0
    5.5112   -1.8926    4.6390 H   0  0  0  0  0  0  0  0  0  0  0  0
    3.9506    0.4273    2.4007 H   0  0  0  0  0  0  0  0  0  0  0  0
    4.8636   -1.0180    2.1837 H   0  0  0  0  0  0  0  0  0  0  0  0
    5.3723    0.0817    3.3821 H   0  0  0  0  0  0  0  0  0  0  0  0
    1.6030   -2.2481    1.2281 H   0  0  0  0  0  0  0  0  0  0  0  0
    3.3171   -2.3088    1.3810 H   0  0  0  0  0  0  0  0  0  0  0  0
    2.5711   -0.8098    1.2529 H   0  0  0  0  0  0  0  0  0  0  0  0
    1.3072   -3.7194    3.0842 H   0  0  0  0  0  0  0  0  0  0  0  0
    2.0129   -3.4928    4.6286 H   0  0  0  0  0  0  0  0  0  0  0  0
    0.2829   -1.6959    2.8741 H   0  0  0  0  0  0  0  0  0  0  0  0
    1.0556    0.2465    1.9232 H   0  0  0  0  0  0  0  0  0  0  0  0
   -0.3389    0.4604    2.5852 H   0  0  0  0  0  0  0  0  0  0  0  0
    2.2829    1.7233    3.0948 H   0  0  0  0  0  0  0  0  0  0  0  0
    0.8154    2.3713    2.8550 H   0  0  0  0  0  0  0  0  0  0  0  0
    0.3226    2.9642    4.7577 H   0  0  0  0  0  0  0  0  0  0  0  0
    2.0294    4.1673    7.5461 H   0  0  0  0  0  0  0  0  0  0  0  0
    1.1131    4.5095    6.1031 H   0  0  0  0  0  0  0  0  0  0  0  0
    0.3860    2.8798    8.5335 H   0  0  0  0  0  0  0  0  0  0  0  0
   -1.3376    4.8149    6.9207 H   0  0  0  0  0  0  0  0  0  0  0  0
   -0.4752    5.1584    8.4232 H   0  0  0  0  0  0  0  0  0  0  0  0
   -1.7778    3.9843    8.4023 H   0  0  0  0  0  0  0  0  0  0  0  0
   -1.0291    1.4171    7.5190 H   0  0  0  0  0  0  0  0  0  0  0  0
   -1.4097    2.5427    6.3305 H   0  0  0  0  0  0  0  0  0  0  0  0
   -1.8807    0.4080    5.7320 H   0  0  0  0  0  0  0  0  0  0  0  0
   -1.3681    0.1172    4.1718 H   0  0  0  0  0  0  0  0  0  0  0  0
   -1.5737    1.6755    4.5352 H   0  0  0  0  0  0  0  0  0  0  0  0
    3.2120   -4.1666    6.6901 H   0  0  0  0  0  0  0  0  0  0  0  0
    1.2941   -5.7746    6.4866 H   0  0  0  0  0  0  0  0  0  0  0  0
   -1.0163   -4.6987    6.3951 H   0  0  0  0  0  0  0  0  0  0  0  0
    2.3390   -0.2221    7.9197 H   0  0  0  0  0  0  0  0  0  0  0  0
   -1.1990   -1.8148    4.4384 H   0  0  0  0  0  0  0  0  0  0  0  0
   -0.0348   -2.8749    4.6572 H   0  0  0  0  0  0  0  0  0  0  0  0
    4.3202    0.4523    7.2273 H   0  0  0  0  0  0  0  0  0  0  0  0
    5.3842   -0.3097    6.1063 H   0  0  0  0  0  0  0  0  0  0  0  0
    4.2271   -1.2461    6.9623 H   0  0  0  0  0  0  0  0  0  0  0  0
    5.0071    1.4889    5.1358 H   0  0  0  0  0  0  0  0  0  0  0  0
    3.9565    1.8052    3.9712 H   0  0  0  0  0  0  0  0  0  0  0  0
    3.9999    2.7576    6.7269 H   0  0  0  0  0  0  0  0  0  0  0  0
    3.2932    4.5837    5.5679 H   0  0  0  0  0  0  0  0  0  0  0  0
  1  2  1  0
  1 45  1  0
  1 46  1  0
  1 47  1  0
  2  3  1  0
  3  4  2  0
  3  5  1  0
  5 13  1  0
  5  6  1  1
  5  7  1  0
  6 48  1  0
  6 49  1  0
  6 50  1  0
  7  8  1  0
  7 51  1  0
  7 52  1  0
  8  9  1  0
  8 53  1  0
  8 54  1  0
  9 39  1  0
  9 10  1  6
  9 11  1  0
 10 55  1  0
 10 56  1  0
 10 57  1  0
 11 12  1  6
 11 13  1  0
 11 14  1  0
 12 58  1  0
 12 59  1  0
 12 60  1  0
 13 61  1  0
 13 62  1  0
 14 38  1  0
 14 15  1  0
 14 63  1  6
 15 16  1  0
 15 64  1  0
 15 65  1  0
 16 17  1  0
 16 66  1  0
 16 67  1  0
 17 23  1  0
 17 18  1  0
 17 68  1  6
 18 37  1  0
 18 42  1  0
 18 19  1  1
 19 20  1  0
 19 69  1  0
 19 70  1  0
 20 21  1  0
 20 22  1  0
 20 71  1  1
 21 72  1  0
 21 73  1  0
 21 74  1  0
 22 23  1  0
 22 75  1  0
 22 76  1  0
 23 24  1  6
 23 25  1  0
 24 77  1  0
 24 78  1  0
 24 79  1  0
 25 36  1  0
 25 26  1  1
 25 39  1  0
 26 27  1  0
 27 35  2  0
 27 28  1  0
 28 29  2  0
 28 80  1  0
 29 30  1  0
 29 81  1  0
 30 31  2  0
 30 82  1  0
 31 35  1  0
 31 32  1  0
 32 33  2  0
 32 38  1  0
 33 34  1  0
 33 36  1  0
 34 44  1  0
 34 35  1  0
 36 37  1  0
 36 83  1  1
 38 84  1  0
 38 85  1  0
 39 40  1  1
 39 41  1  0
 40 86  1  0
 40 87  1  0
 40 88  1  0
 41 42  1  0
 41 89  1  0
 41 90  1  0
 42 43  1  0
 42 91  1  1
 43 92  1  0
M  END
>  <i_m_ct_stereo_status>  (115) 
1

>  <s_m_source_file>  (115) 
/var/tmp/pbs.5076255.sched01/tmpaqd8m8vp/41rn73ajce.sdf

>  <i_m_source_file_index>  (115) 
15

>  <i_lp_mmshare_version>  (115) 
48012

>  <i_f3d_flags>  (115) 
0

>  <s_epik_input>  (115) 
W0NIM11PQyg9TylbQ0BdKFtDSDNdKShbQ0gyXTEpW0NIMl1bQ0gyXVtDQF0oW0NIM10pKFtDQEBdMihbQ0gzXSlbQ0gyXVtDQEhdM1tPSF0pW0NAXTEoW0NIM10pW0NIXShbQ0gyXVtDSDJdNClbQ0gyXWMoYzVjKFtuSF02KWMoTzcpW2NIXVtjSF1bY0hdNSljNltDSF0oTzgpQzI3W0NAQF0oW0NASF00W0NAXTM4OSkoW0NIM10pW0NIMl1bQ0BASF0oW0NIMl05KVtDSDNd

>  <s_epik_cmdline>  (115) 
J2VwaWtfcHl0aG9uJywgJy1waHQnLCAnMi4wJywgJy1waCcsICc3LjAnLCAnLXRuJywgJzgnLCAnLW1hJywgJzIwMCcsICctaW1hZScsICc8aW5maWxlLm1hZT4nLCAnLW9tYWUnLCAnPG91dGZpbGUubWFlPic=

>  <r_lp_tautomer_probability>  (115) 
1

>  <r_epik_Ionization_Penalty>  (115) 
8.68251e-08

>  <r_epik_Ionization_Penalty_Charging>  (115) 
0

>  <r_epik_Ionization_Penalty_Neutral>  (115) 
8.68251e-08

>  <r_epik_State_Penalty>  (115) 
-0

>  <r_epik_Charging_Adjusted_Penalty>  (115) 
0

>  <i_epik_Tot_Q>  (115) 
0

>  <i_epik_Tot_abs_Q>  (115) 
0

>  <s_epik_Chemistry_Notes>  (115) 
This compound has an ester and may undergo hydrolysis at high or low pH.

>  <s_lp_Force_Field>  (115) 
OPLS3e

>  <r_lp_Energy>  (115) 
735.07

>  <b_lp_Chiralities_Consistent>  (115) 
1

>  <s_lp_Variant>  (115) 
41:0-2

>  <s_i_glide_gridfile>  (115) 
pfpi4k_grid

>  <i_i_glide_lignum>  (115) 
15

>  <i_i_glide_rotatable_bonds>  (115) 
3

>  <r_i_docking_score>  (115) 
-1.97639

>  <r_i_glide_ligand_efficiency>  (115) 
-0.0459625

>  <r_i_glide_ligand_efficiency_sa>  (115) 
-0.161025

>  <r_i_glide_ligand_efficiency_ln>  (115) 
-0.415103

>  <r_i_glide_gscore>  (115) 
-1.97639

>  <r_i_glide_lipo>  (115) 
-0.190512

>  <r_i_glide_hbond>  (115) 
-0.00427304

>  <r_i_glide_metal>  (115) 
-0

>  <r_i_glide_rewards>  (115) 
-0.00520188

>  <r_i_glide_evdw>  (115) 
-28.5233

>  <r_i_glide_ecoul>  (115) 
-2.34739

>  <r_i_glide_erotb>  (115) 
0.0606024

>  <r_i_glide_esite>  (115) 
-0.0587301

>  <r_i_glide_emodel>  (115) 
-34.3332

>  <r_i_glide_energy>  (115) 
-30.8707

>  <r_i_glide_einternal>  (115) 
0.515998

>  <r_i_glide_intrahb_reward>  (115) 
-0

>  <i_i_glide_confnum>  (115) 
1

>  <i_i_glide_posenum>  (115) 
15

>  <r_i_glide_eff_state_penalty>  (115) 
0

>  <ligand_id>  (115) 
41

>  <original_smiles>  (115) 
COC(=O)C1(C)CCC2(C)C(C)(C1)C1CCC3C45CC(C)CC3(C)C3(Oc6cccc7c(c([nH]c67)C3O4)C1)C2(C)CC5O

>  <smiles>  (115) 
[H]OC1([H])C([H])([H])C2(C([H])([H])[H])C34Oc5c([H])c([H])c([H])c6c7c(n([H])c56)C3([H])OC13C([H])([H])C([H])(C([H])([H])[H])C([H])([H])C4(C([H])([H])[H])C3([H])C([H])([H])C([H])([H])C([H])(C7([H])[H])C1(C([H])([H])[H])C([H])([H])C(C(=O)OC([H])([H])[H])(C([H])([H])[H])C([H])([H])C([H])([H])C12C([H])([H])[H]

$$$$
42:0:0
     RDKit          3D

 60 66  0  0  1  0  0  0  0  0999 V2000
    8.2429   -4.0299   -0.0641 C   0  0  0  0  0  0  0  0  0  0  0  0
    6.7351   -3.9123    0.2572 C   0  0  2  0  0  0  0  0  0  0  0  0
    6.3057   -2.3260    0.4166 C   0  0  0  0  0  0  0  0  0  0  0  0
    5.0013   -1.7003    1.2732 C   0  0  2  0  0  0  0  0  0  0  0  0
    5.1309   -0.3101    1.0787 O   0  0  0  0  0  0  0  0  0  0  0  0
    5.1158   -1.9702    2.6412 O   0  0  0  0  0  0  0  0  0  0  0  0
    5.1721   -3.3423    3.0093 C   0  0  2  0  0  0  0  0  0  0  0  0
    5.0783   -4.1821    1.7465 C   0  0  1  0  0  0  0  0  0  0  0  0
    6.3787   -4.7765    1.5209 C   0  0  1  0  0  0  0  0  0  0  0  0
    6.1249   -6.2430    1.8633 C   0  0  1  0  0  0  0  0  0  0  0  0
    7.2534   -7.2999    1.9092 C   0  0  1  0  0  0  0  0  0  0  0  0
    7.6345   -7.2773    3.2859 O   0  0  0  0  0  0  0  0  0  0  0  0
    6.3803   -7.5317    3.9341 C   0  0  2  0  0  0  0  0  0  0  0  0
    6.5509   -7.6204    5.4572 C   0  0  0  0  0  0  0  0  0  0  0  0
    5.9800   -8.8821    3.2680 C   0  0  1  0  0  0  0  0  0  0  0  0
    4.4922   -9.2776    3.2834 C   0  0  0  0  0  0  0  0  0  0  0  0
    6.5451   -8.6385    1.8838 C   0  0  0  0  0  0  0  0  0  0  0  0
    6.4556   -9.3942    0.9204 O   0  0  0  0  0  0  0  0  0  0  0  0
    5.7548   -6.2192    3.4033 C   0  0  2  0  0  0  0  0  0  0  0  0
    4.4733   -5.7095    3.8784 O   0  0  0  0  0  0  0  0  0  0  0  0
    4.0779   -4.3389    3.4960 C   0  0  1  0  0  0  0  0  0  0  0  0
    2.9895   -3.7212    4.1738 O   0  0  0  0  0  0  0  0  0  0  0  0
    2.3095   -2.8082    3.3228 C   0  0  1  0  0  0  0  0  0  0  0  0
    0.8184   -3.0341    3.5802 C   0  0  0  0  0  0  0  0  0  0  0  0
    2.5996   -1.4670    3.6767 O   0  0  0  0  0  0  0  0  0  0  0  0
    2.7470   -3.1877    1.8448 C   0  0  1  0  0  0  0  0  0  0  0  0
    3.4536   -2.0410    0.9471 C   0  0  1  0  0  0  0  0  0  0  0  0
    2.6170   -0.8773    0.9300 O   0  0  0  0  0  0  0  0  0  0  0  0
    3.6106   -4.4340    2.0955 C   0  0  1  0  0  0  0  0  0  0  0  0
    2.8548   -5.6743    1.5911 C   0  0  0  0  0  0  0  0  0  0  0  0
    8.8530   -3.6213    0.7420 H   0  0  0  0  0  0  0  0  0  0  0  0
    8.4968   -3.4831   -0.9718 H   0  0  0  0  0  0  0  0  0  0  0  0
    8.5399   -5.0671   -0.2036 H   0  0  0  0  0  0  0  0  0  0  0  0
    6.2016   -4.3217   -0.6077 H   0  0  0  0  0  0  0  0  0  0  0  0
    7.1786   -1.7893    0.7993 H   0  0  0  0  0  0  0  0  0  0  0  0
    6.1937   -1.9451   -0.5971 H   0  0  0  0  0  0  0  0  0  0  0  0
    4.3038    0.0565    1.3603 H   0  0  0  0  0  0  0  0  0  0  0  0
    6.0264   -3.4689    3.6611 H   0  0  0  0  0  0  0  0  0  0  0  0
    4.6388   -4.0211    0.7659 H   0  0  0  0  0  0  0  0  0  0  0  0
    7.1515   -4.4505    2.2153 H   0  0  0  0  0  0  0  0  0  0  0  0
    5.3082   -6.6207    1.2508 H   0  0  0  0  0  0  0  0  0  0  0  0
    8.0560   -7.2006    1.1795 H   0  0  0  0  0  0  0  0  0  0  0  0
    5.5936   -7.7546    5.9629 H   0  0  0  0  0  0  0  0  0  0  0  0
    7.0117   -6.7177    5.8551 H   0  0  0  0  0  0  0  0  0  0  0  0
    7.1880   -8.4612    5.7352 H   0  0  0  0  0  0  0  0  0  0  0  0
    6.5543   -9.6985    3.6981 H   0  0  0  0  0  0  0  0  0  0  0  0
    4.3457  -10.2526    2.8057 H   0  0  0  0  0  0  0  0  0  0  0  0
    3.8770   -8.5656    2.7385 H   0  0  0  0  0  0  0  0  0  0  0  0
    4.1068   -9.3533    4.3013 H   0  0  0  0  0  0  0  0  0  0  0  0
    6.4381   -5.5205    3.8883 H   0  0  0  0  0  0  0  0  0  0  0  0
    0.6015   -2.8502    4.6310 H   0  0  0  0  0  0  0  0  0  0  0  0
    0.5453   -4.0645    3.3576 H   0  0  0  0  0  0  0  0  0  0  0  0
    0.2146   -2.3466    2.9834 H   0  0  0  0  0  0  0  0  0  0  0  0
    2.3409   -0.8967    2.9588 H   0  0  0  0  0  0  0  0  0  0  0  0
    1.8529   -3.4956    1.3013 H   0  0  0  0  0  0  0  0  0  0  0  0
    3.4457   -2.3548   -0.0911 H   0  0  0  0  0  0  0  0  0  0  0  0
    1.9461   -0.9742    0.2519 H   0  0  0  0  0  0  0  0  0  0  0  0
    1.8367   -5.6684    1.9620 H   0  0  0  0  0  0  0  0  0  0  0  0
    3.2795   -6.6018    1.9589 H   0  0  0  0  0  0  0  0  0  0  0  0
    2.8274   -5.7260    0.5043 H   0  0  0  0  0  0  0  0  0  0  0  0
  1  2  1  0
  1 31  1  0
  1 32  1  0
  1 33  1  0
  2  9  1  0
  2  3  1  0
  2 34  1  6
  3  4  1  0
  3 35  1  0
  3 36  1  0
  4 27  1  0
  4  5  1  1
  4  6  1  0
  5 37  1  0
  6  7  1  0
  7 21  1  0
  7  8  1  0
  7 38  1  1
  8 29  1  0
  8  9  1  0
  8 39  1  6
  9 10  1  0
  9 40  1  1
 10 19  1  0
 10 11  1  0
 10 41  1  6
 11 17  1  0
 11 12  1  0
 11 42  1  6
 12 13  1  0
 13 14  1  1
 13 15  1  0
 13 19  1  0
 14 43  1  0
 14 44  1  0
 14 45  1  0
 15 16  1  0
 15 17  1  0
 15 46  1  1
 16 47  1  0
 16 48  1  0
 16 49  1  0
 17 18  2  0
 19 20  1  0
 19 50  1  1
 21 20  1  1
 21 29  1  0
 21 22  1  0
 22 23  1  0
 23 24  1  0
 23 25  1  1
 23 26  1  0
 24 51  1  0
 24 52  1  0
 24 53  1  0
 25 54  1  0
 26 27  1  0
 26 29  1  0
 26 55  1  6
 27 28  1  0
 27 56  1  6
 28 57  1  0
 29 30  1  1
 30 58  1  0
 30 59  1  0
 30 60  1  0
M  END
>  <i_m_ct_stereo_status>  (116) 
1

>  <s_m_source_file>  (116) 
/var/tmp/pbs.5076255.sched01/tmpaqd8m8vp/41rn73ajce.sdf

>  <i_m_source_file_index>  (116) 
16

>  <i_lp_mmshare_version>  (116) 
48012

>  <i_f3d_flags>  (116) 
0

>  <s_epik_input>  (116) 
TzFbQ0BAXShbQ0gzXSkoW09IXSlbQ0BIXShbQ0BAXTIzW0NIM10pW0NAQEhdKFtPSF0pW0NAXShPNCkoW09IXSlbQ0gyXVtDQEBIXShbQ0gzXSlbQ0BASF0oW0NAQEhdMltDQEBIXTRbQ0BAXTEzNSlbQ0BIXTZbQ0BIXTdPW0NAQF0oW0NIM10pKFtDQEBIXTZPNSlbQ0BASF0oW0NIM10pQzc9Tw==

>  <s_epik_cmdline>  (116) 
J2VwaWtfcHl0aG9uJywgJy1waHQnLCAnMi4wJywgJy1waCcsICc3LjAnLCAnLXRuJywgJzgnLCAnLW1hJywgJzIwMCcsICctaW1hZScsICc8aW5maWxlLm1hZT4nLCAnLW9tYWUnLCAnPG91dGZpbGUubWFlPic=

>  <r_lp_tautomer_probability>  (116) 
1

>  <r_epik_Ionization_Penalty>  (116) 
4.81349e-06

>  <r_epik_Ionization_Penalty_Charging>  (116) 
0

>  <r_epik_Ionization_Penalty_Neutral>  (116) 
4.81349e-06

>  <r_epik_State_Penalty>  (116) 
-0

>  <r_epik_Charging_Adjusted_Penalty>  (116) 
0

>  <i_epik_Tot_Q>  (116) 
0

>  <i_epik_Tot_abs_Q>  (116) 
0

>  <s_lp_Force_Field>  (116) 
OPLS3e

>  <r_lp_Energy>  (116) 
214.039

>  <b_lp_Chiralities_Consistent>  (116) 
1

>  <s_lp_Variant>  (116) 
42:0-1

>  <s_i_glide_gridfile>  (116) 
pfpi4k_grid

>  <i_i_glide_lignum>  (116) 
16

>  <i_i_glide_rotatable_bonds>  (116) 
3

>  <r_i_docking_score>  (116) 
-3.74663

>  <r_i_glide_ligand_efficiency>  (116) 
-0.124888

>  <r_i_glide_ligand_efficiency_sa>  (116) 
-0.388055

>  <r_i_glide_ligand_efficiency_ln>  (116) 
-0.851276

>  <r_i_glide_gscore>  (116) 
-3.74663

>  <r_i_glide_lipo>  (116) 
-0.577617

>  <r_i_glide_hbond>  (116) 
0

>  <r_i_glide_metal>  (116) 
-0

>  <r_i_glide_rewards>  (116) 
-1.23144

>  <r_i_glide_evdw>  (116) 
-16.9512

>  <r_i_glide_ecoul>  (116) 
-7.26678

>  <r_i_glide_erotb>  (116) 
0

>  <r_i_glide_esite>  (116) 
0

>  <r_i_glide_emodel>  (116) 
-33.0526

>  <r_i_glide_energy>  (116) 
-24.218

>  <r_i_glide_einternal>  (116) 
2.52704

>  <r_i_glide_intrahb_reward>  (116) 
-0.5

>  <i_i_glide_confnum>  (116) 
1

>  <i_i_glide_posenum>  (116) 
32

>  <r_i_glide_eff_state_penalty>  (116) 
0

>  <ligand_id>  (116) 
42

>  <original_smiles>  (116) 
CC1CC2(O)OC3C4C1C1C5OC(C)(C(C)C5=O)C1OC31OC(C)(O)C(C2O)C41C

>  <smiles>  (116) 
[H]OC1([H])C2(O[H])OC3([H])C45OC6([H])C([H])(C7([H])OC6(C([H])([H])[H])C([H])(C([H])([H])[H])C7=O)C([H])(C([H])(C([H])([H])[H])C2([H])[H])C3([H])C4(C([H])([H])[H])C1([H])C(O[H])(C([H])([H])[H])O5

$$$$
42:0:1
     RDKit          3D

 60 66  0  0  1  0  0  0  0  0999 V2000
    0.7913   -5.0486   -1.1137 C   0  0  0  0  0  0  0  0  0  0  0  0
    2.0252   -4.2419   -0.7027 C   0  0  2  0  0  0  0  0  0  0  0  0
    2.5709   -3.3971   -2.0015 C   0  0  0  0  0  0  0  0  0  0  0  0
    4.1174   -2.7934   -2.2116 C   0  0  2  0  0  0  0  0  0  0  0  0
    4.0506   -2.2027   -3.4877 O   0  0  0  0  0  0  0  0  0  0  0  0
    5.0771   -3.8176   -2.2509 O   0  0  0  0  0  0  0  0  0  0  0  0
    5.1330   -4.6577   -1.1021 C   0  0  2  0  0  0  0  0  0  0  0  0
    4.1495   -4.1494   -0.0695 C   0  0  1  0  0  0  0  0  0  0  0  0
    3.0950   -5.1274    0.0226 C   0  0  1  0  0  0  0  0  0  0  0  0
    3.3405   -5.7648    1.3823 C   0  0  1  0  0  0  0  0  0  0  0  0
    2.5397   -6.9836    1.8857 C   0  0  1  0  0  0  0  0  0  0  0  0
    3.3472   -8.0826    1.4615 O   0  0  0  0  0  0  0  0  0  0  0  0
    4.6112   -7.7495    2.0590 C   0  0  2  0  0  0  0  0  0  0  0  0
    5.6575   -8.8422    1.7895 C   0  0  0  0  0  0  0  0  0  0  0  0
    4.2038   -7.6208    3.5562 C   0  0  1  0  0  0  0  0  0  0  0  0
    5.1172   -6.7929    4.4813 C   0  0  0  0  0  0  0  0  0  0  0  0
    2.8280   -7.0379    3.3639 C   0  0  0  0  0  0  0  0  0  0  0  0
    2.0658   -6.6567    4.2600 O   0  0  0  0  0  0  0  0  0  0  0  0
    4.7450   -6.4694    1.2113 C   0  0  2  0  0  0  0  0  0  0  0  0
    5.9812   -5.6939    1.1551 O   0  0  0  0  0  0  0  0  0  0  0  0
    6.0922   -4.6373    0.1363 C   0  0  1  0  0  0  0  0  0  0  0  0
    7.3613   -4.0530   -0.1025 O   0  0  0  0  0  0  0  0  0  0  0  0
    7.2301   -2.7179   -0.5384 C   0  0  1  0  0  0  0  0  0  0  0  0
    8.3727   -1.9648    0.1577 C   0  0  0  0  0  0  0  0  0  0  0  0
    7.4322   -2.6386   -1.9174 O   0  0  0  0  0  0  0  0  0  0  0  0
    5.7925   -2.2411   -0.0749 C   0  0  1  0  0  0  0  0  0  0  0  0
    4.7730   -1.7037   -1.2112 C   0  0  1  0  0  0  0  0  0  0  0  0
    5.4026   -0.6577   -1.9067 O   0  0  0  0  0  0  0  0  0  0  0  0
    5.3043   -3.4962    0.6622 C   0  0  1  0  0  0  0  0  0  0  0  0
    5.2685   -3.1764    2.1572 C   0  0  0  0  0  0  0  0  0  0  0  0
    1.0021   -5.7718   -1.8935 H   0  0  0  0  0  0  0  0  0  0  0  0
    0.0421   -4.3709   -1.5336 H   0  0  0  0  0  0  0  0  0  0  0  0
    0.3880   -5.6538   -0.3106 H   0  0  0  0  0  0  0  0  0  0  0  0
    1.7333   -3.4782    0.0149 H   0  0  0  0  0  0  0  0  0  0  0  0
    2.3197   -3.9500   -2.9097 H   0  0  0  0  0  0  0  0  0  0  0  0
    1.8951   -2.5489   -2.0932 H   0  0  0  0  0  0  0  0  0  0  0  0
    3.1400   -2.0141   -3.6630 H   0  0  0  0  0  0  0  0  0  0  0  0
    5.0204   -5.6750   -1.4493 H   0  0  0  0  0  0  0  0  0  0  0  0
    3.6991   -3.1875    0.1428 H   0  0  0  0  0  0  0  0  0  0  0  0
    3.1997   -5.9597   -0.6547 H   0  0  0  0  0  0  0  0  0  0  0  0
    3.3499   -4.9930    2.1521 H   0  0  0  0  0  0  0  0  0  0  0  0
    1.4803   -7.0315    1.6237 H   0  0  0  0  0  0  0  0  0  0  0  0
    6.6380   -8.5678    2.1815 H   0  0  0  0  0  0  0  0  0  0  0  0
    5.7663   -9.0315    0.7234 H   0  0  0  0  0  0  0  0  0  0  0  0
    5.3680   -9.7858    2.2535 H   0  0  0  0  0  0  0  0  0  0  0  0
    4.0763   -8.6097    3.9963 H   0  0  0  0  0  0  0  0  0  0  0  0
    4.7357   -6.8008    5.5060 H   0  0  0  0  0  0  0  0  0  0  0  0
    5.1690   -5.7526    4.1698 H   0  0  0  0  0  0  0  0  0  0  0  0
    6.1319   -7.1945    4.5051 H   0  0  0  0  0  0  0  0  0  0  0  0
    4.7692   -6.9409    0.2277 H   0  0  0  0  0  0  0  0  0  0  0  0
    9.3437   -2.3916   -0.1083 H   0  0  0  0  0  0  0  0  0  0  0  0
    8.2119   -2.0623    1.2170 H   0  0  0  0  0  0  0  0  0  0  0  0
    8.3979   -0.8976   -0.0249 H   0  0  0  0  0  0  0  0  0  0  0  0
    6.7615   -3.1569   -2.3632 H   0  0  0  0  0  0  0  0  0  0  0  0
    5.9351   -1.4220    0.6352 H   0  0  0  0  0  0  0  0  0  0  0  0
    3.9366   -1.1825   -0.7431 H   0  0  0  0  0  0  0  0  0  0  0  0
    5.1551    0.1656   -1.5160 H   0  0  0  0  0  0  0  0  0  0  0  0
    6.1998   -2.7083    2.4709 H   0  0  0  0  0  0  0  0  0  0  0  0
    5.1814   -4.0612    2.7708 H   0  0  0  0  0  0  0  0  0  0  0  0
    4.4524   -2.5029    2.4197 H   0  0  0  0  0  0  0  0  0  0  0  0
  1  2  1  0
  1 31  1  0
  1 32  1  0
  1 33  1  0
  2  9  1  0
  2  3  1  0
  2 34  1  1
  3  4  1  0
  3 35  1  0
  3 36  1  0
  4 27  1  0
  4  5  1  6
  4  6  1  0
  5 37  1  0
  6  7  1  0
  7 21  1  0
  7  8  1  0
  7 38  1  6
  8 29  1  0
  8  9  1  0
  8 39  1  6
  9 10  1  0
  9 40  1  6
 10 19  1  0
 10 11  1  0
 10 41  1  1
 11 17  1  0
 11 12  1  0
 11 42  1  1
 12 13  1  0
 13 14  1  1
 13 15  1  0
 13 19  1  0
 14 43  1  0
 14 44  1  0
 14 45  1  0
 15 16  1  0
 15 17  1  0
 15 46  1  1
 16 47  1  0
 16 48  1  0
 16 49  1  0
 17 18  2  0
 19 20  1  0
 19 50  1  6
 21 20  1  1
 21 29  1  0
 21 22  1  0
 22 23  1  0
 23 24  1  0
 23 25  1  6
 23 26  1  0
 24 51  1  0
 24 52  1  0
 24 53  1  0
 25 54  1  0
 26 27  1  0
 26 29  1  0
 26 55  1  1
 27 28  1  0
 27 56  1  1
 28 57  1  0
 29 30  1  1
 30 58  1  0
 30 59  1  0
 30 60  1  0
M  END
>  <i_m_ct_stereo_status>  (117) 
1

>  <s_m_source_file>  (117) 
/var/tmp/pbs.5076255.sched01/tmpaqd8m8vp/41rn73ajce.sdf

>  <i_m_source_file_index>  (117) 
16

>  <i_lp_mmshare_version>  (117) 
48012

>  <i_f3d_flags>  (117) 
0

>  <s_epik_input>  (117) 
TzFbQ0BAXShbQ0gzXSkoW09IXSlbQ0BIXShbQ0BAXTIzW0NIM10pW0NAQEhdKFtPSF0pW0NAXShPNCkoW09IXSlbQ0gyXVtDQEBIXShbQ0gzXSlbQ0BASF0oW0NAQEhdMltDQEBIXTRbQ0BAXTEzNSlbQ0BIXTZbQ0BIXTdPW0NAQF0oW0NIM10pKFtDQEBIXTZPNSlbQ0BASF0oW0NIM10pQzc9Tw==

>  <s_epik_cmdline>  (117) 
J2VwaWtfcHl0aG9uJywgJy1waHQnLCAnMi4wJywgJy1waCcsICc3LjAnLCAnLXRuJywgJzgnLCAnLW1hJywgJzIwMCcsICctaW1hZScsICc8aW5maWxlLm1hZT4nLCAnLW9tYWUnLCAnPG91dGZpbGUubWFlPic=

>  <r_lp_tautomer_probability>  (117) 
1

>  <r_epik_Ionization_Penalty>  (117) 
4.81349e-06

>  <r_epik_Ionization_Penalty_Charging>  (117) 
0

>  <r_epik_Ionization_Penalty_Neutral>  (117) 
4.81349e-06

>  <r_epik_State_Penalty>  (117) 
-0

>  <r_epik_Charging_Adjusted_Penalty>  (117) 
0

>  <i_epik_Tot_Q>  (117) 
0

>  <i_epik_Tot_abs_Q>  (117) 
0

>  <s_lp_Force_Field>  (117) 
OPLS3e

>  <r_lp_Energy>  (117) 
214.039

>  <b_lp_Chiralities_Consistent>  (117) 
1

>  <s_lp_Variant>  (117) 
42:0-1

>  <s_i_glide_gridfile>  (117) 
pfpi4k_grid

>  <i_i_glide_lignum>  (117) 
16

>  <i_i_glide_rotatable_bonds>  (117) 
3

>  <r_i_docking_score>  (117) 
-3.32084

>  <r_i_glide_ligand_efficiency>  (117) 
-0.110695

>  <r_i_glide_ligand_efficiency_sa>  (117) 
-0.343954

>  <r_i_glide_ligand_efficiency_ln>  (117) 
-0.754532

>  <r_i_glide_gscore>  (117) 
-3.32084

>  <r_i_glide_lipo>  (117) 
-0.368491

>  <r_i_glide_hbond>  (117) 
0

>  <r_i_glide_metal>  (117) 
-0

>  <r_i_glide_rewards>  (117) 
-1.14332

>  <r_i_glide_evdw>  (117) 
-16.0244

>  <r_i_glide_ecoul>  (117) 
-6.60324

>  <r_i_glide_erotb>  (117) 
0

>  <r_i_glide_esite>  (117) 
-0.017329

>  <r_i_glide_emodel>  (117) 
-30.3888

>  <r_i_glide_energy>  (117) 
-22.6276

>  <r_i_glide_einternal>  (117) 
3.14507

>  <r_i_glide_intrahb_reward>  (117) 
-0.5

>  <i_i_glide_confnum>  (117) 
1

>  <i_i_glide_posenum>  (117) 
5

>  <r_i_glide_eff_state_penalty>  (117) 
0

>  <ligand_id>  (117) 
42

>  <original_smiles>  (117) 
CC1CC2(O)OC3C4C1C1C5OC(C)(C(C)C5=O)C1OC31OC(C)(O)C(C2O)C41C

>  <smiles>  (117) 
[H]OC1([H])C2(O[H])OC3([H])C45OC6([H])C([H])(C7([H])OC6(C([H])([H])[H])C([H])(C([H])([H])[H])C7=O)C([H])(C([H])(C([H])([H])[H])C2([H])[H])C3([H])C4(C([H])([H])[H])C1([H])C(O[H])(C([H])([H])[H])O5

$$$$
42:0:2
     RDKit          3D

 60 66  0  0  1  0  0  0  0  0999 V2000
    0.7942   -5.0602   -1.1199 C   0  0  0  0  0  0  0  0  0  0  0  0
    2.0256   -4.2505   -0.6979 C   0  0  2  0  0  0  0  0  0  0  0  0
    2.5670   -3.3933   -1.9992 C   0  0  0  0  0  0  0  0  0  0  0  0
    4.1109   -2.7915   -2.2067 C   0  0  2  0  0  0  0  0  0  0  0  0
    4.0497   -2.1872   -3.4846 O   0  0  0  0  0  0  0  0  0  0  0  0
    5.0670   -3.8136   -2.2516 O   0  0  0  0  0  0  0  0  0  0  0  0
    5.1294   -4.6710   -1.1168 C   0  0  2  0  0  0  0  0  0  0  0  0
    4.1543   -4.1666   -0.0741 C   0  0  1  0  0  0  0  0  0  0  0  0
    3.1006   -5.1443    0.0081 C   0  0  1  0  0  0  0  0  0  0  0  0
    3.3443   -5.8043    1.3628 C   0  0  1  0  0  0  0  0  0  0  0  0
    2.5412   -7.0296    1.8538 C   0  0  1  0  0  0  0  0  0  0  0  0
    3.3463   -8.1257    1.4188 O   0  0  0  0  0  0  0  0  0  0  0  0
    4.6105   -7.7950    2.0140 C   0  0  2  0  0  0  0  0  0  0  0  0
    5.6541   -8.8877    1.7295 C   0  0  0  0  0  0  0  0  0  0  0  0
    4.2010   -7.6851    3.5110 C   0  0  1  0  0  0  0  0  0  0  0  0
    5.1153   -6.8666    4.4422 C   0  0  0  0  0  0  0  0  0  0  0  0
    2.8131   -7.1006    3.3427 C   0  0  0  0  0  0  0  0  0  0  0  0
    2.0646   -6.7214    4.2331 O   0  0  0  0  0  0  0  0  0  0  0  0
    4.7472   -6.5056    1.1781 C   0  0  2  0  0  0  0  0  0  0  0  0
    5.9865   -5.7362    1.1225 O   0  0  0  0  0  0  0  0  0  0  0  0
    6.0895   -4.6620    0.1232 C   0  0  1  0  0  0  0  0  0  0  0  0
    7.3665   -4.0802   -0.1091 O   0  0  0  0  0  0  0  0  0  0  0  0
    7.2357   -2.7403   -0.5415 C   0  0  1  0  0  0  0  0  0  0  0  0
    8.3727   -1.9893    0.1676 C   0  0  0  0  0  0  0  0  0  0  0  0
    7.4312   -2.6418   -1.9238 O   0  0  0  0  0  0  0  0  0  0  0  0
    5.7993   -2.2683   -0.0717 C   0  0  1  0  0  0  0  0  0  0  0  0
    4.7794   -1.7133   -1.2034 C   0  0  1  0  0  0  0  0  0  0  0  0
    5.4054   -0.6456   -1.8763 O   0  0  0  0  0  0  0  0  0  0  0  0
    5.3116   -3.5212    0.6613 C   0  0  1  0  0  0  0  0  0  0  0  0
    5.2718   -3.2249    2.1657 C   0  0  0  0  0  0  0  0  0  0  0  0
    1.0150   -5.7617   -1.9096 H   0  0  0  0  0  0  0  0  0  0  0  0
    0.0402   -4.3785   -1.5111 H   0  0  0  0  0  0  0  0  0  0  0  0
    0.3867   -5.6714   -0.3148 H   0  0  0  0  0  0  0  0  0  0  0  0
    1.7256   -3.4950    0.0263 H   0  0  0  0  0  0  0  0  0  0  0  0
    2.3222   -3.9440   -2.9088 H   0  0  0  0  0  0  0  0  0  0  0  0
    1.8927   -2.5446   -2.0821 H   0  0  0  0  0  0  0  0  0  0  0  0
    3.2915   -1.6227   -3.4858 H   0  0  0  0  0  0  0  0  0  0  0  0
    5.0235   -5.6899   -1.4849 H   0  0  0  0  0  0  0  0  0  0  0  0
    3.7004   -3.2039    0.1457 H   0  0  0  0  0  0  0  0  0  0  0  0
    3.1880   -5.9749   -0.6823 H   0  0  0  0  0  0  0  0  0  0  0  0
    3.3485   -5.0371    2.1383 H   0  0  0  0  0  0  0  0  0  0  0  0
    1.4825   -7.0689    1.5888 H   0  0  0  0  0  0  0  0  0  0  0  0
    6.6340   -8.6170    2.1255 H   0  0  0  0  0  0  0  0  0  0  0  0
    5.7611   -9.0632    0.6594 H   0  0  0  0  0  0  0  0  0  0  0  0
    5.3621   -9.8364    2.1852 H   0  0  0  0  0  0  0  0  0  0  0  0
    4.0760   -8.6789    3.9395 H   0  0  0  0  0  0  0  0  0  0  0  0
    4.7399   -6.8850    5.4670 H   0  0  0  0  0  0  0  0  0  0  0  0
    5.1726   -5.8234    4.1449 H   0  0  0  0  0  0  0  0  0  0  0  0
    6.1306   -7.2677    4.4636 H   0  0  0  0  0  0  0  0  0  0  0  0
    4.7720   -6.9654    0.1898 H   0  0  0  0  0  0  0  0  0  0  0  0
    9.3409   -2.4179   -0.1032 H   0  0  0  0  0  0  0  0  0  0  0  0
    8.2135   -2.1048    1.2293 H   0  0  0  0  0  0  0  0  0  0  0  0
    8.3918   -0.9205   -0.0160 H   0  0  0  0  0  0  0  0  0  0  0  0
    6.7587   -3.1570   -2.3659 H   0  0  0  0  0  0  0  0  0  0  0  0
    5.9349   -1.4535    0.6401 H   0  0  0  0  0  0  0  0  0  0  0  0
    3.9493   -1.2019   -0.7112 H   0  0  0  0  0  0  0  0  0  0  0  0
    4.7239   -0.0619   -2.1815 H   0  0  0  0  0  0  0  0  0  0  0  0
    6.2077   -2.7580    2.4782 H   0  0  0  0  0  0  0  0  0  0  0  0
    5.1821   -4.1217    2.7685 H   0  0  0  0  0  0  0  0  0  0  0  0
    4.4540   -2.5514    2.4293 H   0  0  0  0  0  0  0  0  0  0  0  0
  1  2  1  0
  1 31  1  0
  1 32  1  0
  1 33  1  0
  2  9  1  0
  2  3  1  0
  2 34  1  1
  3  4  1  0
  3 35  1  0
  3 36  1  0
  4 27  1  0
  4  5  1  6
  4  6  1  0
  5 37  1  0
  6  7  1  0
  7 21  1  0
  7  8  1  0
  7 38  1  6
  8 29  1  0
  8  9  1  0
  8 39  1  6
  9 10  1  0
  9 40  1  6
 10 19  1  0
 10 11  1  0
 10 41  1  1
 11 17  1  0
 11 12  1  0
 11 42  1  1
 12 13  1  0
 13 14  1  1
 13 15  1  0
 13 19  1  0
 14 43  1  0
 14 44  1  0
 14 45  1  0
 15 16  1  0
 15 17  1  0
 15 46  1  1
 16 47  1  0
 16 48  1  0
 16 49  1  0
 17 18  2  0
 19 20  1  0
 19 50  1  6
 21 20  1  1
 21 29  1  0
 21 22  1  0
 22 23  1  0
 23 24  1  0
 23 25  1  6
 23 26  1  0
 24 51  1  0
 24 52  1  0
 24 53  1  0
 25 54  1  0
 26 27  1  0
 26 29  1  0
 26 55  1  1
 27 28  1  0
 27 56  1  1
 28 57  1  0
 29 30  1  1
 30 58  1  0
 30 59  1  0
 30 60  1  0
M  END
>  <i_m_ct_stereo_status>  (118) 
1

>  <s_m_source_file>  (118) 
/var/tmp/pbs.5076255.sched01/tmpaqd8m8vp/41rn73ajce.sdf

>  <i_m_source_file_index>  (118) 
16

>  <i_lp_mmshare_version>  (118) 
48012

>  <i_f3d_flags>  (118) 
0

>  <s_epik_input>  (118) 
TzFbQ0BAXShbQ0gzXSkoW09IXSlbQ0BIXShbQ0BAXTIzW0NIM10pW0NAQEhdKFtPSF0pW0NAXShPNCkoW09IXSlbQ0gyXVtDQEBIXShbQ0gzXSlbQ0BASF0oW0NAQEhdMltDQEBIXTRbQ0BAXTEzNSlbQ0BIXTZbQ0BIXTdPW0NAQF0oW0NIM10pKFtDQEBIXTZPNSlbQ0BASF0oW0NIM10pQzc9Tw==

>  <s_epik_cmdline>  (118) 
J2VwaWtfcHl0aG9uJywgJy1waHQnLCAnMi4wJywgJy1waCcsICc3LjAnLCAnLXRuJywgJzgnLCAnLW1hJywgJzIwMCcsICctaW1hZScsICc8aW5maWxlLm1hZT4nLCAnLW9tYWUnLCAnPG91dGZpbGUubWFlPic=

>  <r_lp_tautomer_probability>  (118) 
1

>  <r_epik_Ionization_Penalty>  (118) 
4.81349e-06

>  <r_epik_Ionization_Penalty_Charging>  (118) 
0

>  <r_epik_Ionization_Penalty_Neutral>  (118) 
4.81349e-06

>  <r_epik_State_Penalty>  (118) 
-0

>  <r_epik_Charging_Adjusted_Penalty>  (118) 
0

>  <i_epik_Tot_Q>  (118) 
0

>  <i_epik_Tot_abs_Q>  (118) 
0

>  <s_lp_Force_Field>  (118) 
OPLS3e

>  <r_lp_Energy>  (118) 
214.039

>  <b_lp_Chiralities_Consistent>  (118) 
1

>  <s_lp_Variant>  (118) 
42:0-1

>  <s_i_glide_gridfile>  (118) 
pfpi4k_grid

>  <i_i_glide_lignum>  (118) 
16

>  <i_i_glide_rotatable_bonds>  (118) 
3

>  <r_i_docking_score>  (118) 
-3.04275

>  <r_i_glide_ligand_efficiency>  (118) 
-0.101425

>  <r_i_glide_ligand_efficiency_sa>  (118) 
-0.315151

>  <r_i_glide_ligand_efficiency_ln>  (118) 
-0.691347

>  <r_i_glide_gscore>  (118) 
-3.04275

>  <r_i_glide_lipo>  (118) 
-0.372261

>  <r_i_glide_hbond>  (118) 
0

>  <r_i_glide_metal>  (118) 
-0

>  <r_i_glide_rewards>  (118) 
-1.14222

>  <r_i_glide_evdw>  (118) 
-15.4184

>  <r_i_glide_ecoul>  (118) 
-4.94434

>  <r_i_glide_erotb>  (118) 
0

>  <r_i_glide_esite>  (118) 
-0.0157028

>  <r_i_glide_emodel>  (118) 
-28.3768

>  <r_i_glide_energy>  (118) 
-20.3627

>  <r_i_glide_einternal>  (118) 
2.49195

>  <r_i_glide_intrahb_reward>  (118) 
-0.5

>  <i_i_glide_confnum>  (118) 
1

>  <i_i_glide_posenum>  (118) 
1

>  <r_i_glide_eff_state_penalty>  (118) 
0

>  <ligand_id>  (118) 
42

>  <original_smiles>  (118) 
CC1CC2(O)OC3C4C1C1C5OC(C)(C(C)C5=O)C1OC31OC(C)(O)C(C2O)C41C

>  <smiles>  (118) 
[H]OC1([H])C2(O[H])OC3([H])C45OC6([H])C([H])(C7([H])OC6(C([H])([H])[H])C([H])(C([H])([H])[H])C7=O)C([H])(C([H])(C([H])([H])[H])C2([H])[H])C3([H])C4(C([H])([H])[H])C1([H])C(O[H])(C([H])([H])[H])O5

$$$$
43:0:0
     RDKit          3D

 71 76  0  0  1  0  0  0  0  0999 V2000
   -0.9440    0.9944    9.0129 C   0  0  0  0  0  0  0  0  0  0  0  0
   -0.3885    0.1703    8.1046 C   0  0  0  0  0  0  0  0  0  0  0  0
   -0.3318    0.2823    6.5641 C   0  0  1  0  0  0  0  0  0  0  0  0
   -0.9946   -1.0658    6.1244 C   0  0  0  0  0  0  0  0  0  0  0  0
   -1.1039    1.5493    6.0294 C   0  0  0  0  0  0  0  0  0  0  0  0
   -0.4493    2.5534    5.0118 C   0  0  2  0  0  0  0  0  0  0  0  0
    1.0650    2.7730    4.5003 C   0  0  1  0  0  0  0  0  0  0  0  0
    1.3096    2.6582    3.0180 C   0  0  0  0  0  0  0  0  0  0  0  0
    0.2579    1.6902    2.5690 C   0  0  1  0  0  0  0  0  0  0  0  0
    0.2807    0.3128    3.4149 C   0  0  0  0  0  0  0  0  0  0  0  0
    1.3948    0.0438    4.5118 C   0  0  0  0  0  0  0  0  0  0  0  0
    2.5677   -0.5126    4.1304 C   0  0  0  0  0  0  0  0  0  0  0  0
    3.0281   -0.8747    2.7221 C   0  0  0  0  0  0  0  0  0  0  0  0
    3.9965    0.1578    2.1215 C   0  0  0  0  0  0  0  0  0  0  0  0
    1.1491    0.3188    6.0762 C   0  0  1  0  0  0  0  0  0  0  0  0
    2.0221    1.3858    6.9442 C   0  0  1  0  0  0  0  0  0  0  0  0
    3.5406    1.5029    6.6496 C   0  0  0  0  0  0  0  0  0  0  0  0
    1.4148    2.7572    7.4927 C   0  0  0  0  0  0  0  0  0  0  0  0
    1.3128    2.8899    8.7093 O   0  0  0  0  0  0  0  0  0  0  0  0
    1.0049    4.0131    6.6392 C   0  0  0  0  0  0  0  0  0  0  0  0
    0.3478    3.7519    5.2935 C   0  0  2  0  0  0  0  0  0  0  0  0
   -0.6382    4.5889    4.5010 C   0  0  1  0  0  0  0  0  0  0  0  0
   -0.1139    5.3505    3.4163 O   0  0  0  0  0  0  0  0  0  0  0  0
    0.9520    6.2164    3.7740 C   0  0  0  0  0  0  0  0  0  0  0  0
   -1.3560    3.2736    4.0208 C   0  0  2  0  0  0  0  0  0  0  0  0
   -2.8765    3.3481    4.2852 C   0  0  0  0  0  0  0  0  0  0  0  0
   -3.6862    3.7292    3.0090 C   0  0  1  0  0  0  0  0  0  0  0  0
   -3.3909    5.0199    2.4867 O   0  0  0  0  0  0  0  0  0  0  0  0
   -3.5194    2.6910    1.8996 C   0  0  0  0  0  0  0  0  0  0  0  0
   -2.2245    1.7769    2.1193 C   0  0  0  0  0  0  0  0  0  0  0  0
   -1.0478    2.5646    2.6467 C   0  0  2  0  0  0  0  0  0  0  0  0
   -1.4400    1.9169    8.7454 H   0  0  0  0  0  0  0  0  0  0  0  0
   -0.8979    0.7261   10.0625 H   0  0  0  0  0  0  0  0  0  0  0  0
    0.0780   -0.7238    8.4908 H   0  0  0  0  0  0  0  0  0  0  0  0
   -0.9081   -1.3480    5.0787 H   0  0  0  0  0  0  0  0  0  0  0  0
   -2.0588   -1.0788    6.3514 H   0  0  0  0  0  0  0  0  0  0  0  0
   -0.5454   -1.9090    6.6537 H   0  0  0  0  0  0  0  0  0  0  0  0
   -2.0000    1.1499    5.5571 H   0  0  0  0  0  0  0  0  0  0  0  0
   -1.4742    2.1922    6.8211 H   0  0  0  0  0  0  0  0  0  0  0  0
    1.9932    2.5261    4.9397 H   0  0  0  0  0  0  0  0  0  0  0  0
    1.2258    3.6176    2.4789 H   0  0  0  0  0  0  0  0  0  0  0  0
    2.3117    2.2763    2.8526 H   0  0  0  0  0  0  0  0  0  0  0  0
    0.4140    1.4432    1.5246 H   0  0  0  0  0  0  0  0  0  0  0  0
   -0.6883    0.1947    3.8561 H   0  0  0  0  0  0  0  0  0  0  0  0
    0.2737   -0.5133    2.7040 H   0  0  0  0  0  0  0  0  0  0  0  0
    3.2962   -0.7323    4.8951 H   0  0  0  0  0  0  0  0  0  0  0  0
    3.5214   -1.8453    2.7881 H   0  0  0  0  0  0  0  0  0  0  0  0
    2.1914   -1.0146    2.0397 H   0  0  0  0  0  0  0  0  0  0  0  0
    4.3454   -0.1730    1.1396 H   0  0  0  0  0  0  0  0  0  0  0  0
    4.8711    0.2926    2.7636 H   0  0  0  0  0  0  0  0  0  0  0  0
    3.5146    1.1193    1.9772 H   0  0  0  0  0  0  0  0  0  0  0  0
    1.5485   -0.6187    6.4748 H   0  0  0  0  0  0  0  0  0  0  0  0
    2.0783    0.8515    7.8922 H   0  0  0  0  0  0  0  0  0  0  0  0
    4.0596    1.9222    7.5118 H   0  0  0  0  0  0  0  0  0  0  0  0
    3.7963    2.1397    5.8053 H   0  0  0  0  0  0  0  0  0  0  0  0
    3.9927    0.5297    6.4755 H   0  0  0  0  0  0  0  0  0  0  0  0
    0.3342    4.6409    7.2174 H   0  0  0  0  0  0  0  0  0  0  0  0
    1.9051    4.5929    6.4538 H   0  0  0  0  0  0  0  0  0  0  0  0
   -1.2406    5.2263    5.1434 H   0  0  0  0  0  0  0  0  0  0  0  0
    1.3198    6.7326    2.8870 H   0  0  0  0  0  0  0  0  0  0  0  0
    1.7982    5.6681    4.1909 H   0  0  0  0  0  0  0  0  0  0  0  0
    0.6098    6.9571    4.4967 H   0  0  0  0  0  0  0  0  0  0  0  0
   -3.2761    2.3865    4.5516 H   0  0  0  0  0  0  0  0  0  0  0  0
   -3.0582    3.9915    5.1486 H   0  0  0  0  0  0  0  0  0  0  0  0
   -4.7528    3.7434    3.2373 H   0  0  0  0  0  0  0  0  0  0  0  0
   -3.8944    5.1748    1.7104 H   0  0  0  0  0  0  0  0  0  0  0  0
   -4.4441    2.1511    1.8013 H   0  0  0  0  0  0  0  0  0  0  0  0
   -3.6033    3.2252    0.9437 H   0  0  0  0  0  0  0  0  0  0  0  0
   -2.1628    0.9493    2.8813 H   0  0  0  0  0  0  0  0  0  0  0  0
   -2.0069    1.3368    1.1632 H   0  0  0  0  0  0  0  0  0  0  0  0
   -0.9935    3.3412    1.9762 H   0  0  0  0  0  0  0  0  0  0  0  0
  1  2  2  0
  1 32  1  0
  1 33  1  0
  2  3  1  0
  2 34  1  0
  3 15  1  0
  3  4  1  6
  3  5  1  0
  4 35  1  0
  4 36  1  0
  4 37  1  0
  6  5  1  1
  5 38  1  0
  5 39  1  0
  6 21  1  0
  6 25  1  0
  6  7  1  0
  7 21  1  0
  7  8  1  0
  7 40  1  1
  8  9  1  0
  8 41  1  0
  8 42  1  0
  9 31  1  0
  9 10  1  0
  9 43  1  6
 10 11  1  0
 10 44  1  0
 10 45  1  0
 11 12  2  3
 11 15  1  0
 12 13  1  0
 12 46  1  0
 13 14  1  0
 13 47  1  0
 13 48  1  0
 14 49  1  0
 14 50  1  0
 14 51  1  0
 15 16  1  0
 15 52  1  1
 16 17  1  0
 16 18  1  0
 16 53  1  1
 17 54  1  0
 17 55  1  0
 17 56  1  0
 18 19  2  0
 18 20  1  0
 21 20  1  1
 20 57  1  0
 20 58  1  0
 21 22  1  0
 22 23  1  0
 22 25  1  0
 22 59  1  1
 23 24  1  0
 24 60  1  0
 24 61  1  0
 24 62  1  0
 25 31  1  0
 25 26  1  1
 26 27  1  0
 26 63  1  0
 26 64  1  0
 27 28  1  0
 27 29  1  0
 27 65  1  1
 28 66  1  0
 29 30  1  0
 29 67  1  0
 29 68  1  0
 30 31  1  0
 30 69  1  0
 30 70  1  0
 31 71  1  6
M  END
>  <i_m_ct_stereo_status>  (119) 
1

>  <s_m_source_file>  (119) 
/var/tmp/pbs.5076255.sched01/tmpaqd8m8vp/41rn73ajce.sdf

>  <i_m_source_file_index>  (119) 
17

>  <i_lp_mmshare_version>  (119) 
48012

>  <i_f3d_flags>  (119) 
2

>  <s_epik_input>  (119) 
W0NIMl09W0NIXVtDQEBdKFtDSDNdKShbQ0gyXTEpW0NASF0oW0NAQEhdKFtDSDNdKUMoPU8pW0NIMl0yKUMoPVtDSF1cW0NIMl1bQ0gzXSlcW0NIMl1bQ0BASF0oW0NIMl1bQ0hdM0MyNFtDQF0xMzUpW0NAQEhdNltDQEBdNShbQ0BASF00T1tDSDNdKVtDSDJdW0NAQEhdKFtPSF0pW0NIMl1bQ0gyXTY=

>  <s_epik_cmdline>  (119) 
J2VwaWtfcHl0aG9uJywgJy1waHQnLCAnMi4wJywgJy1waCcsICc3LjAnLCAnLXRuJywgJzgnLCAnLW1hJywgJzIwMCcsICctaW1hZScsICc8aW5maWxlLm1hZT4nLCAnLW9tYWUnLCAnPG91dGZpbGUubWFlPic=

>  <r_lp_tautomer_probability>  (119) 
1

>  <r_epik_Ionization_Penalty>  (119) 
1.22493e-06

>  <r_epik_Ionization_Penalty_Charging>  (119) 
0

>  <r_epik_Ionization_Penalty_Neutral>  (119) 
1.22493e-06

>  <r_epik_State_Penalty>  (119) 
-0

>  <r_epik_Charging_Adjusted_Penalty>  (119) 
0

>  <i_epik_Tot_Q>  (119) 
0

>  <i_epik_Tot_abs_Q>  (119) 
0

>  <s_lp_Force_Field>  (119) 
OPLS3e

>  <r_lp_Energy>  (119) 
146.458

>  <b_lp_Chiralities_Consistent>  (119) 
0

>  <s_lp_Variant>  (119) 
43:0-1

>  <s_i_glide_gridfile>  (119) 
pfpi4k_grid

>  <i_i_glide_lignum>  (119) 
17

>  <i_i_glide_rotatable_bonds>  (119) 
4

>  <r_i_docking_score>  (119) 
-0.687034

>  <r_i_glide_ligand_efficiency>  (119) 
-0.0221624

>  <r_i_glide_ligand_efficiency_sa>  (119) 
-0.0696205

>  <r_i_glide_ligand_efficiency_ln>  (119) 
-0.154947

>  <r_i_glide_gscore>  (119) 
-0.687034

>  <r_i_glide_lipo>  (119) 
-0.0897048

>  <r_i_glide_hbond>  (119) 
0

>  <r_i_glide_metal>  (119) 
-0

>  <r_i_glide_rewards>  (119) 
-0.513986

>  <r_i_glide_evdw>  (119) 
0.821033

>  <r_i_glide_ecoul>  (119) 
-2.29575

>  <r_i_glide_erotb>  (119) 
0.219968

>  <r_i_glide_esite>  (119) 
0

>  <r_i_glide_emodel>  (119) 
1.98621

>  <r_i_glide_energy>  (119) 
-1.47472

>  <r_i_glide_einternal>  (119) 
2.9617

>  <r_i_glide_intrahb_reward>  (119) 
-0

>  <i_i_glide_confnum>  (119) 
5

>  <i_i_glide_posenum>  (119) 
14

>  <r_i_glide_eff_state_penalty>  (119) 
0

>  <ligand_id>  (119) 
43

>  <original_smiles>  (119) 
C=CC1(C)CC23C4CC5CC(=CCC)C1C(C)C(=O)CC42C(OC)C31CC(O)CCC51

>  <smiles>  (119) 
[H]OC1([H])C([H])([H])C([H])([H])C2([H])C3([H])C([H])([H])C(=C([H])C([H])([H])C([H])([H])[H])C4([H])C([H])(C([H])([H])[H])C(=O)C([H])([H])C56C([H])(OC([H])([H])[H])C2(C1([H])[H])C5(C([H])([H])C4(C([H])=C([H])[H])C([H])([H])[H])C6([H])C3([H])[H]

$$$$
43:1:0
     RDKit          3D

 71 76  0  0  1  0  0  0  0  0999 V2000
    2.5633    1.6647    2.9769 C   0  0  0  0  0  0  0  0  0  0  0  0
    2.3504    0.4252    3.4474 C   0  0  0  0  0  0  0  0  0  0  0  0
    2.3227   -0.9109    2.6848 C   0  0  1  0  0  0  0  0  0  0  0  0
    0.7977   -1.0920    2.5860 C   0  0  0  0  0  0  0  0  0  0  0  0
    3.0454   -0.8407    1.2796 C   0  0  0  0  0  0  0  0  0  0  0  0
    4.0598   -1.9789    0.8493 C   0  0  2  0  0  0  0  0  0  0  0  0
    4.8587   -3.1026    1.6679 C   0  0  1  0  0  0  0  0  0  0  0  0
    4.6908   -4.4970    1.2014 C   0  0  0  0  0  0  0  0  0  0  0  0
    3.3388   -4.4747    0.5545 C   0  0  1  0  0  0  0  0  0  0  0  0
    2.2556   -3.9351    1.5984 C   0  0  0  0  0  0  0  0  0  0  0  0
    2.5725   -3.5528    3.1092 C   0  0  0  0  0  0  0  0  0  0  0  0
    2.3690   -4.5441    4.0044 C   0  0  0  0  0  0  0  0  0  0  0  0
    2.4438   -4.4918    5.5230 C   0  0  0  0  0  0  0  0  0  0  0  0
    3.4019   -5.5529    6.0993 C   0  0  0  0  0  0  0  0  0  0  0  0
    2.8970   -2.0441    3.5726 C   0  0  1  0  0  0  0  0  0  0  0  0
    4.3239   -1.5902    4.1678 C   0  0  1  0  0  0  0  0  0  0  0  0
    5.1119   -2.6246    5.0158 C   0  0  0  0  0  0  0  0  0  0  0  0
    5.2689   -0.6280    3.3671 C   0  0  0  0  0  0  0  0  0  0  0  0
    5.5139    0.4548    3.9072 O   0  0  0  0  0  0  0  0  0  0  0  0
    6.0430   -0.9436    2.0251 C   0  0  0  0  0  0  0  0  0  0  0  0
    5.4641   -1.9601    1.0686 C   0  0  2  0  0  0  0  0  0  0  0  0
    5.7304   -1.9713   -0.4119 C   0  0  1  0  0  0  0  0  0  0  0  0
    6.5182   -3.0589   -0.8931 O   0  0  0  0  0  0  0  0  0  0  0  0
    7.8822   -3.0266   -0.4779 C   0  0  0  0  0  0  0  0  0  0  0  0
    4.1775   -2.1987   -0.6576 C   0  0  2  0  0  0  0  0  0  0  0  0
    3.6011   -1.2060   -1.6826 C   0  0  0  0  0  0  0  0  0  0  0  0
    3.3953   -1.8171   -3.0798 C   0  0  1  0  0  0  0  0  0  0  0  0
    4.6392   -2.1957   -3.6142 O   0  0  0  0  0  0  0  0  0  0  0  0
    2.4984   -3.0604   -3.0782 C   0  0  0  0  0  0  0  0  0  0  0  0
    2.2400   -3.6249   -1.6634 C   0  0  0  0  0  0  0  0  0  0  0  0
    3.5146   -3.6299   -0.7948 C   0  0  2  0  0  0  0  0  0  0  0  0
    2.7394    1.8805    1.9365 H   0  0  0  0  0  0  0  0  0  0  0  0
    2.5545    2.4988    3.6652 H   0  0  0  0  0  0  0  0  0  0  0  0
    2.1614    0.3293    4.5086 H   0  0  0  0  0  0  0  0  0  0  0  0
    0.5446   -2.0893    2.2806 H   0  0  0  0  0  0  0  0  0  0  0  0
    0.3308   -0.3583    1.9233 H   0  0  0  0  0  0  0  0  0  0  0  0
    0.3085   -0.9781    3.5564 H   0  0  0  0  0  0  0  0  0  0  0  0
    2.2209   -0.8494    0.5888 H   0  0  0  0  0  0  0  0  0  0  0  0
    3.5979    0.0776    1.1007 H   0  0  0  0  0  0  0  0  0  0  0  0
    5.2106   -3.1678    2.6690 H   0  0  0  0  0  0  0  0  0  0  0  0
    5.4824   -4.7644    0.4928 H   0  0  0  0  0  0  0  0  0  0  0  0
    4.7266   -5.2142    2.0359 H   0  0  0  0  0  0  0  0  0  0  0  0
    3.0681   -5.4836    0.2457 H   0  0  0  0  0  0  0  0  0  0  0  0
    1.8489   -3.0691    1.1002 H   0  0  0  0  0  0  0  0  0  0  0  0
    1.4592   -4.6843    1.6226 H   0  0  0  0  0  0  0  0  0  0  0  0
    2.0634   -5.5032    3.6181 H   0  0  0  0  0  0  0  0  0  0  0  0
    2.6840   -3.5179    5.9378 H   0  0  0  0  0  0  0  0  0  0  0  0
    1.4206   -4.6969    5.8470 H   0  0  0  0  0  0  0  0  0  0  0  0
    3.4148   -5.4680    7.1864 H   0  0  0  0  0  0  0  0  0  0  0  0
    4.4356   -5.4478    5.7653 H   0  0  0  0  0  0  0  0  0  0  0  0
    3.0884   -6.5610    5.8309 H   0  0  0  0  0  0  0  0  0  0  0  0
    2.2581   -1.9870    4.4594 H   0  0  0  0  0  0  0  0  0  0  0  0
    4.0125   -0.8892    4.9506 H   0  0  0  0  0  0  0  0  0  0  0  0
    6.1910   -2.4976    4.9820 H   0  0  0  0  0  0  0  0  0  0  0  0
    4.9326   -3.6247    4.6448 H   0  0  0  0  0  0  0  0  0  0  0  0
    4.8345   -2.5783    6.0727 H   0  0  0  0  0  0  0  0  0  0  0  0
    6.2514   -0.0645    1.4280 H   0  0  0  0  0  0  0  0  0  0  0  0
    6.9590   -1.3950    2.3581 H   0  0  0  0  0  0  0  0  0  0  0  0
    6.0746   -0.9976   -0.7557 H   0  0  0  0  0  0  0  0  0  0  0  0
    8.4160   -3.8981   -0.8715 H   0  0  0  0  0  0  0  0  0  0  0  0
    7.9819   -3.0464    0.6100 H   0  0  0  0  0  0  0  0  0  0  0  0
    8.3737   -2.1363   -0.8653 H   0  0  0  0  0  0  0  0  0  0  0  0
    2.6193   -0.8513   -1.4071 H   0  0  0  0  0  0  0  0  0  0  0  0
    4.2076   -0.2910   -1.7656 H   0  0  0  0  0  0  0  0  0  0  0  0
    2.9692   -1.0733   -3.7494 H   0  0  0  0  0  0  0  0  0  0  0  0
    5.0307   -2.8094   -3.0156 H   0  0  0  0  0  0  0  0  0  0  0  0
    1.5517   -2.8192   -3.5488 H   0  0  0  0  0  0  0  0  0  0  0  0
    2.9458   -3.8287   -3.7129 H   0  0  0  0  0  0  0  0  0  0  0  0
    1.4441   -3.0493   -1.1885 H   0  0  0  0  0  0  0  0  0  0  0  0
    1.8049   -4.6167   -1.7207 H   0  0  0  0  0  0  0  0  0  0  0  0
    4.2132   -4.2213   -1.3866 H   0  0  0  0  0  0  0  0  0  0  0  0
  1  2  2  0
  1 32  1  0
  1 33  1  0
  2  3  1  0
  2 34  1  0
  3 15  1  0
  3  4  1  6
  3  5  1  0
  4 35  1  0
  4 36  1  0
  4 37  1  0
  6  5  1  1
  5 38  1  0
  5 39  1  0
  6 21  1  0
  6 25  1  0
  6  7  1  0
  7 21  1  0
  7  8  1  0
  7 40  1  1
  8  9  1  0
  8 41  1  0
  8 42  1  0
  9 31  1  0
  9 10  1  0
  9 43  1  6
 10 11  1  0
 10 44  1  0
 10 45  1  0
 11 12  2  3
 11 15  1  0
 12 13  1  0
 12 46  1  0
 13 14  1  0
 13 47  1  0
 13 48  1  0
 14 49  1  0
 14 50  1  0
 14 51  1  0
 15 16  1  0
 15 52  1  1
 16 17  1  0
 16 18  1  0
 16 53  1  1
 17 54  1  0
 17 55  1  0
 17 56  1  0
 18 19  2  0
 18 20  1  0
 21 20  1  1
 20 57  1  0
 20 58  1  0
 21 22  1  0
 22 23  1  0
 22 25  1  0
 22 59  1  6
 23 24  1  0
 24 60  1  0
 24 61  1  0
 24 62  1  0
 25 31  1  0
 25 26  1  6
 26 27  1  0
 26 63  1  0
 26 64  1  0
 27 28  1  0
 27 29  1  0
 27 65  1  6
 28 66  1  0
 29 30  1  0
 29 67  1  0
 29 68  1  0
 30 31  1  0
 30 69  1  0
 30 70  1  0
 31 71  1  6
M  END
>  <i_m_ct_stereo_status>  (120) 
1

>  <s_m_source_file>  (120) 
/var/tmp/pbs.5076255.sched01/tmpaqd8m8vp/41rn73ajce.sdf

>  <i_m_source_file_index>  (120) 
18

>  <i_lp_mmshare_version>  (120) 
48012

>  <i_f3d_flags>  (120) 
2

>  <s_epik_input>  (120) 
W0NIMl09W0NIXVtDQEBdKFtDSDNdKShbQ0gyXTEpW0NASF0oW0NAQEhdKFtDSDNdKUMoPU8pW0NIMl0yKUMoPVtDSF1cW0NIMl1bQ0gzXSlcW0NIMl1bQ0BASF0oW0NIMl1bQ0hdM0MyNFtDQF0xMzUpW0NAQEhdNltDQEBdNShbQ0BASF00T1tDSDNdKVtDSDJdW0NAQEhdKFtPSF0pW0NIMl1bQ0gyXTY=

>  <s_epik_cmdline>  (120) 
J2VwaWtfcHl0aG9uJywgJy1waHQnLCAnMi4wJywgJy1waCcsICc3LjAnLCAnLXRuJywgJzgnLCAnLW1hJywgJzIwMCcsICctaW1hZScsICc8aW5maWxlLm1hZT4nLCAnLW9tYWUnLCAnPG91dGZpbGUubWFlPic=

>  <r_lp_tautomer_probability>  (120) 
1

>  <r_epik_Ionization_Penalty>  (120) 
1.22493e-06

>  <r_epik_Ionization_Penalty_Charging>  (120) 
0

>  <r_epik_Ionization_Penalty_Neutral>  (120) 
1.22493e-06

>  <r_epik_State_Penalty>  (120) 
-0

>  <r_epik_Charging_Adjusted_Penalty>  (120) 
0

>  <i_epik_Tot_Q>  (120) 
0

>  <i_epik_Tot_abs_Q>  (120) 
0

>  <s_lp_Force_Field>  (120) 
OPLS3e

>  <r_lp_Energy>  (120) 
148.408

>  <b_lp_Chiralities_Consistent>  (120) 
0

>  <s_lp_Variant>  (120) 
43:0-2

>  <s_i_glide_gridfile>  (120) 
pfpi4k_grid

>  <i_i_glide_lignum>  (120) 
18

>  <i_i_glide_rotatable_bonds>  (120) 
4

>  <r_i_docking_score>  (120) 
-2.60091

>  <r_i_glide_ligand_efficiency>  (120) 
-0.0839002

>  <r_i_glide_ligand_efficiency_sa>  (120) 
-0.263563

>  <r_i_glide_ligand_efficiency_ln>  (120) 
-0.586584

>  <r_i_glide_gscore>  (120) 
-2.60091

>  <r_i_glide_lipo>  (120) 
-0.642001

>  <r_i_glide_hbond>  (120) 
-0.00282823

>  <r_i_glide_metal>  (120) 
-0

>  <r_i_glide_rewards>  (120) 
-0.695907

>  <r_i_glide_evdw>  (120) 
-20.0361

>  <r_i_glide_ecoul>  (120) 
-3.18889

>  <r_i_glide_erotb>  (120) 
0.219968

>  <r_i_glide_esite>  (120) 
0

>  <r_i_glide_emodel>  (120) 
-25.1972

>  <r_i_glide_energy>  (120) 
-23.225

>  <r_i_glide_einternal>  (120) 
0.131708

>  <r_i_glide_intrahb_reward>  (120) 
-0

>  <i_i_glide_confnum>  (120) 
5

>  <i_i_glide_posenum>  (120) 
7

>  <r_i_glide_eff_state_penalty>  (120) 
0

>  <ligand_id>  (120) 
43

>  <original_smiles>  (120) 
C=CC1(C)CC23C4CC5CC(=CCC)C1C(C)C(=O)CC42C(OC)C31CC(O)CCC51

>  <smiles>  (120) 
[H]OC1([H])C([H])([H])C([H])([H])C2([H])C3([H])C([H])([H])C(=C([H])C([H])([H])C([H])([H])[H])C4([H])C([H])(C([H])([H])[H])C(=O)C([H])([H])C56C([H])(OC([H])([H])[H])C2(C1([H])[H])C5(C([H])([H])C4(C([H])=C([H])[H])C([H])([H])[H])C6([H])C3([H])[H]

$$$$
43:1:1
     RDKit          3D

 71 76  0  0  1  0  0  0  0  0999 V2000
    8.1276   -4.4183    0.6066 C   0  0  0  0  0  0  0  0  0  0  0  0
    6.9401   -4.2511    0.0186 C   0  0  0  0  0  0  0  0  0  0  0  0
    5.5251   -4.4261    0.6349 C   0  0  1  0  0  0  0  0  0  0  0  0
    5.2480   -5.9338    0.2958 C   0  0  0  0  0  0  0  0  0  0  0  0
    5.4770   -4.1080    2.1647 C   0  0  0  0  0  0  0  0  0  0  0  0
    4.3872   -3.1240    2.7949 C   0  0  2  0  0  0  0  0  0  0  0  0
    3.3721   -2.0916    2.1425 C   0  0  1  0  0  0  0  0  0  0  0  0
    1.9201   -2.3070    2.4402 C   0  0  0  0  0  0  0  0  0  0  0  0
    1.8214   -3.7929    2.6595 C   0  0  1  0  0  0  0  0  0  0  0  0
    2.4146   -4.6010    1.4074 C   0  0  0  0  0  0  0  0  0  0  0  0
    2.9700   -3.8944    0.0985 C   0  0  0  0  0  0  0  0  0  0  0  0
    2.0844   -3.8054   -0.9465 C   0  0  0  0  0  0  0  0  0  0  0  0
    2.2353   -3.3713   -2.4149 C   0  0  0  0  0  0  0  0  0  0  0  0
    3.6330   -3.2332   -2.9846 C   0  0  0  0  0  0  0  0  0  0  0  0
    4.5084   -3.4822   -0.0362 C   0  0  1  0  0  0  0  0  0  0  0  0
    5.0615   -1.9556   -0.2641 C   0  0  1  0  0  0  0  0  0  0  0  0
    4.1507   -0.8551   -0.9213 C   0  0  0  0  0  0  0  0  0  0  0  0
    6.0056   -1.3169    0.8213 C   0  0  0  0  0  0  0  0  0  0  0  0
    7.1849   -1.1388    0.4878 O   0  0  0  0  0  0  0  0  0  0  0  0
    5.5422   -0.8109    2.2371 C   0  0  0  0  0  0  0  0  0  0  0  0
    4.4916   -1.6831    2.9631 C   0  0  2  0  0  0  0  0  0  0  0  0
    4.2511   -1.8476    4.4620 C   0  0  1  0  0  0  0  0  0  0  0  0
    3.1260   -1.1560    4.9856 O   0  0  0  0  0  0  0  0  0  0  0  0
    3.3215    0.2454    5.0660 C   0  0  0  0  0  0  0  0  0  0  0  0
    3.9608   -3.3981    4.2362 C   0  0  2  0  0  0  0  0  0  0  0  0
    4.8291   -4.2947    5.1475 C   0  0  0  0  0  0  0  0  0  0  0  0
    4.0738   -4.7817    6.4022 C   0  0  1  0  0  0  0  0  0  0  0  0
    3.7386   -3.6884    7.2376 O   0  0  0  0  0  0  0  0  0  0  0  0
    2.8026   -5.5910    6.0447 C   0  0  0  0  0  0  0  0  0  0  0  0
    2.3777   -5.4604    4.5668 C   0  0  0  0  0  0  0  0  0  0  0  0
    2.4913   -4.0038    4.0792 C   0  0  2  0  0  0  0  0  0  0  0  0
    8.2255   -4.7257    1.6365 H   0  0  0  0  0  0  0  0  0  0  0  0
    9.0420   -4.2616    0.0480 H   0  0  0  0  0  0  0  0  0  0  0  0
    6.9635   -3.9579   -1.0206 H   0  0  0  0  0  0  0  0  0  0  0  0
    4.2441   -6.3000    0.4627 H   0  0  0  0  0  0  0  0  0  0  0  0
    5.9244   -6.5990    0.8378 H   0  0  0  0  0  0  0  0  0  0  0  0
    5.4037   -6.1417   -0.7584 H   0  0  0  0  0  0  0  0  0  0  0  0
    5.3694   -5.0937    2.6229 H   0  0  0  0  0  0  0  0  0  0  0  0
    6.4515   -3.7509    2.4824 H   0  0  0  0  0  0  0  0  0  0  0  0
    3.3841   -1.5323    1.2366 H   0  0  0  0  0  0  0  0  0  0  0  0
    1.5737   -1.7173    3.2907 H   0  0  0  0  0  0  0  0  0  0  0  0
    1.3256   -1.9931    1.5853 H   0  0  0  0  0  0  0  0  0  0  0  0
    0.7629   -4.0433    2.7595 H   0  0  0  0  0  0  0  0  0  0  0  0
    3.1618   -5.2720    1.8196 H   0  0  0  0  0  0  0  0  0  0  0  0
    1.6455   -5.3129    1.0989 H   0  0  0  0  0  0  0  0  0  0  0  0
    1.0697   -4.1413   -0.7411 H   0  0  0  0  0  0  0  0  0  0  0  0
    1.7955   -4.1484   -3.0166 H   0  0  0  0  0  0  0  0  0  0  0  0
    1.6348   -2.4648   -2.5664 H   0  0  0  0  0  0  0  0  0  0  0  0
    3.7125   -2.7145   -3.9358 H   0  0  0  0  0  0  0  0  0  0  0  0
    4.2370   -4.1153   -2.9294 H   0  0  0  0  0  0  0  0  0  0  0  0
    4.1476   -2.5446   -2.3502 H   0  0  0  0  0  0  0  0  0  0  0  0
    4.7122   -3.9701   -1.0160 H   0  0  0  0  0  0  0  0  0  0  0  0
    5.7788   -2.1088   -1.0698 H   0  0  0  0  0  0  0  0  0  0  0  0
    4.2647    0.1545   -0.4689 H   0  0  0  0  0  0  0  0  0  0  0  0
    3.0967   -1.1099   -0.8696 H   0  0  0  0  0  0  0  0  0  0  0  0
    4.3730   -0.6542   -1.9495 H   0  0  0  0  0  0  0  0  0  0  0  0
    6.4285   -0.6704    2.8432 H   0  0  0  0  0  0  0  0  0  0  0  0
    5.1100    0.1786    2.0814 H   0  0  0  0  0  0  0  0  0  0  0  0
    5.1163   -1.6826    5.0941 H   0  0  0  0  0  0  0  0  0  0  0  0
    2.4404    0.7195    5.4987 H   0  0  0  0  0  0  0  0  0  0  0  0
    3.4795    0.6757    4.0769 H   0  0  0  0  0  0  0  0  0  0  0  0
    4.1772    0.4900    5.6961 H   0  0  0  0  0  0  0  0  0  0  0  0
    5.1651   -5.1932    4.6435 H   0  0  0  0  0  0  0  0  0  0  0  0
    5.7419   -3.7772    5.4450 H   0  0  0  0  0  0  0  0  0  0  0  0
    4.7406   -5.4122    6.9909 H   0  0  0  0  0  0  0  0  0  0  0  0
    4.5338   -3.2596    7.5172 H   0  0  0  0  0  0  0  0  0  0  0  0
    2.9696   -6.6478    6.2687 H   0  0  0  0  0  0  0  0  0  0  0  0
    1.9697   -5.2956    6.6849 H   0  0  0  0  0  0  0  0  0  0  0  0
    2.9927   -6.1058    3.9422 H   0  0  0  0  0  0  0  0  0  0  0  0
    1.3586   -5.8279    4.4557 H   0  0  0  0  0  0  0  0  0  0  0  0
    1.8561   -3.4551    4.7808 H   0  0  0  0  0  0  0  0  0  0  0  0
  1  2  2  0
  1 32  1  0
  1 33  1  0
  2  3  1  0
  2 34  1  0
  3 15  1  0
  3  4  1  1
  3  5  1  0
  4 35  1  0
  4 36  1  0
  4 37  1  0
  6  5  1  6
  5 38  1  0
  5 39  1  0
  6 21  1  0
  6 25  1  0
  6  7  1  0
  7 21  1  0
  7  8  1  0
  7 40  1  6
  8  9  1  0
  8 41  1  0
  8 42  1  0
  9 31  1  0
  9 10  1  0
  9 43  1  1
 10 11  1  0
 10 44  1  0
 10 45  1  0
 11 12  2  3
 11 15  1  0
 12 13  1  0
 12 46  1  0
 13 14  1  0
 13 47  1  0
 13 48  1  0
 14 49  1  0
 14 50  1  0
 14 51  1  0
 15 16  1  0
 15 52  1  6
 16 17  1  0
 16 18  1  0
 16 53  1  6
 17 54  1  0
 17 55  1  0
 17 56  1  0
 18 19  2  0
 18 20  1  0
 21 20  1  1
 20 57  1  0
 20 58  1  0
 21 22  1  0
 22 23  1  0
 22 25  1  0
 22 59  1  1
 23 24  1  0
 24 60  1  0
 24 61  1  0
 24 62  1  0
 25 31  1  0
 25 26  1  1
 26 27  1  0
 26 63  1  0
 26 64  1  0
 27 28  1  0
 27 29  1  0
 27 65  1  1
 28 66  1  0
 29 30  1  0
 29 67  1  0
 29 68  1  0
 30 31  1  0
 30 69  1  0
 30 70  1  0
 31 71  1  1
M  END
>  <i_m_ct_stereo_status>  (121) 
1

>  <s_m_source_file>  (121) 
/var/tmp/pbs.5076255.sched01/tmpaqd8m8vp/41rn73ajce.sdf

>  <i_m_source_file_index>  (121) 
18

>  <i_lp_mmshare_version>  (121) 
48012

>  <i_f3d_flags>  (121) 
2

>  <s_epik_input>  (121) 
W0NIMl09W0NIXVtDQEBdKFtDSDNdKShbQ0gyXTEpW0NASF0oW0NAQEhdKFtDSDNdKUMoPU8pW0NIMl0yKUMoPVtDSF1cW0NIMl1bQ0gzXSlcW0NIMl1bQ0BASF0oW0NIMl1bQ0hdM0MyNFtDQF0xMzUpW0NAQEhdNltDQEBdNShbQ0BASF00T1tDSDNdKVtDSDJdW0NAQEhdKFtPSF0pW0NIMl1bQ0gyXTY=

>  <s_epik_cmdline>  (121) 
J2VwaWtfcHl0aG9uJywgJy1waHQnLCAnMi4wJywgJy1waCcsICc3LjAnLCAnLXRuJywgJzgnLCAnLW1hJywgJzIwMCcsICctaW1hZScsICc8aW5maWxlLm1hZT4nLCAnLW9tYWUnLCAnPG91dGZpbGUubWFlPic=

>  <r_lp_tautomer_probability>  (121) 
1

>  <r_epik_Ionization_Penalty>  (121) 
1.22493e-06

>  <r_epik_Ionization_Penalty_Charging>  (121) 
0

>  <r_epik_Ionization_Penalty_Neutral>  (121) 
1.22493e-06

>  <r_epik_State_Penalty>  (121) 
-0

>  <r_epik_Charging_Adjusted_Penalty>  (121) 
0

>  <i_epik_Tot_Q>  (121) 
0

>  <i_epik_Tot_abs_Q>  (121) 
0

>  <s_lp_Force_Field>  (121) 
OPLS3e

>  <r_lp_Energy>  (121) 
148.408

>  <b_lp_Chiralities_Consistent>  (121) 
0

>  <s_lp_Variant>  (121) 
43:0-2

>  <s_i_glide_gridfile>  (121) 
pfpi4k_grid

>  <i_i_glide_lignum>  (121) 
18

>  <i_i_glide_rotatable_bonds>  (121) 
4

>  <r_i_docking_score>  (121) 
-2.14614

>  <r_i_glide_ligand_efficiency>  (121) 
-0.0692304

>  <r_i_glide_ligand_efficiency_sa>  (121) 
-0.217479

>  <r_i_glide_ligand_efficiency_ln>  (121) 
-0.484021

>  <r_i_glide_gscore>  (121) 
-2.14614

>  <r_i_glide_lipo>  (121) 
-0.900342

>  <r_i_glide_hbond>  (121) 
-0.0234501

>  <r_i_glide_metal>  (121) 
-0

>  <r_i_glide_rewards>  (121) 
-0.711554

>  <r_i_glide_evdw>  (121) 
-19.207

>  <r_i_glide_ecoul>  (121) 
0.342325

>  <r_i_glide_erotb>  (121) 
0.219968

>  <r_i_glide_esite>  (121) 
0

>  <r_i_glide_emodel>  (121) 
-16.2771

>  <r_i_glide_energy>  (121) 
-18.8647

>  <r_i_glide_einternal>  (121) 
1.14027

>  <r_i_glide_intrahb_reward>  (121) 
-0

>  <i_i_glide_confnum>  (121) 
4

>  <i_i_glide_posenum>  (121) 
24

>  <r_i_glide_eff_state_penalty>  (121) 
0

>  <ligand_id>  (121) 
43

>  <original_smiles>  (121) 
C=CC1(C)CC23C4CC5CC(=CCC)C1C(C)C(=O)CC42C(OC)C31CC(O)CCC51

>  <smiles>  (121) 
[H]OC1([H])C([H])([H])C([H])([H])C2([H])C3([H])C([H])([H])C(=C([H])C([H])([H])C([H])([H])[H])C4([H])C([H])(C([H])([H])[H])C(=O)C([H])([H])C56C([H])(OC([H])([H])[H])C2(C1([H])[H])C5(C([H])([H])C4(C([H])=C([H])[H])C([H])([H])[H])C6([H])C3([H])[H]

$$$$
43:1:2
     RDKit          3D

 71 76  0  0  1  0  0  0  0  0999 V2000
    2.0747    0.8178    4.9705 C   0  0  0  0  0  0  0  0  0  0  0  0
    2.1949    0.5504    3.6769 C   0  0  0  0  0  0  0  0  0  0  0  0
    2.2094   -0.8449    2.9952 C   0  0  1  0  0  0  0  0  0  0  0  0
    0.6871   -1.0601    2.8459 C   0  0  0  0  0  0  0  0  0  0  0  0
    2.9778   -0.7662    1.6215 C   0  0  0  0  0  0  0  0  0  0  0  0
    4.0431   -1.8609    1.2006 C   0  0  2  0  0  0  0  0  0  0  0  0
    4.8270   -2.9685    2.0497 C   0  0  1  0  0  0  0  0  0  0  0  0
    4.7050   -4.3721    1.5967 C   0  0  0  0  0  0  0  0  0  0  0  0
    3.3636   -4.3804    0.9220 C   0  0  1  0  0  0  0  0  0  0  0  0
    2.2360   -3.8667    1.9291 C   0  0  0  0  0  0  0  0  0  0  0  0
    2.5212   -3.4640    3.4431 C   0  0  0  0  0  0  0  0  0  0  0  0
    2.3317   -4.4334    4.3485 C   0  0  0  0  0  0  0  0  0  0  0  0
    2.3835   -4.3458    5.8708 C   0  0  0  0  0  0  0  0  0  0  0  0
    3.3397   -5.3788    6.4877 C   0  0  0  0  0  0  0  0  0  0  0  0
    2.8127   -1.9555    3.8995 C   0  0  1  0  0  0  0  0  0  0  0  0
    4.2462   -1.4793    4.4924 C   0  0  1  0  0  0  0  0  0  0  0  0
    5.0437   -2.4375    5.3845 C   0  0  0  0  0  0  0  0  0  0  0  0
    5.1774   -0.4964    3.7009 C   0  0  0  0  0  0  0  0  0  0  0  0
    5.3328    0.6084    4.1974 O   0  0  0  0  0  0  0  0  0  0  0  0
    6.0118   -0.8053    2.4043 C   0  0  0  0  0  0  0  0  0  0  0  0
    5.4715   -1.8317    1.4528 C   0  0  2  0  0  0  0  0  0  0  0  0
    5.7408   -1.8416   -0.0256 C   0  0  1  0  0  0  0  0  0  0  0  0
    6.5560   -2.9177   -0.4752 O   0  0  0  0  0  0  0  0  0  0  0  0
    7.9400   -2.7568   -0.2167 C   0  0  0  0  0  0  0  0  0  0  0  0
    4.2020   -2.1149   -0.2977 C   0  0  2  0  0  0  0  0  0  0  0  0
    3.6174   -1.1447   -1.3648 C   0  0  0  0  0  0  0  0  0  0  0  0
    3.4504   -1.7945   -2.7541 C   0  0  1  0  0  0  0  0  0  0  0  0
    4.7162   -2.1452   -3.2647 O   0  0  0  0  0  0  0  0  0  0  0  0
    2.5951   -3.0638   -2.7559 C   0  0  0  0  0  0  0  0  0  0  0  0
    2.3125   -3.6162   -1.3440 C   0  0  0  0  0  0  0  0  0  0  0  0
    3.5626   -3.5611   -0.4335 C   0  0  2  0  0  0  0  0  0  0  0  0
    1.9425    0.0452    5.7258 H   0  0  0  0  0  0  0  0  0  0  0  0
    2.1024    1.8341    5.3576 H   0  0  0  0  0  0  0  0  0  0  0  0
    2.2780    1.4004    2.9979 H   0  0  0  0  0  0  0  0  0  0  0  0
    0.4115   -2.0488    2.5160 H   0  0  0  0  0  0  0  0  0  0  0  0
    0.2524   -0.3212    2.1726 H   0  0  0  0  0  0  0  0  0  0  0  0
    0.1677   -0.9427    3.7993 H   0  0  0  0  0  0  0  0  0  0  0  0
    2.2048   -0.8183    0.8708 H   0  0  0  0  0  0  0  0  0  0  0  0
    3.4036    0.2267    1.4661 H   0  0  0  0  0  0  0  0  0  0  0  0
    5.1837   -3.0201    3.0402 H   0  0  0  0  0  0  0  0  0  0  0  0
    5.5154   -4.6058    0.9149 H   0  0  0  0  0  0  0  0  0  0  0  0
    4.7514   -5.0649    2.4493 H   0  0  0  0  0  0  0  0  0  0  0  0
    3.1378   -5.4054    0.6327 H   0  0  0  0  0  0  0  0  0  0  0  0
    1.8148   -3.0242    1.4118 H   0  0  0  0  0  0  0  0  0  0  0  0
    1.4687   -4.6407    1.9529 H   0  0  0  0  0  0  0  0  0  0  0  0
    2.0531   -5.4167    3.9799 H   0  0  0  0  0  0  0  0  0  0  0  0
    2.6161   -3.3597    6.2834 H   0  0  0  0  0  0  0  0  0  0  0  0
    1.3590   -4.5446    6.1793 H   0  0  0  0  0  0  0  0  0  0  0  0
    3.3388   -5.2730    7.5715 H   0  0  0  0  0  0  0  0  0  0  0  0
    4.3765   -5.2708    6.1670 H   0  0  0  0  0  0  0  0  0  0  0  0
    3.0469   -6.3958    6.2303 H   0  0  0  0  0  0  0  0  0  0  0  0
    2.1620   -1.9287    4.7685 H   0  0  0  0  0  0  0  0  0  0  0  0
    3.9724   -0.7794    5.2819 H   0  0  0  0  0  0  0  0  0  0  0  0
    6.1178   -2.2438    5.3517 H   0  0  0  0  0  0  0  0  0  0  0  0
    4.8983   -3.4503    5.0403 H   0  0  0  0  0  0  0  0  0  0  0  0
    4.7391   -2.3499    6.4288 H   0  0  0  0  0  0  0  0  0  0  0  0
    6.1168    0.1176    1.8497 H   0  0  0  0  0  0  0  0  0  0  0  0
    6.9997   -1.1325    2.7297 H   0  0  0  0  0  0  0  0  0  0  0  0
    6.0495   -0.8627   -0.3951 H   0  0  0  0  0  0  0  0  0  0  0  0
    8.4972   -3.6322   -0.5716 H   0  0  0  0  0  0  0  0  0  0  0  0
    8.1381   -2.6363    0.8510 H   0  0  0  0  0  0  0  0  0  0  0  0
    8.3223   -1.8865   -0.7505 H   0  0  0  0  0  0  0  0  0  0  0  0
    2.6306   -0.8082   -1.1227 H   0  0  0  0  0  0  0  0  0  0  0  0
    4.2351   -0.2492   -1.4607 H   0  0  0  0  0  0  0  0  0  0  0  0
    3.0148   -1.0790   -3.4492 H   0  0  0  0  0  0  0  0  0  0  0  0
    5.2367   -1.3582   -3.3070 H   0  0  0  0  0  0  0  0  0  0  0  0
    1.6479   -2.8568   -3.2424 H   0  0  0  0  0  0  0  0  0  0  0  0
    3.0807   -3.8103   -3.3793 H   0  0  0  0  0  0  0  0  0  0  0  0
    1.5078   -3.0638   -0.9041 H   0  0  0  0  0  0  0  0  0  0  0  0
    1.9130   -4.6304   -1.4129 H   0  0  0  0  0  0  0  0  0  0  0  0
    4.2770   -4.1477   -0.9945 H   0  0  0  0  0  0  0  0  0  0  0  0
  1  2  2  0
  1 32  1  0
  1 33  1  0
  2  3  1  0
  2 34  1  0
  3 15  1  0
  3  4  1  6
  3  5  1  0
  4 35  1  0
  4 36  1  0
  4 37  1  0
  6  5  1  1
  5 38  1  0
  5 39  1  0
  6 21  1  0
  6 25  1  0
  6  7  1  0
  7 21  1  0
  7  8  1  0
  7 40  1  1
  8  9  1  0
  8 41  1  0
  8 42  1  0
  9 31  1  0
  9 10  1  0
  9 43  1  6
 10 11  1  0
 10 44  1  0
 10 45  1  0
 11 12  2  3
 11 15  1  0
 12 13  1  0
 12 46  1  0
 13 14  1  0
 13 47  1  0
 13 48  1  0
 14 49  1  0
 14 50  1  0
 14 51  1  0
 15 16  1  0
 15 52  1  1
 16 17  1  0
 16 18  1  0
 16 53  1  1
 17 54  1  0
 17 55  1  0
 17 56  1  0
 18 19  2  0
 18 20  1  0
 21 20  1  1
 20 57  1  0
 20 58  1  0
 21 22  1  0
 22 23  1  0
 22 25  1  0
 22 59  1  6
 23 24  1  0
 24 60  1  0
 24 61  1  0
 24 62  1  0
 25 31  1  0
 25 26  1  6
 26 27  1  0
 26 63  1  0
 26 64  1  0
 27 28  1  0
 27 29  1  0
 27 65  1  6
 28 66  1  0
 29 30  1  0
 29 67  1  0
 29 68  1  0
 30 31  1  0
 30 69  1  0
 30 70  1  0
 31 71  1  6
M  END
>  <i_m_ct_stereo_status>  (122) 
1

>  <s_m_source_file>  (122) 
/var/tmp/pbs.5076255.sched01/tmpaqd8m8vp/41rn73ajce.sdf

>  <i_m_source_file_index>  (122) 
18

>  <i_lp_mmshare_version>  (122) 
48012

>  <i_f3d_flags>  (122) 
2

>  <s_epik_input>  (122) 
W0NIMl09W0NIXVtDQEBdKFtDSDNdKShbQ0gyXTEpW0NASF0oW0NAQEhdKFtDSDNdKUMoPU8pW0NIMl0yKUMoPVtDSF1cW0NIMl1bQ0gzXSlcW0NIMl1bQ0BASF0oW0NIMl1bQ0hdM0MyNFtDQF0xMzUpW0NAQEhdNltDQEBdNShbQ0BASF00T1tDSDNdKVtDSDJdW0NAQEhdKFtPSF0pW0NIMl1bQ0gyXTY=

>  <s_epik_cmdline>  (122) 
J2VwaWtfcHl0aG9uJywgJy1waHQnLCAnMi4wJywgJy1waCcsICc3LjAnLCAnLXRuJywgJzgnLCAnLW1hJywgJzIwMCcsICctaW1hZScsICc8aW5maWxlLm1hZT4nLCAnLW9tYWUnLCAnPG91dGZpbGUubWFlPic=

>  <r_lp_tautomer_probability>  (122) 
1

>  <r_epik_Ionization_Penalty>  (122) 
1.22493e-06

>  <r_epik_Ionization_Penalty_Charging>  (122) 
0

>  <r_epik_Ionization_Penalty_Neutral>  (122) 
1.22493e-06

>  <r_epik_State_Penalty>  (122) 
-0

>  <r_epik_Charging_Adjusted_Penalty>  (122) 
0

>  <i_epik_Tot_Q>  (122) 
0

>  <i_epik_Tot_abs_Q>  (122) 
0

>  <s_lp_Force_Field>  (122) 
OPLS3e

>  <r_lp_Energy>  (122) 
148.408

>  <b_lp_Chiralities_Consistent>  (122) 
0

>  <s_lp_Variant>  (122) 
43:0-2

>  <s_i_glide_gridfile>  (122) 
pfpi4k_grid

>  <i_i_glide_lignum>  (122) 
18

>  <i_i_glide_rotatable_bonds>  (122) 
4

>  <r_i_docking_score>  (122) 
-1.97907

>  <r_i_glide_ligand_efficiency>  (122) 
-0.0638411

>  <r_i_glide_ligand_efficiency_sa>  (122) 
-0.200549

>  <r_i_glide_ligand_efficiency_ln>  (122) 
-0.446342

>  <r_i_glide_gscore>  (122) 
-1.97907

>  <r_i_glide_lipo>  (122) 
-0.395071

>  <r_i_glide_hbond>  (122) 
0

>  <r_i_glide_metal>  (122) 
-0

>  <r_i_glide_rewards>  (122) 
-0.680343

>  <r_i_glide_evdw>  (122) 
-19.3618

>  <r_i_glide_ecoul>  (122) 
-1.03691

>  <r_i_glide_erotb>  (122) 
0.219968

>  <r_i_glide_esite>  (122) 
0

>  <r_i_glide_emodel>  (122) 
-19.7897

>  <r_i_glide_energy>  (122) 
-20.3987

>  <r_i_glide_einternal>  (122) 
1.90095

>  <r_i_glide_intrahb_reward>  (122) 
-0

>  <i_i_glide_confnum>  (122) 
4

>  <i_i_glide_posenum>  (122) 
13

>  <r_i_glide_eff_state_penalty>  (122) 
0

>  <ligand_id>  (122) 
43

>  <original_smiles>  (122) 
C=CC1(C)CC23C4CC5CC(=CCC)C1C(C)C(=O)CC42C(OC)C31CC(O)CCC51

>  <smiles>  (122) 
[H]OC1([H])C([H])([H])C([H])([H])C2([H])C3([H])C([H])([H])C(=C([H])C([H])([H])C([H])([H])[H])C4([H])C([H])(C([H])([H])[H])C(=O)C([H])([H])C56C([H])(OC([H])([H])[H])C2(C1([H])[H])C5(C([H])([H])C4(C([H])=C([H])[H])C([H])([H])[H])C6([H])C3([H])[H]

$$$$
44:0:0
     RDKit          3D

 62 67  0  0  1  0  0  0  0  0999 V2000
    5.2757   -1.5083    2.5596 C   0  0  0  0  0  0  0  0  0  0  0  0
    4.1980   -1.6626    1.3984 C   0  0  1  0  0  0  0  0  0  0  0  0
    3.2469   -0.5807    1.8238 C   0  0  0  0  0  0  0  0  0  0  0  0
    3.1263    0.5201    1.2866 O   0  0  0  0  0  0  0  0  0  0  0  0
    2.4342   -1.1098    3.0425 C   0  0  0  0  0  0  0  0  0  0  0  0
    2.6570   -2.6982    3.3515 C   0  0  0  0  0  0  0  0  0  0  0  0
    3.2857   -3.7718    2.2479 C   0  0  2  0  0  0  0  0  0  0  0  0
    4.7926   -4.1978    1.7207 C   0  0  1  0  0  0  0  0  0  0  0  0
    4.8723   -5.6907    1.6241 C   0  0  0  0  0  0  0  0  0  0  0  0
    5.8636   -6.4995    2.0673 C   0  0  0  0  0  0  0  0  0  0  0  0
    5.8252   -8.0388    2.0134 C   0  0  2  0  0  0  0  0  0  0  0  0
    4.6182   -8.6450    1.2702 C   0  0  0  0  0  0  0  0  0  0  0  0
    3.5445   -8.8301    2.3592 C   0  0  0  0  0  0  0  0  0  0  0  0
    2.6155  -10.0308    2.0933 C   0  0  0  0  0  0  0  0  0  0  0  0
    1.4506  -10.1190    3.1101 C   0  0  0  0  0  0  0  0  0  0  0  0
    0.6393   -8.8083    3.1914 C   0  0  0  0  0  0  0  0  0  0  0  0
    1.5684   -7.6343    3.5293 C   0  0  0  0  0  0  0  0  0  0  0  0
    2.7121   -7.5376    2.5436 C   0  0  0  0  0  0  0  0  0  0  0  0
    4.3156   -9.0418    3.5332 O   0  0  0  0  0  0  0  0  0  0  0  0
    5.5872   -8.5799    3.4186 C   0  0  0  0  0  0  0  0  0  0  0  0
    6.4391   -8.5964    4.2980 O   0  0  0  0  0  0  0  0  0  0  0  0
    5.2555   -3.5608    0.2909 C   0  0  1  0  0  0  0  0  0  0  0  0
    4.2472   -4.1337   -0.7116 C   0  0  0  0  0  0  0  0  0  0  0  0
    2.9912   -3.3263   -0.3527 C   0  0  2  0  0  0  0  0  0  0  0  0
    3.0238   -2.1387   -1.2371 N   0  0  0  0  0  0  0  0  0  0  0  0
    4.3516   -1.4581   -1.1214 C   0  0  0  0  0  0  0  0  0  0  0  0
    5.0817   -1.9409    0.1768 C   0  0  1  0  0  0  0  0  0  0  0  0
    3.0652   -2.7835    1.1403 C   0  0  2  0  0  0  0  0  0  0  0  0
    6.1814   -2.0990    2.4392 H   0  0  0  0  0  0  0  0  0  0  0  0
    4.9320   -1.6664    3.5777 H   0  0  0  0  0  0  0  0  0  0  0  0
    5.6757   -0.4948    2.5463 H   0  0  0  0  0  0  0  0  0  0  0  0
    2.6807   -0.5060    3.9152 H   0  0  0  0  0  0  0  0  0  0  0  0
    1.3798   -0.9188    2.8372 H   0  0  0  0  0  0  0  0  0  0  0  0
    3.1385   -2.7152    4.3373 H   0  0  0  0  0  0  0  0  0  0  0  0
    1.6606   -3.0666    3.6023 H   0  0  0  0  0  0  0  0  0  0  0  0
    3.8566   -3.9180    3.1558 H   0  0  0  0  0  0  0  0  0  0  0  0
    5.5864   -4.0029    2.4538 H   0  0  0  0  0  0  0  0  0  0  0  0
    3.9768   -6.1404    1.1945 H   0  0  0  0  0  0  0  0  0  0  0  0
    6.7617   -6.0817    2.5102 H   0  0  0  0  0  0  0  0  0  0  0  0
    6.7559   -8.4359    1.6037 H   0  0  0  0  0  0  0  0  0  0  0  0
    4.2458   -8.0442    0.4336 H   0  0  0  0  0  0  0  0  0  0  0  0
    4.8906   -9.6142    0.8355 H   0  0  0  0  0  0  0  0  0  0  0  0
    2.1996   -9.9132    1.0929 H   0  0  0  0  0  0  0  0  0  0  0  0
    3.1762  -10.9668    2.0839 H   0  0  0  0  0  0  0  0  0  0  0  0
    0.7818  -10.9402    2.8399 H   0  0  0  0  0  0  0  0  0  0  0  0
    1.8616  -10.3517    4.0939 H   0  0  0  0  0  0  0  0  0  0  0  0
    0.1559   -8.6147    2.2281 H   0  0  0  0  0  0  0  0  0  0  0  0
   -0.1454   -8.8799    3.9537 H   0  0  0  0  0  0  0  0  0  0  0  0
    1.0184   -6.6946    3.5095 H   0  0  0  0  0  0  0  0  0  0  0  0
    1.9798   -7.7486    4.5327 H   0  0  0  0  0  0  0  0  0  0  0  0
    3.3228   -6.7305    2.8929 H   0  0  0  0  0  0  0  0  0  0  0  0
    2.2895   -7.2510    1.5711 H   0  0  0  0  0  0  0  0  0  0  0  0
    6.2622   -3.8812    0.0384 H   0  0  0  0  0  0  0  0  0  0  0  0
    4.5701   -4.0038   -1.7448 H   0  0  0  0  0  0  0  0  0  0  0  0
    4.0658   -5.2044   -0.6650 H   0  0  0  0  0  0  0  0  0  0  0  0
    2.0911   -3.9026   -0.5509 H   0  0  0  0  0  0  0  0  0  0  0  0
    2.8564   -2.4078   -2.1979 H   0  0  0  0  0  0  0  0  0  0  0  0
    4.9566   -1.7076   -1.9960 H   0  0  0  0  0  0  0  0  0  0  0  0
    4.2146   -0.3781   -1.1121 H   0  0  0  0  0  0  0  0  0  0  0  0
    6.0550   -1.4588    0.2455 H   0  0  0  0  0  0  0  0  0  0  0  0
    2.0138   -2.4637    1.1550 H   0  0  0  0  0  0  0  0  0  0  0  0
    2.2739   -1.5020   -0.9483 H   0  0  0  0  0  0  0  0  0  0  0  0
  2  1  1  1
  1 29  1  0
  1 30  1  0
  1 31  1  0
  2 27  1  0
  2 28  1  0
  2  3  1  0
  3  4  2  0
  3  5  1  0
  5  6  1  0
  5 32  1  0
  5 33  1  0
  6  7  1  0
  6 34  1  0
  6 35  1  0
  7 28  1  0
  7  8  1  0
  7 36  1  6
  8  9  1  0
  8 22  1  0
  8 37  1  1
  9 10  2  3
  9 38  1  0
 10 11  1  0
 10 39  1  0
 11 20  1  0
 11 12  1  0
 11 40  1  6
 12 13  1  0
 12 41  1  0
 12 42  1  0
 13 18  1  0
 13 14  1  0
 13 19  1  0
 14 15  1  0
 14 43  1  0
 14 44  1  0
 15 16  1  0
 15 45  1  0
 15 46  1  0
 16 17  1  0
 16 47  1  0
 16 48  1  0
 17 18  1  0
 17 49  1  0
 17 50  1  0
 18 51  1  0
 18 52  1  0
 19 20  1  0
 20 21  2  0
 22 27  1  0
 22 23  1  0
 22 53  1  6
 23 24  1  0
 23 54  1  0
 23 55  1  0
 24 25  1  0
 24 28  1  0
 24 56  1  1
 25 26  1  0
 25 57  1  0
 25 62  1  0
 26 27  1  0
 26 58  1  0
 26 59  1  0
 27 60  1  1
 28 61  1  1
M  CHG  1  25   1
M  END
>  <i_m_ct_stereo_status>  (123) 
1

>  <s_m_source_file>  (123) 
/var/tmp/pbs.5076255.sched01/tmpaqd8m8vp/41rn73ajce.sdf

>  <i_m_source_file_index>  (123) 
19

>  <i_lp_mmshare_version>  (123) 
48012

>  <i_f3d_flags>  (123) 
0

>  <s_epik_input>  (123) 
Tz1DMVtDSDJdW0NIMl1bQ0hdKFtDSF0yW0NASF0oW0NIMl0zKVtOSF1bQ0gyXTQpW0NASF0oW0NAQEhdM1tDQEBIXTRbQ0BAXTEyW0NIM10pL1tDSF09W0NIXS9bQ0BASF0oQyhPNSk9TylbQ0gyXUM1NltDSDJdW0NIMl1bQ0gyXVtDSDJdW0NIMl02

>  <s_epik_cmdline>  (123) 
J2VwaWtfcHl0aG9uJywgJy1waHQnLCAnMi4wJywgJy1waCcsICc3LjAnLCAnLXRuJywgJzgnLCAnLW1hJywgJzIwMCcsICctaW1hZScsICc8aW5maWxlLm1hZT4nLCAnLW9tYWUnLCAnPG91dGZpbGUubWFlPic=

>  <r_lp_tautomer_probability>  (123) 
0.99995

>  <r_epik_Ionization_Penalty>  (123) 
0.000329963

>  <r_epik_Ionization_Penalty_Charging>  (123) 
0.000329963

>  <r_epik_Ionization_Penalty_Neutral>  (123) 
8.61707e-13

>  <r_epik_State_Penalty>  (123) 
0.000199631

>  <r_epik_Charging_Adjusted_Penalty>  (123) 
0.000529593

>  <i_epik_Tot_Q>  (123) 
1

>  <i_epik_Tot_abs_Q>  (123) 
1

>  <s_epik_Chemistry_Notes>  (123) 
This compound has an ester and may undergo hydrolysis at high or low pH.

>  <s_lp_Force_Field>  (123) 
OPLS3e

>  <r_lp_Energy>  (123) 
227.014

>  <b_lp_Chiralities_Consistent>  (123) 
1

>  <s_lp_Variant>  (123) 
44:0-1

>  <s_i_glide_gridfile>  (123) 
pfpi4k_grid

>  <i_i_glide_lignum>  (123) 
19

>  <i_i_glide_rotatable_bonds>  (123) 
2

>  <r_i_docking_score>  (123) 
-3.61853

>  <r_i_glide_ligand_efficiency>  (123) 
-0.129233

>  <r_i_glide_ligand_efficiency_sa>  (123) 
-0.392428

>  <r_i_glide_ligand_efficiency_ln>  (123) 
-0.835262

>  <r_i_glide_gscore>  (123) 
-3.61853

>  <r_i_glide_lipo>  (123) 
-0.421086

>  <r_i_glide_hbond>  (123) 
-0.2

>  <r_i_glide_metal>  (123) 
-0

>  <r_i_glide_rewards>  (123) 
-0.787284

>  <r_i_glide_evdw>  (123) 
-28.0063

>  <r_i_glide_ecoul>  (123) 
-6.44698

>  <r_i_glide_erotb>  (123) 
0.262992

>  <r_i_glide_esite>  (123) 
-0.105787

>  <r_i_glide_emodel>  (123) 
-38.6879

>  <r_i_glide_energy>  (123) 
-34.4532

>  <r_i_glide_einternal>  (123) 
5.48668

>  <r_i_glide_intrahb_reward>  (123) 
-0

>  <i_i_glide_confnum>  (123) 
4

>  <i_i_glide_posenum>  (123) 
23

>  <r_i_glide_eff_state_penalty>  (123) 
0

>  <ligand_id>  (123) 
44

>  <original_smiles>  (123) 
CC12C(=O)CCC3C(C=CC4CC5(CCCCC5)OC4=O)C4CC(NCC41)C32

>  <smiles>  (123) 
[H]C(=C([H])C1([H])C2([H])C([H])([H])C3([H])C4([H])C1([H])C([H])([H])C([H])([H])C(=O)C4(C([H])([H])[H])C2([H])C([H])([H])[N+]3([H])[H])C1([H])C(=O)OC2(C1([H])[H])C([H])([H])C([H])([H])C([H])([H])C([H])([H])C2([H])[H]

$$$$
44:0:1
     RDKit          3D

 62 67  0  0  1  0  0  0  0  0999 V2000
    2.0216    0.1764    5.9959 C   0  0  0  0  0  0  0  0  0  0  0  0
    1.3402    0.8008    4.7033 C   0  0  1  0  0  0  0  0  0  0  0  0
    0.0840    1.3347    5.3283 C   0  0  0  0  0  0  0  0  0  0  0  0
   -0.1582    2.5218    5.5362 O   0  0  0  0  0  0  0  0  0  0  0  0
   -0.8721    0.1280    5.5975 C   0  0  0  0  0  0  0  0  0  0  0  0
   -0.3877   -1.2796    4.9485 C   0  0  0  0  0  0  0  0  0  0  0  0
    0.7090   -1.3520    3.7260 C   0  0  2  0  0  0  0  0  0  0  0  0
    2.3544   -1.3724    3.6110 C   0  0  1  0  0  0  0  0  0  0  0  0
    2.6806   -2.5467    2.7587 C   0  0  0  0  0  0  0  0  0  0  0  0
    3.5698   -3.5412    2.9848 C   0  0  0  0  0  0  0  0  0  0  0  0
    3.9460   -4.6782    2.0203 C   0  0  2  0  0  0  0  0  0  0  0  0
    5.1759   -4.3184    1.1551 C   0  0  0  0  0  0  0  0  0  0  0  0
    4.6048   -3.6666   -0.1212 C   0  0  0  0  0  0  0  0  0  0  0  0
    5.3869   -3.9564   -1.4217 C   0  0  0  0  0  0  0  0  0  0  0  0
    4.8204   -3.1850   -2.6511 C   0  0  0  0  0  0  0  0  0  0  0  0
    4.7024   -1.6656   -2.4043 C   0  0  0  0  0  0  0  0  0  0  0  0
    3.8963   -1.4225   -1.1322 C   0  0  0  0  0  0  0  0  0  0  0  0
    4.5257   -2.1200    0.1075 C   0  0  0  0  0  0  0  0  0  0  0  0
    3.3083   -4.2739   -0.2182 O   0  0  0  0  0  0  0  0  0  0  0  0
    2.8794   -4.8847    0.9389 C   0  0  0  0  0  0  0  0  0  0  0  0
    1.8138   -5.4956    1.1010 O   0  0  0  0  0  0  0  0  0  0  0  0
    3.0282    0.0435    3.1298 C   0  0  1  0  0  0  0  0  0  0  0  0
    2.4694    0.2752    1.7234 C   0  0  0  0  0  0  0  0  0  0  0  0
    1.0369    0.6793    2.0369 C   0  0  2  0  0  0  0  0  0  0  0  0
    1.0415    2.1527    2.1364 N   0  0  0  0  0  0  0  0  0  0  0  0
    2.1008    2.5936    3.0775 C   0  0  0  0  0  0  0  0  0  0  0  0
    2.5506    1.3765    3.9639 C   0  0  1  0  0  0  0  0  0  0  0  0
    0.5920    0.1171    3.4489 C   0  0  2  0  0  0  0  0  0  0  0  0
    3.0465   -0.1688    5.8623 H   0  0  0  0  0  0  0  0  0  0  0  0
    1.4767   -0.6143    6.4999 H   0  0  0  0  0  0  0  0  0  0  0  0
    2.1455    0.9667    6.7363 H   0  0  0  0  0  0  0  0  0  0  0  0
   -0.9886    0.0240    6.6727 H   0  0  0  0  0  0  0  0  0  0  0  0
   -1.8466    0.3907    5.1826 H   0  0  0  0  0  0  0  0  0  0  0  0
   -0.1618   -1.9322    5.8035 H   0  0  0  0  0  0  0  0  0  0  0  0
   -1.2909   -1.7284    4.5331 H   0  0  0  0  0  0  0  0  0  0  0  0
    1.0784   -2.0172    4.4916 H   0  0  0  0  0  0  0  0  0  0  0  0
    2.8690   -1.6671    4.5426 H   0  0  0  0  0  0  0  0  0  0  0  0
    2.1366   -2.5316    1.7881 H   0  0  0  0  0  0  0  0  0  0  0  0
    4.0806   -3.5748    3.9478 H   0  0  0  0  0  0  0  0  0  0  0  0
    4.1327   -5.6060    2.5563 H   0  0  0  0  0  0  0  0  0  0  0  0
    5.8863   -3.6427    1.6559 H   0  0  0  0  0  0  0  0  0  0  0  0
    5.7351   -5.2150    0.8951 H   0  0  0  0  0  0  0  0  0  0  0  0
    6.4208   -3.6451   -1.2762 H   0  0  0  0  0  0  0  0  0  0  0  0
    5.3959   -5.0280   -1.6309 H   0  0  0  0  0  0  0  0  0  0  0  0
    5.4624   -3.3534   -3.5250 H   0  0  0  0  0  0  0  0  0  0  0  0
    3.8328   -3.5840   -2.8963 H   0  0  0  0  0  0  0  0  0  0  0  0
    5.6915   -1.2376   -2.2349 H   0  0  0  0  0  0  0  0  0  0  0  0
    4.2452   -1.1403   -3.2522 H   0  0  0  0  0  0  0  0  0  0  0  0
    3.8618   -0.3608   -0.9198 H   0  0  0  0  0  0  0  0  0  0  0  0
    2.8694   -1.7633   -1.2757 H   0  0  0  0  0  0  0  0  0  0  0  0
    3.9783   -1.8762    0.9257 H   0  0  0  0  0  0  0  0  0  0  0  0
    5.5800   -1.7180    0.1682 H   0  0  0  0  0  0  0  0  0  0  0  0
    4.1133   -0.0191    3.0836 H   0  0  0  0  0  0  0  0  0  0  0  0
    3.0457    1.0525    1.2005 H   0  0  0  0  0  0  0  0  0  0  0  0
    2.4146   -0.5775    1.0657 H   0  0  0  0  0  0  0  0  0  0  0  0
    0.3781    0.3517    1.2424 H   0  0  0  0  0  0  0  0  0  0  0  0
    1.1623    2.6307    1.2305 H   0  0  0  0  0  0  0  0  0  0  0  0
    2.9487    2.9865    2.5053 H   0  0  0  0  0  0  0  0  0  0  0  0
    1.7097    3.4118    3.6871 H   0  0  0  0  0  0  0  0  0  0  0  0
    3.3301    1.7148    4.6386 H   0  0  0  0  0  0  0  0  0  0  0  0
   -0.4674    0.3416    3.2791 H   0  0  0  0  0  0  0  0  0  0  0  0
    0.1218    2.4530    2.4745 H   0  0  0  0  0  0  0  0  0  0  0  0
  2  1  1  1
  1 29  1  0
  1 30  1  0
  1 31  1  0
  2 27  1  0
  2 28  1  0
  2  3  1  0
  3  4  2  0
  3  5  1  0
  5  6  1  0
  5 32  1  0
  5 33  1  0
  6  7  1  0
  6 34  1  0
  6 35  1  0
  7 28  1  0
  7  8  1  0
  7 36  1  6
  8  9  1  0
  8 22  1  0
  8 37  1  1
  9 10  2  3
  9 38  1  0
 10 11  1  0
 10 39  1  0
 11 20  1  0
 11 12  1  0
 11 40  1  1
 12 13  1  0
 12 41  1  0
 12 42  1  0
 13 18  1  0
 13 14  1  0
 13 19  1  0
 14 15  1  0
 14 43  1  0
 14 44  1  0
 15 16  1  0
 15 45  1  0
 15 46  1  0
 16 17  1  0
 16 47  1  0
 16 48  1  0
 17 18  1  0
 17 49  1  0
 17 50  1  0
 18 51  1  0
 18 52  1  0
 19 20  1  0
 20 21  2  0
 22 27  1  0
 22 23  1  0
 22 53  1  6
 23 24  1  0
 23 54  1  0
 23 55  1  0
 24 25  1  0
 24 28  1  0
 24 56  1  6
 25 26  1  0
 25 57  1  0
 25 62  1  0
 26 27  1  0
 26 58  1  0
 26 59  1  0
 27 60  1  1
 28 61  1  1
M  CHG  1  25   1
M  END
>  <i_m_ct_stereo_status>  (124) 
1

>  <s_m_source_file>  (124) 
/var/tmp/pbs.5076255.sched01/tmpaqd8m8vp/41rn73ajce.sdf

>  <i_m_source_file_index>  (124) 
19

>  <i_lp_mmshare_version>  (124) 
48012

>  <i_f3d_flags>  (124) 
0

>  <s_epik_input>  (124) 
Tz1DMVtDSDJdW0NIMl1bQ0hdKFtDSF0yW0NASF0oW0NIMl0zKVtOSF1bQ0gyXTQpW0NASF0oW0NAQEhdM1tDQEBIXTRbQ0BAXTEyW0NIM10pL1tDSF09W0NIXS9bQ0BASF0oQyhPNSk9TylbQ0gyXUM1NltDSDJdW0NIMl1bQ0gyXVtDSDJdW0NIMl02

>  <s_epik_cmdline>  (124) 
J2VwaWtfcHl0aG9uJywgJy1waHQnLCAnMi4wJywgJy1waCcsICc3LjAnLCAnLXRuJywgJzgnLCAnLW1hJywgJzIwMCcsICctaW1hZScsICc8aW5maWxlLm1hZT4nLCAnLW9tYWUnLCAnPG91dGZpbGUubWFlPic=

>  <r_lp_tautomer_probability>  (124) 
0.99995

>  <r_epik_Ionization_Penalty>  (124) 
0.000329963

>  <r_epik_Ionization_Penalty_Charging>  (124) 
0.000329963

>  <r_epik_Ionization_Penalty_Neutral>  (124) 
8.61707e-13

>  <r_epik_State_Penalty>  (124) 
0.000199631

>  <r_epik_Charging_Adjusted_Penalty>  (124) 
0.000529593

>  <i_epik_Tot_Q>  (124) 
1

>  <i_epik_Tot_abs_Q>  (124) 
1

>  <s_epik_Chemistry_Notes>  (124) 
This compound has an ester and may undergo hydrolysis at high or low pH.

>  <s_lp_Force_Field>  (124) 
OPLS3e

>  <r_lp_Energy>  (124) 
227.014

>  <b_lp_Chiralities_Consistent>  (124) 
1

>  <s_lp_Variant>  (124) 
44:0-1

>  <s_i_glide_gridfile>  (124) 
pfpi4k_grid

>  <i_i_glide_lignum>  (124) 
19

>  <i_i_glide_rotatable_bonds>  (124) 
2

>  <r_i_docking_score>  (124) 
-3.1705

>  <r_i_glide_ligand_efficiency>  (124) 
-0.113232

>  <r_i_glide_ligand_efficiency_sa>  (124) 
-0.343839

>  <r_i_glide_ligand_efficiency_ln>  (124) 
-0.731843

>  <r_i_glide_gscore>  (124) 
-3.1705

>  <r_i_glide_lipo>  (124) 
-0.203697

>  <r_i_glide_hbond>  (124) 
-0.178287

>  <r_i_glide_metal>  (124) 
-0

>  <r_i_glide_rewards>  (124) 
-0.787284

>  <r_i_glide_evdw>  (124) 
-28.2574

>  <r_i_glide_ecoul>  (124) 
-4.92484

>  <r_i_glide_erotb>  (124) 
0.262992

>  <r_i_glide_esite>  (124) 
-0.112625

>  <r_i_glide_emodel>  (124) 
-36.7463

>  <r_i_glide_energy>  (124) 
-33.1822

>  <r_i_glide_einternal>  (124) 
5.14849

>  <r_i_glide_intrahb_reward>  (124) 
-0

>  <i_i_glide_confnum>  (124) 
5

>  <i_i_glide_posenum>  (124) 
10

>  <r_i_glide_eff_state_penalty>  (124) 
0

>  <ligand_id>  (124) 
44

>  <original_smiles>  (124) 
CC12C(=O)CCC3C(C=CC4CC5(CCCCC5)OC4=O)C4CC(NCC41)C32

>  <smiles>  (124) 
[H]C(=C([H])C1([H])C2([H])C([H])([H])C3([H])C4([H])C1([H])C([H])([H])C([H])([H])C(=O)C4(C([H])([H])[H])C2([H])C([H])([H])[N+]3([H])[H])C1([H])C(=O)OC2(C1([H])[H])C([H])([H])C([H])([H])C([H])([H])C([H])([H])C2([H])[H]

$$$$
44:0:2
     RDKit          3D

 62 67  0  0  1  0  0  0  0  0999 V2000
    0.0297   -7.3437    5.2550 C   0  0  0  0  0  0  0  0  0  0  0  0
    0.8764   -8.6509    5.6077 C   0  0  1  0  0  0  0  0  0  0  0  0
    0.3071   -8.9359    6.9783 C   0  0  0  0  0  0  0  0  0  0  0  0
   -0.4807   -9.8268    7.2714 O   0  0  0  0  0  0  0  0  0  0  0  0
    0.9391   -7.9156    7.9725 C   0  0  0  0  0  0  0  0  0  0  0  0
    2.1453   -7.0194    7.3478 C   0  0  0  0  0  0  0  0  0  0  0  0
    2.9829   -7.4544    5.9918 C   0  0  2  0  0  0  0  0  0  0  0  0
    2.7899   -7.3119    4.3735 C   0  0  1  0  0  0  0  0  0  0  0  0
    4.1032   -6.7810    3.7935 C   0  0  0  0  0  0  0  0  0  0  0  0
    4.2286   -5.6141    3.1409 C   0  0  0  0  0  0  0  0  0  0  0  0
    5.5319   -5.1241    2.5140 C   0  0  2  0  0  0  0  0  0  0  0  0
    5.5148   -3.6348    2.1942 C   0  0  0  0  0  0  0  0  0  0  0  0
    5.0101   -3.5471    0.7339 C   0  0  0  0  0  0  0  0  0  0  0  0
    5.6432   -2.3722   -0.0561 C   0  0  0  0  0  0  0  0  0  0  0  0
    5.0323   -2.2269   -1.4662 C   0  0  0  0  0  0  0  0  0  0  0  0
    3.4996   -2.1228   -1.4220 C   0  0  0  0  0  0  0  0  0  0  0  0
    2.8977   -3.3274   -0.6916 C   0  0  0  0  0  0  0  0  0  0  0  0
    3.4643   -3.4682    0.7133 C   0  0  0  0  0  0  0  0  0  0  0  0
    5.4323   -4.7841    0.1882 O   0  0  0  0  0  0  0  0  0  0  0  0
    5.6888   -5.7199    1.1206 C   0  0  0  0  0  0  0  0  0  0  0  0
    6.0104   -6.8896    0.9258 O   0  0  0  0  0  0  0  0  0  0  0  0
    2.2248   -8.6397    3.5750 C   0  0  1  0  0  0  0  0  0  0  0  0
    3.3572   -9.6459    3.7665 C   0  0  0  0  0  0  0  0  0  0  0  0
    3.1814  -10.0047    5.2484 C   0  0  2  0  0  0  0  0  0  0  0  0
    2.2802  -11.1760    5.2734 N   0  0  0  0  0  0  0  0  0  0  0  0
    1.0582  -10.8992    4.4705 C   0  0  0  0  0  0  0  0  0  0  0  0
    0.9149   -9.3584    4.2508 C   0  0  1  0  0  0  0  0  0  0  0  0
    2.4240   -8.8433    6.0299 C   0  0  2  0  0  0  0  0  0  0  0  0
    0.1407   -6.9723    4.2394 H   0  0  0  0  0  0  0  0  0  0  0  0
    0.1332   -6.4930    5.9245 H   0  0  0  0  0  0  0  0  0  0  0  0
   -1.0314   -7.6046    5.2776 H   0  0  0  0  0  0  0  0  0  0  0  0
    0.1459   -7.2745    8.3579 H   0  0  0  0  0  0  0  0  0  0  0  0
    1.3225   -8.4892    8.8199 H   0  0  0  0  0  0  0  0  0  0  0  0
    1.7605   -5.9864    7.3530 H   0  0  0  0  0  0  0  0  0  0  0  0
    2.8985   -6.9841    8.1374 H   0  0  0  0  0  0  0  0  0  0  0  0
    2.6475   -6.4390    5.8222 H   0  0  0  0  0  0  0  0  0  0  0  0
    2.1052   -6.5120    4.0733 H   0  0  0  0  0  0  0  0  0  0  0  0
    4.9901   -7.3901    3.9134 H   0  0  0  0  0  0  0  0  0  0  0  0
    3.3544   -4.9831    3.0437 H   0  0  0  0  0  0  0  0  0  0  0  0
    6.3913   -5.4031    3.1429 H   0  0  0  0  0  0  0  0  0  0  0  0
    4.8951   -3.0517    2.8870 H   0  0  0  0  0  0  0  0  0  0  0  0
    6.5262   -3.2365    2.2545 H   0  0  0  0  0  0  0  0  0  0  0  0
    5.4780   -1.4440    0.4902 H   0  0  0  0  0  0  0  0  0  0  0  0
    6.7290   -2.4906   -0.1291 H   0  0  0  0  0  0  0  0  0  0  0  0
    5.4382   -1.3419   -1.9621 H   0  0  0  0  0  0  0  0  0  0  0  0
    5.3208   -3.0843   -2.0790 H   0  0  0  0  0  0  0  0  0  0  0  0
    3.2062   -1.2083   -0.9021 H   0  0  0  0  0  0  0  0  0  0  0  0
    3.0807   -2.0616   -2.4252 H   0  0  0  0  0  0  0  0  0  0  0  0
    1.8175   -3.2099   -0.6210 H   0  0  0  0  0  0  0  0  0  0  0  0
    3.0827   -4.2427   -1.2469 H   0  0  0  0  0  0  0  0  0  0  0  0
    3.0022   -4.3551    1.1327 H   0  0  0  0  0  0  0  0  0  0  0  0
    3.1401   -2.6054    1.3058 H   0  0  0  0  0  0  0  0  0  0  0  0
    2.0657   -8.4368    2.5091 H   0  0  0  0  0  0  0  0  0  0  0  0
    3.2380  -10.5041    3.0947 H   0  0  0  0  0  0  0  0  0  0  0  0
    4.3521   -9.2823    3.5397 H   0  0  0  0  0  0  0  0  0  0  0  0
    4.1435  -10.2376    5.7099 H   0  0  0  0  0  0  0  0  0  0  0  0
    2.7504  -11.9919    4.9080 H   0  0  0  0  0  0  0  0  0  0  0  0
    1.1383  -11.4151    3.5104 H   0  0  0  0  0  0  0  0  0  0  0  0
    0.2043  -11.3233    5.0039 H   0  0  0  0  0  0  0  0  0  0  0  0
    0.0156   -9.1777    3.6581 H   0  0  0  0  0  0  0  0  0  0  0  0
    2.6389   -9.2676    7.0222 H   0  0  0  0  0  0  0  0  0  0  0  0
    1.9960  -11.3954    6.2294 H   0  0  0  0  0  0  0  0  0  0  0  0
  2  1  1  6
  1 29  1  0
  1 30  1  0
  1 31  1  0
  2 27  1  0
  2 28  1  0
  2  3  1  0
  3  4  2  0
  3  5  1  0
  5  6  1  0
  5 32  1  0
  5 33  1  0
  6  7  1  0
  6 34  1  0
  6 35  1  0
  7 28  1  0
  7  8  1  0
  7 36  1  1
  8  9  1  0
  8 22  1  0
  8 37  1  1
  9 10  2  3
  9 38  1  0
 10 11  1  0
 10 39  1  0
 11 20  1  0
 11 12  1  0
 11 40  1  1
 12 13  1  0
 12 41  1  0
 12 42  1  0
 13 18  1  0
 13 14  1  0
 13 19  1  0
 14 15  1  0
 14 43  1  0
 14 44  1  0
 15 16  1  0
 15 45  1  0
 15 46  1  0
 16 17  1  0
 16 47  1  0
 16 48  1  0
 17 18  1  0
 17 49  1  0
 17 50  1  0
 18 51  1  0
 18 52  1  0
 19 20  1  0
 20 21  2  0
 22 27  1  0
 22 23  1  0
 22 53  1  6
 23 24  1  0
 23 54  1  0
 23 55  1  0
 24 25  1  0
 24 28  1  0
 24 56  1  1
 25 26  1  0
 25 57  1  0
 25 62  1  0
 26 27  1  0
 26 58  1  0
 26 59  1  0
 27 60  1  6
 28 61  1  1
M  CHG  1  25   1
M  END
>  <i_m_ct_stereo_status>  (125) 
1

>  <s_m_source_file>  (125) 
/var/tmp/pbs.5076255.sched01/tmpaqd8m8vp/41rn73ajce.sdf

>  <i_m_source_file_index>  (125) 
19

>  <i_lp_mmshare_version>  (125) 
48012

>  <i_f3d_flags>  (125) 
0

>  <s_epik_input>  (125) 
Tz1DMVtDSDJdW0NIMl1bQ0hdKFtDSF0yW0NASF0oW0NIMl0zKVtOSF1bQ0gyXTQpW0NASF0oW0NAQEhdM1tDQEBIXTRbQ0BAXTEyW0NIM10pL1tDSF09W0NIXS9bQ0BASF0oQyhPNSk9TylbQ0gyXUM1NltDSDJdW0NIMl1bQ0gyXVtDSDJdW0NIMl02

>  <s_epik_cmdline>  (125) 
J2VwaWtfcHl0aG9uJywgJy1waHQnLCAnMi4wJywgJy1waCcsICc3LjAnLCAnLXRuJywgJzgnLCAnLW1hJywgJzIwMCcsICctaW1hZScsICc8aW5maWxlLm1hZT4nLCAnLW9tYWUnLCAnPG91dGZpbGUubWFlPic=

>  <r_lp_tautomer_probability>  (125) 
0.99995

>  <r_epik_Ionization_Penalty>  (125) 
0.000329963

>  <r_epik_Ionization_Penalty_Charging>  (125) 
0.000329963

>  <r_epik_Ionization_Penalty_Neutral>  (125) 
8.61707e-13

>  <r_epik_State_Penalty>  (125) 
0.000199631

>  <r_epik_Charging_Adjusted_Penalty>  (125) 
0.000529593

>  <i_epik_Tot_Q>  (125) 
1

>  <i_epik_Tot_abs_Q>  (125) 
1

>  <s_epik_Chemistry_Notes>  (125) 
This compound has an ester and may undergo hydrolysis at high or low pH.

>  <s_lp_Force_Field>  (125) 
OPLS3e

>  <r_lp_Energy>  (125) 
227.014

>  <b_lp_Chiralities_Consistent>  (125) 
1

>  <s_lp_Variant>  (125) 
44:0-1

>  <s_i_glide_gridfile>  (125) 
pfpi4k_grid

>  <i_i_glide_lignum>  (125) 
19

>  <i_i_glide_rotatable_bonds>  (125) 
2

>  <r_i_docking_score>  (125) 
-3.1139

>  <r_i_glide_ligand_efficiency>  (125) 
-0.111211

>  <r_i_glide_ligand_efficiency_sa>  (125) 
-0.337701

>  <r_i_glide_ligand_efficiency_ln>  (125) 
-0.718779

>  <r_i_glide_gscore>  (125) 
-3.1139

>  <r_i_glide_lipo>  (125) 
-0.0969156

>  <r_i_glide_hbond>  (125) 
-0.2

>  <r_i_glide_metal>  (125) 
-0

>  <r_i_glide_rewards>  (125) 
-0.900308

>  <r_i_glide_evdw>  (125) 
-24.3227

>  <r_i_glide_ecoul>  (125) 
-5.43346

>  <r_i_glide_erotb>  (125) 
0.262992

>  <r_i_glide_esite>  (125) 
-0.148512

>  <r_i_glide_emodel>  (125) 
-37.1384

>  <r_i_glide_energy>  (125) 
-29.7562

>  <r_i_glide_einternal>  (125) 
0.548931

>  <r_i_glide_intrahb_reward>  (125) 
-0

>  <i_i_glide_confnum>  (125) 
1

>  <i_i_glide_posenum>  (125) 
5

>  <r_i_glide_eff_state_penalty>  (125) 
0

>  <ligand_id>  (125) 
44

>  <original_smiles>  (125) 
CC12C(=O)CCC3C(C=CC4CC5(CCCCC5)OC4=O)C4CC(NCC41)C32

>  <smiles>  (125) 
[H]C(=C([H])C1([H])C2([H])C([H])([H])C3([H])C4([H])C1([H])C([H])([H])C([H])([H])C(=O)C4(C([H])([H])[H])C2([H])C([H])([H])[N+]3([H])[H])C1([H])C(=O)OC2(C1([H])[H])C([H])([H])C([H])([H])C([H])([H])C([H])([H])C2([H])[H]

$$$$
44:1:0
     RDKit          3D

 62 67  0  0  1  0  0  0  0  0999 V2000
   -0.7907    2.8524    5.7335 C   0  0  0  0  0  0  0  0  0  0  0  0
   -0.0662    3.2534    4.3622 C   0  0  1  0  0  0  0  0  0  0  0  0
   -1.2645    3.7589    3.6179 C   0  0  0  0  0  0  0  0  0  0  0  0
   -1.5343    4.9393    3.3878 O   0  0  0  0  0  0  0  0  0  0  0  0
   -2.0940    2.5314    3.1583 C   0  0  0  0  0  0  0  0  0  0  0  0
   -1.3478    1.0973    3.3885 C   0  0  0  0  0  0  0  0  0  0  0  0
    0.2825    0.9414    3.6019 C   0  0  2  0  0  0  0  0  0  0  0  0
    1.3177    1.0654    4.8744 C   0  0  1  0  0  0  0  0  0  0  0  0
    2.2220   -0.1675    4.9001 C   0  0  0  0  0  0  0  0  0  0  0  0
    2.2288   -1.1388    5.8293 C   0  0  0  0  0  0  0  0  0  0  0  0
    1.3086   -1.2757    7.0451 C   0  0  2  0  0  0  0  0  0  0  0  0
    1.7576   -2.4045    7.9748 C   0  0  0  0  0  0  0  0  0  0  0  0
    0.9819   -3.6476    7.4781 C   0  0  0  0  0  0  0  0  0  0  0  0
    0.5766   -4.6041    8.6200 C   0  0  0  0  0  0  0  0  0  0  0  0
   -0.1066   -5.8784    8.0829 C   0  0  0  0  0  0  0  0  0  0  0  0
    0.7482   -6.5867    7.0201 C   0  0  0  0  0  0  0  0  0  0  0  0
    1.0803   -5.6368    5.8700 C   0  0  0  0  0  0  0  0  0  0  0  0
    1.7816   -4.3861    6.3806 C   0  0  0  0  0  0  0  0  0  0  0  0
   -0.1863   -3.0776    6.9109 O   0  0  0  0  0  0  0  0  0  0  0  0
   -0.0733   -1.7837    6.6338 C   0  0  0  0  0  0  0  0  0  0  0  0
   -0.9745   -1.0746    6.1746 O   0  0  0  0  0  0  0  0  0  0  0  0
    2.1520    2.4672    4.9951 C   0  0  1  0  0  0  0  0  0  0  0  0
    3.0155    2.4463    3.7368 C   0  0  0  0  0  0  0  0  0  0  0  0
    1.9682    2.7437    2.6602 C   0  0  2  0  0  0  0  0  0  0  0  0
    1.9648    4.2051    2.4991 N   0  0  0  0  0  0  0  0  0  0  0  0
    1.7906    4.8667    3.8186 C   0  0  0  0  0  0  0  0  0  0  0  0
    1.2559    3.8332    4.8640 C   0  0  1  0  0  0  0  0  0  0  0  0
    0.5109    2.3453    3.1536 C   0  0  2  0  0  0  0  0  0  0  0  0
   -0.1240    2.5984    6.5566 H   0  0  0  0  0  0  0  0  0  0  0  0
   -1.5474    2.0746    5.6896 H   0  0  0  0  0  0  0  0  0  0  0  0
   -1.3074    3.7302    6.1297 H   0  0  0  0  0  0  0  0  0  0  0  0
   -3.0615    2.5262    3.6618 H   0  0  0  0  0  0  0  0  0  0  0  0
   -2.3028    2.6340    2.0925 H   0  0  0  0  0  0  0  0  0  0  0  0
   -1.9654    0.5714    4.1315 H   0  0  0  0  0  0  0  0  0  0  0  0
   -1.5570    0.5266    2.4831 H   0  0  0  0  0  0  0  0  0  0  0  0
   -0.1768    0.3940    4.4096 H   0  0  0  0  0  0  0  0  0  0  0  0
    0.8216    0.9672    5.8369 H   0  0  0  0  0  0  0  0  0  0  0  0
    2.9194   -0.3012    4.0826 H   0  0  0  0  0  0  0  0  0  0  0  0
    2.9902   -1.8954    5.6864 H   0  0  0  0  0  0  0  0  0  0  0  0
    1.2550   -0.3254    7.5794 H   0  0  0  0  0  0  0  0  0  0  0  0
    2.8422   -2.5728    7.9717 H   0  0  0  0  0  0  0  0  0  0  0  0
    1.4872   -2.1522    9.0001 H   0  0  0  0  0  0  0  0  0  0  0  0
    1.4704   -4.8914    9.1793 H   0  0  0  0  0  0  0  0  0  0  0  0
   -0.0825   -4.1047    9.3384 H   0  0  0  0  0  0  0  0  0  0  0  0
   -0.2921   -6.5668    8.9073 H   0  0  0  0  0  0  0  0  0  0  0  0
   -1.0816   -5.6261    7.6628 H   0  0  0  0  0  0  0  0  0  0  0  0
    1.6759   -6.9396    7.4722 H   0  0  0  0  0  0  0  0  0  0  0  0
    0.2319   -7.4630    6.6316 H   0  0  0  0  0  0  0  0  0  0  0  0
    1.7345   -6.1260    5.1489 H   0  0  0  0  0  0  0  0  0  0  0  0
    0.1753   -5.3532    5.3340 H   0  0  0  0  0  0  0  0  0  0  0  0
    1.9473   -3.7615    5.5070 H   0  0  0  0  0  0  0  0  0  0  0  0
    2.7620   -4.6635    6.7788 H   0  0  0  0  0  0  0  0  0  0  0  0
    2.7803    2.4775    5.8920 H   0  0  0  0  0  0  0  0  0  0  0  0
    3.8007    3.2076    3.7929 H   0  0  0  0  0  0  0  0  0  0  0  0
    3.5526    1.5289    3.5408 H   0  0  0  0  0  0  0  0  0  0  0  0
    2.2143    2.2451    1.7228 H   0  0  0  0  0  0  0  0  0  0  0  0
    2.8277    4.5115    2.0632 H   0  0  0  0  0  0  0  0  0  0  0  0
    2.7527    5.2560    4.1546 H   0  0  0  0  0  0  0  0  0  0  0  0
    1.1183    5.7189    3.7201 H   0  0  0  0  0  0  0  0  0  0  0  0
    1.1527    4.3205    5.8328 H   0  0  0  0  0  0  0  0  0  0  0  0
    0.0532    2.4633    2.1607 H   0  0  0  0  0  0  0  0  0  0  0  0
    1.1819    4.4224    1.8582 H   0  0  0  0  0  0  0  0  0  0  0  0
  2  1  1  1
  1 29  1  0
  1 30  1  0
  1 31  1  0
  2 27  1  0
  2 28  1  0
  2  3  1  0
  3  4  2  0
  3  5  1  0
  5  6  1  0
  5 32  1  0
  5 33  1  0
  6  7  1  0
  6 34  1  0
  6 35  1  0
  7 28  1  0
  7  8  1  0
  7 36  1  6
  8  9  1  0
  8 22  1  0
  8 37  1  1
  9 10  2  3
  9 38  1  0
 10 11  1  0
 10 39  1  0
 11 20  1  0
 11 12  1  0
 11 40  1  1
 12 13  1  0
 12 41  1  0
 12 42  1  0
 13 18  1  0
 13 14  1  0
 13 19  1  0
 14 15  1  0
 14 43  1  0
 14 44  1  0
 15 16  1  0
 15 45  1  0
 15 46  1  0
 16 17  1  0
 16 47  1  0
 16 48  1  0
 17 18  1  0
 17 49  1  0
 17 50  1  0
 18 51  1  0
 18 52  1  0
 19 20  1  0
 20 21  2  0
 22 27  1  0
 22 23  1  0
 22 53  1  1
 23 24  1  0
 23 54  1  0
 23 55  1  0
 24 25  1  0
 24 28  1  0
 24 56  1  6
 25 26  1  0
 25 57  1  0
 25 62  1  0
 26 27  1  0
 26 58  1  0
 26 59  1  0
 27 60  1  1
 28 61  1  6
M  CHG  1  25   1
M  END
>  <i_m_ct_stereo_status>  (126) 
1

>  <s_m_source_file>  (126) 
/var/tmp/pbs.5076255.sched01/tmpaqd8m8vp/41rn73ajce.sdf

>  <i_m_source_file_index>  (126) 
20

>  <i_lp_mmshare_version>  (126) 
48012

>  <i_f3d_flags>  (126) 
0

>  <s_epik_input>  (126) 
Tz1DMVtDSDJdW0NIMl1bQ0hdKFtDSF0yW0NASF0oW0NIMl0zKVtOSF1bQ0gyXTQpW0NASF0oW0NAQEhdM1tDQEBIXTRbQ0BAXTEyW0NIM10pL1tDSF09W0NIXS9bQ0BASF0oQyhPNSk9TylbQ0gyXUM1NltDSDJdW0NIMl1bQ0gyXVtDSDJdW0NIMl02

>  <s_epik_cmdline>  (126) 
J2VwaWtfcHl0aG9uJywgJy1waHQnLCAnMi4wJywgJy1waCcsICc3LjAnLCAnLXRuJywgJzgnLCAnLW1hJywgJzIwMCcsICctaW1hZScsICc8aW5maWxlLm1hZT4nLCAnLW9tYWUnLCAnPG91dGZpbGUubWFlPic=

>  <r_lp_tautomer_probability>  (126) 
0.99995

>  <r_epik_Ionization_Penalty>  (126) 
0.000329963

>  <r_epik_Ionization_Penalty_Charging>  (126) 
0.000329963

>  <r_epik_Ionization_Penalty_Neutral>  (126) 
8.61707e-13

>  <r_epik_State_Penalty>  (126) 
0.000199631

>  <r_epik_Charging_Adjusted_Penalty>  (126) 
0.000529593

>  <i_epik_Tot_Q>  (126) 
1

>  <i_epik_Tot_abs_Q>  (126) 
1

>  <s_epik_Chemistry_Notes>  (126) 
This compound has an ester and may undergo hydrolysis at high or low pH.

>  <s_lp_Force_Field>  (126) 
OPLS3e

>  <r_lp_Energy>  (126) 
226.742

>  <b_lp_Chiralities_Consistent>  (126) 
1

>  <s_lp_Variant>  (126) 
44:0-2

>  <s_i_glide_gridfile>  (126) 
pfpi4k_grid

>  <i_i_glide_lignum>  (126) 
20

>  <i_i_glide_rotatable_bonds>  (126) 
2

>  <r_i_docking_score>  (126) 
-3.77624

>  <r_i_glide_ligand_efficiency>  (126) 
-0.134866

>  <r_i_glide_ligand_efficiency_sa>  (126) 
-0.409532

>  <r_i_glide_ligand_efficiency_ln>  (126) 
-0.871668

>  <r_i_glide_gscore>  (126) 
-3.77624

>  <r_i_glide_lipo>  (126) 
0

>  <r_i_glide_hbond>  (126) 
-0.375824

>  <r_i_glide_metal>  (126) 
-0

>  <r_i_glide_rewards>  (126) 
-0.787284

>  <r_i_glide_evdw>  (126) 
-19.6588

>  <r_i_glide_ecoul>  (126) 
-11.1162

>  <r_i_glide_erotb>  (126) 
0.262992

>  <r_i_glide_esite>  (126) 
-0.225756

>  <r_i_glide_emodel>  (126) 
-39.6028

>  <r_i_glide_energy>  (126) 
-30.775

>  <r_i_glide_einternal>  (126) 
1.51854

>  <r_i_glide_intrahb_reward>  (126) 
-0

>  <i_i_glide_confnum>  (126) 
3

>  <i_i_glide_posenum>  (126) 
2

>  <r_i_glide_eff_state_penalty>  (126) 
0

>  <ligand_id>  (126) 
44

>  <original_smiles>  (126) 
CC12C(=O)CCC3C(C=CC4CC5(CCCCC5)OC4=O)C4CC(NCC41)C32

>  <smiles>  (126) 
[H]C(=C([H])C1([H])C2([H])C([H])([H])C3([H])C4([H])C1([H])C([H])([H])C([H])([H])C(=O)C4(C([H])([H])[H])C2([H])C([H])([H])[N+]3([H])[H])C1([H])C(=O)OC2(C1([H])[H])C([H])([H])C([H])([H])C([H])([H])C([H])([H])C2([H])[H]

$$$$
44:1:1
     RDKit          3D

 62 67  0  0  1  0  0  0  0  0999 V2000
    1.7860   -8.5249    2.0041 C   0  0  0  0  0  0  0  0  0  0  0  0
    1.4823   -9.1891    3.4223 C   0  0  1  0  0  0  0  0  0  0  0  0
    0.4501  -10.1961    2.9843 C   0  0  0  0  0  0  0  0  0  0  0  0
    0.6139  -11.4087    2.9183 O   0  0  0  0  0  0  0  0  0  0  0  0
   -0.8836   -9.4216    2.7331 C   0  0  0  0  0  0  0  0  0  0  0  0
   -0.8716   -7.8732    3.2305 C   0  0  0  0  0  0  0  0  0  0  0  0
    0.2256   -7.2785    4.3207 C   0  0  2  0  0  0  0  0  0  0  0  0
    1.7719   -6.7247    4.2645 C   0  0  1  0  0  0  0  0  0  0  0  0
    1.8411   -5.4008    5.0156 C   0  0  0  0  0  0  0  0  0  0  0  0
    2.6002   -4.3398    4.6888 C   0  0  0  0  0  0  0  0  0  0  0  0
    3.5631   -4.2066    3.4984 C   0  0  2  0  0  0  0  0  0  0  0  0
    4.3840   -2.9175    3.5751 C   0  0  0  0  0  0  0  0  0  0  0  0
    3.5548   -1.8842    2.7684 C   0  0  0  0  0  0  0  0  0  0  0  0
    4.4267   -0.8740    1.9960 C   0  0  0  0  0  0  0  0  0  0  0  0
    3.5581    0.1776    1.2809 C   0  0  0  0  0  0  0  0  0  0  0  0
    2.5949    0.8886    2.2480 C   0  0  0  0  0  0  0  0  0  0  0  0
    1.7044   -0.1301    2.9623 C   0  0  0  0  0  0  0  0  0  0  0  0
    2.5420   -1.1691    3.6942 C   0  0  0  0  0  0  0  0  0  0  0  0
    2.8558   -2.6950    1.8387 O   0  0  0  0  0  0  0  0  0  0  0  0
    2.8053   -3.9845    2.1799 C   0  0  0  0  0  0  0  0  0  0  0  0
    2.2527   -4.8816    1.5509 O   0  0  0  0  0  0  0  0  0  0  0  0
    2.9530   -7.7542    4.7297 C   0  0  1  0  0  0  0  0  0  0  0  0
    2.6312   -7.9690    6.2097 C   0  0  0  0  0  0  0  0  0  0  0  0
    1.3956   -8.8711    6.1012 C   0  0  2  0  0  0  0  0  0  0  0  0
    1.8971  -10.2530    6.0816 N   0  0  0  0  0  0  0  0  0  0  0  0
    2.9613  -10.4206    5.0538 C   0  0  0  0  0  0  0  0  0  0  0  0
    2.8809   -9.2413    4.0451 C   0  0  1  0  0  0  0  0  0  0  0  0
    0.6544   -8.6654    4.7093 C   0  0  2  0  0  0  0  0  0  0  0  0
    2.6422   -7.8531    1.9685 H   0  0  0  0  0  0  0  0  0  0  0  0
    0.9612   -8.0163    1.5088 H   0  0  0  0  0  0  0  0  0  0  0  0
    2.0933   -9.3093    1.3047 H   0  0  0  0  0  0  0  0  0  0  0  0
   -1.1385   -9.4937    1.6779 H   0  0  0  0  0  0  0  0  0  0  0  0
   -1.6684   -9.9494    3.2759 H   0  0  0  0  0  0  0  0  0  0  0  0
   -0.9686   -7.2870    2.3035 H   0  0  0  0  0  0  0  0  0  0  0  0
   -1.8477   -7.7261    3.6992 H   0  0  0  0  0  0  0  0  0  0  0  0
    0.2643   -6.6011    3.4814 H   0  0  0  0  0  0  0  0  0  0  0  0
    2.0888   -6.4202    3.2802 H   0  0  0  0  0  0  0  0  0  0  0  0
    1.2102   -5.3213    5.9006 H   0  0  0  0  0  0  0  0  0  0  0  0
    2.5294   -3.4943    5.3504 H   0  0  0  0  0  0  0  0  0  0  0  0
    4.2149   -5.0921    3.4551 H   0  0  0  0  0  0  0  0  0  0  0  0
    4.5775   -2.5717    4.5991 H   0  0  0  0  0  0  0  0  0  0  0  0
    5.3602   -3.0770    3.1145 H   0  0  0  0  0  0  0  0  0  0  0  0
    5.1042   -0.3710    2.6857 H   0  0  0  0  0  0  0  0  0  0  0  0
    5.0570   -1.3871    1.2625 H   0  0  0  0  0  0  0  0  0  0  0  0
    4.2037    0.9193    0.8116 H   0  0  0  0  0  0  0  0  0  0  0  0
    2.9860   -0.2885    0.4803 H   0  0  0  0  0  0  0  0  0  0  0  0
    3.1662    1.4526    2.9849 H   0  0  0  0  0  0  0  0  0  0  0  0
    1.9759    1.6066    1.7096 H   0  0  0  0  0  0  0  0  0  0  0  0
    1.0583    0.3724    3.6816 H   0  0  0  0  0  0  0  0  0  0  0  0
    1.0464   -0.6213    2.2440 H   0  0  0  0  0  0  0  0  0  0  0  0
    1.8378   -1.8693    4.1446 H   0  0  0  0  0  0  0  0  0  0  0  0
    3.0831   -0.6780    4.5077 H   0  0  0  0  0  0  0  0  0  0  0  0
    3.9420   -7.3043    4.6116 H   0  0  0  0  0  0  0  0  0  0  0  0
    3.4719   -8.4354    6.7390 H   0  0  0  0  0  0  0  0  0  0  0  0
    2.4338   -7.0516    6.7641 H   0  0  0  0  0  0  0  0  0  0  0  0
    0.7204   -8.7054    6.9489 H   0  0  0  0  0  0  0  0  0  0  0  0
    2.2558  -10.5275    6.9867 H   0  0  0  0  0  0  0  0  0  0  0  0
    3.9380  -10.4298    5.5481 H   0  0  0  0  0  0  0  0  0  0  0  0
    2.8380  -11.3925    4.5607 H   0  0  0  0  0  0  0  0  0  0  0  0
    3.6696   -9.3615    3.2985 H   0  0  0  0  0  0  0  0  0  0  0  0
   -0.2435   -9.2269    5.0149 H   0  0  0  0  0  0  0  0  0  0  0  0
    1.1353  -10.8992    5.8861 H   0  0  0  0  0  0  0  0  0  0  0  0
  2  1  1  6
  1 29  1  0
  1 30  1  0
  1 31  1  0
  2 27  1  0
  2 28  1  0
  2  3  1  0
  3  4  2  0
  3  5  1  0
  5  6  1  0
  5 32  1  0
  5 33  1  0
  6  7  1  0
  6 34  1  0
  6 35  1  0
  7 28  1  0
  7  8  1  0
  7 36  1  1
  8  9  1  0
  8 22  1  0
  8 37  1  6
  9 10  2  3
  9 38  1  0
 10 11  1  0
 10 39  1  0
 11 20  1  0
 11 12  1  0
 11 40  1  6
 12 13  1  0
 12 41  1  0
 12 42  1  0
 13 18  1  0
 13 14  1  0
 13 19  1  0
 14 15  1  0
 14 43  1  0
 14 44  1  0
 15 16  1  0
 15 45  1  0
 15 46  1  0
 16 17  1  0
 16 47  1  0
 16 48  1  0
 17 18  1  0
 17 49  1  0
 17 50  1  0
 18 51  1  0
 18 52  1  0
 19 20  1  0
 20 21  2  0
 22 27  1  0
 22 23  1  0
 22 53  1  1
 23 24  1  0
 23 54  1  0
 23 55  1  0
 24 25  1  0
 24 28  1  0
 24 56  1  1
 25 26  1  0
 25 57  1  0
 25 62  1  0
 26 27  1  0
 26 58  1  0
 26 59  1  0
 27 60  1  6
 28 61  1  1
M  CHG  1  25   1
M  END
>  <i_m_ct_stereo_status>  (127) 
1

>  <s_m_source_file>  (127) 
/var/tmp/pbs.5076255.sched01/tmpaqd8m8vp/41rn73ajce.sdf

>  <i_m_source_file_index>  (127) 
20

>  <i_lp_mmshare_version>  (127) 
48012

>  <i_f3d_flags>  (127) 
0

>  <s_epik_input>  (127) 
Tz1DMVtDSDJdW0NIMl1bQ0hdKFtDSF0yW0NASF0oW0NIMl0zKVtOSF1bQ0gyXTQpW0NASF0oW0NAQEhdM1tDQEBIXTRbQ0BAXTEyW0NIM10pL1tDSF09W0NIXS9bQ0BASF0oQyhPNSk9TylbQ0gyXUM1NltDSDJdW0NIMl1bQ0gyXVtDSDJdW0NIMl02

>  <s_epik_cmdline>  (127) 
J2VwaWtfcHl0aG9uJywgJy1waHQnLCAnMi4wJywgJy1waCcsICc3LjAnLCAnLXRuJywgJzgnLCAnLW1hJywgJzIwMCcsICctaW1hZScsICc8aW5maWxlLm1hZT4nLCAnLW9tYWUnLCAnPG91dGZpbGUubWFlPic=

>  <r_lp_tautomer_probability>  (127) 
0.99995

>  <r_epik_Ionization_Penalty>  (127) 
0.000329963

>  <r_epik_Ionization_Penalty_Charging>  (127) 
0.000329963

>  <r_epik_Ionization_Penalty_Neutral>  (127) 
8.61707e-13

>  <r_epik_State_Penalty>  (127) 
0.000199631

>  <r_epik_Charging_Adjusted_Penalty>  (127) 
0.000529593

>  <i_epik_Tot_Q>  (127) 
1

>  <i_epik_Tot_abs_Q>  (127) 
1

>  <s_epik_Chemistry_Notes>  (127) 
This compound has an ester and may undergo hydrolysis at high or low pH.

>  <s_lp_Force_Field>  (127) 
OPLS3e

>  <r_lp_Energy>  (127) 
226.742

>  <b_lp_Chiralities_Consistent>  (127) 
1

>  <s_lp_Variant>  (127) 
44:0-2

>  <s_i_glide_gridfile>  (127) 
pfpi4k_grid

>  <i_i_glide_lignum>  (127) 
20

>  <i_i_glide_rotatable_bonds>  (127) 
2

>  <r_i_docking_score>  (127) 
-3.5495

>  <r_i_glide_ligand_efficiency>  (127) 
-0.126768

>  <r_i_glide_ligand_efficiency_sa>  (127) 
-0.384942

>  <r_i_glide_ligand_efficiency_ln>  (127) 
-0.819328

>  <r_i_glide_gscore>  (127) 
-3.5495

>  <r_i_glide_lipo>  (127) 
-0.191386

>  <r_i_glide_hbond>  (127) 
-0.0339618

>  <r_i_glide_metal>  (127) 
-0

>  <r_i_glide_rewards>  (127) 
-1.38558

>  <r_i_glide_evdw>  (127) 
-27.2654

>  <r_i_glide_ecoul>  (127) 
-4.36963

>  <r_i_glide_erotb>  (127) 
0.184094

>  <r_i_glide_esite>  (127) 
-0.103952

>  <r_i_glide_emodel>  (127) 
-39.7443

>  <r_i_glide_energy>  (127) 
-31.635

>  <r_i_glide_einternal>  (127) 
1.50841

>  <r_i_glide_intrahb_reward>  (127) 
-0

>  <i_i_glide_confnum>  (127) 
1

>  <i_i_glide_posenum>  (127) 
13

>  <r_i_glide_eff_state_penalty>  (127) 
0

>  <ligand_id>  (127) 
44

>  <original_smiles>  (127) 
CC12C(=O)CCC3C(C=CC4CC5(CCCCC5)OC4=O)C4CC(NCC41)C32

>  <smiles>  (127) 
[H]C(=C([H])C1([H])C2([H])C([H])([H])C3([H])C4([H])C1([H])C([H])([H])C([H])([H])C(=O)C4(C([H])([H])[H])C2([H])C([H])([H])[N+]3([H])[H])C1([H])C(=O)OC2(C1([H])[H])C([H])([H])C([H])([H])C([H])([H])C([H])([H])C2([H])[H]

$$$$
44:1:2
     RDKit          3D

 62 67  0  0  1  0  0  0  0  0999 V2000
    2.0405    0.6135    6.1795 C   0  0  0  0  0  0  0  0  0  0  0  0
    1.0222    1.4844    5.3119 C   0  0  1  0  0  0  0  0  0  0  0  0
    0.0731    1.8821    6.4075 C   0  0  0  0  0  0  0  0  0  0  0  0
   -0.0240    3.0025    6.9024 O   0  0  0  0  0  0  0  0  0  0  0  0
   -0.8133    0.6430    6.7435 C   0  0  0  0  0  0  0  0  0  0  0  0
   -0.6545   -0.5999    5.7042 C   0  0  0  0  0  0  0  0  0  0  0  0
   -0.0182   -0.4330    4.1898 C   0  0  2  0  0  0  0  0  0  0  0  0
    1.4895   -0.3855    3.5442 C   0  0  1  0  0  0  0  0  0  0  0  0
    1.5203   -1.3469    2.3729 C   0  0  0  0  0  0  0  0  0  0  0  0
    2.5503   -2.0999    1.9726 C   0  0  0  0  0  0  0  0  0  0  0  0
    3.9679   -2.1065    2.5522 C   0  0  2  0  0  0  0  0  0  0  0  0
    4.9628   -1.3134    1.7029 C   0  0  0  0  0  0  0  0  0  0  0  0
    5.5536   -2.3474    0.7213 C   0  0  0  0  0  0  0  0  0  0  0  0
    7.0430   -2.0814    0.3867 C   0  0  0  0  0  0  0  0  0  0  0  0
    7.5817   -3.0565   -0.6795 C   0  0  0  0  0  0  0  0  0  0  0  0
    6.6970   -3.0518   -1.9310 C   0  0  0  0  0  0  0  0  0  0  0  0
    5.2446   -3.3871   -1.5953 C   0  0  0  0  0  0  0  0  0  0  0  0
    4.7056   -2.3966   -0.5761 C   0  0  0  0  0  0  0  0  0  0  0  0
    5.4247   -3.5591    1.4535 O   0  0  0  0  0  0  0  0  0  0  0  0
    4.5403   -3.5120    2.4531 C   0  0  0  0  0  0  0  0  0  0  0  0
    4.2040   -4.4353    3.1966 O   0  0  0  0  0  0  0  0  0  0  0  0
    2.0866    1.0896    3.1639 C   0  0  1  0  0  0  0  0  0  0  0  0
    1.1287    1.5524    2.0747 C   0  0  0  0  0  0  0  0  0  0  0  0
   -0.1138    1.8832    2.9036 C   0  0  2  0  0  0  0  0  0  0  0  0
    0.0117    3.3023    3.2768 N   0  0  0  0  0  0  0  0  0  0  0  0
    1.3340    3.5590    3.9011 C   0  0  0  0  0  0  0  0  0  0  0  0
    1.9674    2.2063    4.3484 C   0  0  1  0  0  0  0  0  0  0  0  0
   -0.1248    1.0562    4.2606 C   0  0  2  0  0  0  0  0  0  0  0  0
    2.9535    0.3168    5.6646 H   0  0  0  0  0  0  0  0  0  0  0  0
    1.6463   -0.2769    6.6627 H   0  0  0  0  0  0  0  0  0  0  0  0
    2.4324    1.2284    6.9934 H   0  0  0  0  0  0  0  0  0  0  0  0
   -0.5897    0.3215    7.7613 H   0  0  0  0  0  0  0  0  0  0  0  0
   -1.8505    0.9814    6.7388 H   0  0  0  0  0  0  0  0  0  0  0  0
   -0.2147   -1.4131    6.3031 H   0  0  0  0  0  0  0  0  0  0  0  0
   -1.6693   -0.9663    5.5399 H   0  0  0  0  0  0  0  0  0  0  0  0
    0.5146   -1.2602    4.6401 H   0  0  0  0  0  0  0  0  0  0  0  0
    2.2436   -0.8498    4.1791 H   0  0  0  0  0  0  0  0  0  0  0  0
    0.6037   -1.4294    1.8069 H   0  0  0  0  0  0  0  0  0  0  0  0
    2.3346   -2.7557    1.1459 H   0  0  0  0  0  0  0  0  0  0  0  0
    4.0001   -1.7519    3.5861 H   0  0  0  0  0  0  0  0  0  0  0  0
    4.5105   -0.4675    1.1748 H   0  0  0  0  0  0  0  0  0  0  0  0
    5.7444   -0.8991    2.3414 H   0  0  0  0  0  0  0  0  0  0  0  0
    7.1456   -1.0600    0.0271 H   0  0  0  0  0  0  0  0  0  0  0  0
    7.6579   -2.1433    1.2834 H   0  0  0  0  0  0  0  0  0  0  0  0
    8.6061   -2.7911   -0.9606 H   0  0  0  0  0  0  0  0  0  0  0  0
    7.6308   -4.0663   -0.2669 H   0  0  0  0  0  0  0  0  0  0  0  0
    6.7311   -2.0671   -2.3676 H   0  0  0  0  0  0  0  0  0  0  0  0
    7.0625   -3.7655   -2.6730 H   0  0  0  0  0  0  0  0  0  0  0  0
    4.6212   -3.3373   -2.4876 H   0  0  0  0  0  0  0  0  0  0  0  0
    5.1558   -4.4022   -1.2107 H   0  0  0  0  0  0  0  0  0  0  0  0
    3.6811   -2.6878   -0.4017 H   0  0  0  0  0  0  0  0  0  0  0  0
    4.6860   -1.3971   -1.0268 H   0  0  0  0  0  0  0  0  0  0  0  0
    3.1054    1.0279    2.7718 H   0  0  0  0  0  0  0  0  0  0  0  0
    1.5262    2.4247    1.5420 H   0  0  0  0  0  0  0  0  0  0  0  0
    0.9287    0.8218    1.2932 H   0  0  0  0  0  0  0  0  0  0  0  0
   -1.0167    1.7200    2.3121 H   0  0  0  0  0  0  0  0  0  0  0  0
   -0.0617    3.8353    2.4099 H   0  0  0  0  0  0  0  0  0  0  0  0
    1.9809    4.0644    3.1789 H   0  0  0  0  0  0  0  0  0  0  0  0
    1.2113    4.2386    4.7485 H   0  0  0  0  0  0  0  0  0  0  0  0
    2.9428    2.4052    4.7934 H   0  0  0  0  0  0  0  0  0  0  0  0
   -1.1677    1.3108    4.4983 H   0  0  0  0  0  0  0  0  0  0  0  0
   -0.7332    3.5450    3.9173 H   0  0  0  0  0  0  0  0  0  0  0  0
  2  1  1  1
  1 29  1  0
  1 30  1  0
  1 31  1  0
  2 27  1  0
  2 28  1  0
  2  3  1  0
  3  4  2  0
  3  5  1  0
  5  6  1  0
  5 32  1  0
  5 33  1  0
  6  7  1  0
  6 34  1  0
  6 35  1  0
  7 28  1  0
  7  8  1  0
  7 36  1  6
  8  9  1  0
  8 22  1  0
  8 37  1  1
  9 10  2  3
  9 38  1  0
 10 11  1  0
 10 39  1  0
 11 20  1  0
 11 12  1  0
 11 40  1  1
 12 13  1  0
 12 41  1  0
 12 42  1  0
 13 18  1  0
 13 14  1  0
 13 19  1  0
 14 15  1  0
 14 43  1  0
 14 44  1  0
 15 16  1  0
 15 45  1  0
 15 46  1  0
 16 17  1  0
 16 47  1  0
 16 48  1  0
 17 18  1  0
 17 49  1  0
 17 50  1  0
 18 51  1  0
 18 52  1  0
 19 20  1  0
 20 21  2  0
 22 27  1  0
 22 23  1  0
 22 53  1  6
 23 24  1  0
 23 54  1  0
 23 55  1  0
 24 25  1  0
 24 28  1  0
 24 56  1  6
 25 26  1  0
 25 57  1  0
 25 62  1  0
 26 27  1  0
 26 58  1  0
 26 59  1  0
 27 60  1  1
 28 61  1  1
M  CHG  1  25   1
M  END
>  <i_m_ct_stereo_status>  (128) 
1

>  <s_m_source_file>  (128) 
/var/tmp/pbs.5076255.sched01/tmpaqd8m8vp/41rn73ajce.sdf

>  <i_m_source_file_index>  (128) 
20

>  <i_lp_mmshare_version>  (128) 
48012

>  <i_f3d_flags>  (128) 
0

>  <s_epik_input>  (128) 
Tz1DMVtDSDJdW0NIMl1bQ0hdKFtDSF0yW0NASF0oW0NIMl0zKVtOSF1bQ0gyXTQpW0NASF0oW0NAQEhdM1tDQEBIXTRbQ0BAXTEyW0NIM10pL1tDSF09W0NIXS9bQ0BASF0oQyhPNSk9TylbQ0gyXUM1NltDSDJdW0NIMl1bQ0gyXVtDSDJdW0NIMl02

>  <s_epik_cmdline>  (128) 
J2VwaWtfcHl0aG9uJywgJy1waHQnLCAnMi4wJywgJy1waCcsICc3LjAnLCAnLXRuJywgJzgnLCAnLW1hJywgJzIwMCcsICctaW1hZScsICc8aW5maWxlLm1hZT4nLCAnLW9tYWUnLCAnPG91dGZpbGUubWFlPic=

>  <r_lp_tautomer_probability>  (128) 
0.99995

>  <r_epik_Ionization_Penalty>  (128) 
0.000329963

>  <r_epik_Ionization_Penalty_Charging>  (128) 
0.000329963

>  <r_epik_Ionization_Penalty_Neutral>  (128) 
8.61707e-13

>  <r_epik_State_Penalty>  (128) 
0.000199631

>  <r_epik_Charging_Adjusted_Penalty>  (128) 
0.000529593

>  <i_epik_Tot_Q>  (128) 
1

>  <i_epik_Tot_abs_Q>  (128) 
1

>  <s_epik_Chemistry_Notes>  (128) 
This compound has an ester and may undergo hydrolysis at high or low pH.

>  <s_lp_Force_Field>  (128) 
OPLS3e

>  <r_lp_Energy>  (128) 
226.742

>  <b_lp_Chiralities_Consistent>  (128) 
1

>  <s_lp_Variant>  (128) 
44:0-2

>  <s_i_glide_gridfile>  (128) 
pfpi4k_grid

>  <i_i_glide_lignum>  (128) 
20

>  <i_i_glide_rotatable_bonds>  (128) 
2

>  <r_i_docking_score>  (128) 
-3.37455

>  <r_i_glide_ligand_efficiency>  (128) 
-0.12052

>  <r_i_glide_ligand_efficiency_sa>  (128) 
-0.365969

>  <r_i_glide_ligand_efficiency_ln>  (128) 
-0.778946

>  <r_i_glide_gscore>  (128) 
-3.37455

>  <r_i_glide_lipo>  (128) 
-0.361137

>  <r_i_glide_hbond>  (128) 
-0.2

>  <r_i_glide_metal>  (128) 
-0

>  <r_i_glide_rewards>  (128) 
-0.815221

>  <r_i_glide_evdw>  (128) 
-27.2588

>  <r_i_glide_ecoul>  (128) 
-5.31956

>  <r_i_glide_erotb>  (128) 
0.262992

>  <r_i_glide_esite>  (128) 
-0.100315

>  <r_i_glide_emodel>  (128) 
-40.0687

>  <r_i_glide_energy>  (128) 
-32.5784

>  <r_i_glide_einternal>  (128) 
1.92969

>  <r_i_glide_intrahb_reward>  (128) 
-0

>  <i_i_glide_confnum>  (128) 
6

>  <i_i_glide_posenum>  (128) 
4

>  <r_i_glide_eff_state_penalty>  (128) 
0

>  <ligand_id>  (128) 
44

>  <original_smiles>  (128) 
CC12C(=O)CCC3C(C=CC4CC5(CCCCC5)OC4=O)C4CC(NCC41)C32

>  <smiles>  (128) 
[H]C(=C([H])C1([H])C2([H])C([H])([H])C3([H])C4([H])C1([H])C([H])([H])C([H])([H])C(=O)C4(C([H])([H])[H])C2([H])C([H])([H])[N+]3([H])[H])C1([H])C(=O)OC2(C1([H])[H])C([H])([H])C([H])([H])C([H])([H])C([H])([H])C2([H])[H]

$$$$
45:0:0
     RDKit          3D

 61 68  0  0  1  0  0  0  0  0999 V2000
    8.2984   -2.5116   -1.4399 C   0  0  0  0  0  0  0  0  0  0  0  0
    6.9755   -2.2470   -0.9688 O   0  0  0  0  0  0  0  0  0  0  0  0
    6.0090   -3.3380   -0.9787 C   0  0  2  0  0  0  0  0  0  0  0  0
    4.9587   -3.1030   -2.1444 C   0  0  2  0  0  0  0  0  0  0  0  0
    4.6345   -4.2576   -2.8756 O   0  0  0  0  0  0  0  0  0  0  0  0
    5.4902   -2.2450   -3.0555 O   0  0  0  0  0  0  0  0  0  0  0  0
    4.5024   -1.4755   -3.7520 C   0  0  0  0  0  0  0  0  0  0  0  0
    3.2281   -1.6052   -2.9405 C   0  0  1  0  0  0  0  0  0  0  0  0
    2.1263   -2.2901   -3.7453 C   0  0  0  0  0  0  0  0  0  0  0  0
    3.6906   -2.4089   -1.7526 C   0  0  1  0  0  0  0  0  0  0  0  0
    2.7278   -2.9912   -0.8671 O   0  0  0  0  0  0  0  0  0  0  0  0
    3.5265   -1.9354   -0.3319 C   0  0  1  0  0  0  0  0  0  0  0  0
    4.4651   -2.3781    0.7573 C   0  0  2  0  0  0  0  0  0  0  0  0
    5.3800   -1.3706    1.0668 O   0  0  0  0  0  0  0  0  0  0  0  0
    6.2871   -1.9518    1.9710 C   0  0  0  0  0  0  0  0  0  0  0  0
    6.4310   -3.4880    1.6475 C   0  0  1  0  0  0  0  0  0  0  0  0
    7.9470   -3.7251    1.3144 C   0  0  0  0  0  0  0  0  0  0  0  0
    6.1964   -4.3819    2.9203 C   0  0  1  0  0  0  0  0  0  0  0  0
    6.7198   -5.8289    2.7299 C   0  0  0  0  0  0  0  0  0  0  0  0
    5.6409   -6.6073    1.9721 C   0  0  2  0  0  0  0  0  0  0  0  0
    5.5811   -6.1947    0.4986 C   0  0  0  0  0  0  0  0  0  0  0  0
    4.5862   -5.0153    0.4223 C   0  0  1  0  0  0  0  0  0  0  0  0
    3.5123   -5.4673    1.4900 C   0  0  0  0  0  0  0  0  0  0  0  0
    2.4418   -4.4739    2.0004 C   0  0  0  0  0  0  0  0  0  0  0  0
    2.6611   -6.6042    0.8833 C   0  0  0  0  0  0  0  0  0  0  0  0
    4.3625   -6.0751    2.6152 C   0  0  2  0  0  0  0  0  0  0  0  0
    4.9245   -5.1002    3.6143 C   0  0  2  0  0  0  0  0  0  0  0  0
    5.0045   -3.7735    3.5210 O   0  0  0  0  0  0  0  0  0  0  0  0
    5.3571   -3.6117    0.4578 C   0  0  2  0  0  0  0  0  0  0  0  0
    8.9002   -1.6173   -1.3010 H   0  0  0  0  0  0  0  0  0  0  0  0
    8.3120   -2.8548   -2.4513 H   0  0  0  0  0  0  0  0  0  0  0  0
    8.8616   -3.2881   -0.9467 H   0  0  0  0  0  0  0  0  0  0  0  0
    6.5519   -4.2065   -1.2715 H   0  0  0  0  0  0  0  0  0  0  0  0
    3.9421   -4.7087   -2.3966 H   0  0  0  0  0  0  0  0  0  0  0  0
    4.8105   -0.4331   -3.7882 H   0  0  0  0  0  0  0  0  0  0  0  0
    4.3747   -1.7880   -4.7933 H   0  0  0  0  0  0  0  0  0  0  0  0
    2.8914   -0.6073   -2.6406 H   0  0  0  0  0  0  0  0  0  0  0  0
    2.3920   -3.2837   -4.0987 H   0  0  0  0  0  0  0  0  0  0  0  0
    1.8331   -1.6619   -4.5907 H   0  0  0  0  0  0  0  0  0  0  0  0
    1.2775   -2.4508   -3.0999 H   0  0  0  0  0  0  0  0  0  0  0  0
    3.0094   -0.9899   -0.1756 H   0  0  0  0  0  0  0  0  0  0  0  0
    3.8917   -2.4805    1.6574 H   0  0  0  0  0  0  0  0  0  0  0  0
    7.1647   -1.3496    1.7842 H   0  0  0  0  0  0  0  0  0  0  0  0
    5.9973   -1.7327    2.9966 H   0  0  0  0  0  0  0  0  0  0  0  0
    8.0725   -4.5079    0.5619 H   0  0  0  0  0  0  0  0  0  0  0  0
    8.5826   -4.0062    2.1328 H   0  0  0  0  0  0  0  0  0  0  0  0
    8.3999   -2.8055    0.9427 H   0  0  0  0  0  0  0  0  0  0  0  0
    7.6897   -5.9221    2.2397 H   0  0  0  0  0  0  0  0  0  0  0  0
    6.9182   -6.2855    3.7015 H   0  0  0  0  0  0  0  0  0  0  0  0
    5.7730   -7.6865    2.0922 H   0  0  0  0  0  0  0  0  0  0  0  0
    6.5712   -5.9951    0.0918 H   0  0  0  0  0  0  0  0  0  0  0  0
    5.1876   -7.0319   -0.0701 H   0  0  0  0  0  0  0  0  0  0  0  0
    4.0869   -5.0776   -0.5397 H   0  0  0  0  0  0  0  0  0  0  0  0
    1.6217   -4.9968    2.4872 H   0  0  0  0  0  0  0  0  0  0  0  0
    2.0039   -3.9014    1.1923 H   0  0  0  0  0  0  0  0  0  0  0  0
    2.7856   -3.7811    2.7590 H   0  0  0  0  0  0  0  0  0  0  0  0
    1.9223   -6.9952    1.5784 H   0  0  0  0  0  0  0  0  0  0  0  0
    3.2565   -7.4625    0.5895 H   0  0  0  0  0  0  0  0  0  0  0  0
    2.1244   -6.2328    0.0151 H   0  0  0  0  0  0  0  0  0  0  0  0
    3.8324   -6.8566    3.1637 H   0  0  0  0  0  0  0  0  0  0  0  0
    5.0588   -5.4771    4.6216 H   0  0  0  0  0  0  0  0  0  0  0  0
  1  2  1  0
  1 30  1  0
  1 31  1  0
  1 32  1  0
  2  3  1  0
  3 29  1  0
  3  4  1  0
  3 33  1  6
  4 10  1  0
  4  5  1  6
  4  6  1  0
  5 34  1  0
  6  7  1  0
  7  8  1  0
  7 35  1  0
  7 36  1  0
  8  9  1  0
  8 10  1  0
  8 37  1  1
  9 38  1  0
  9 39  1  0
  9 40  1  0
 10 12  1  0
 10 11  1  1
 11 12  1  0
 12 13  1  0
 12 41  1  6
 13 29  1  0
 13 14  1  0
 13 42  1  1
 14 15  1  0
 15 16  1  0
 15 43  1  0
 15 44  1  0
 29 16  1  1
 16 17  1  6
 16 18  1  0
 17 45  1  0
 17 46  1  0
 17 47  1  0
 18 27  1  0
 18 28  1  1
 18 19  1  0
 19 20  1  0
 19 48  1  0
 19 49  1  0
 20 26  1  0
 20 21  1  0
 20 50  1  6
 21 22  1  0
 21 51  1  0
 21 52  1  0
 22 23  1  0
 22 29  1  0
 22 53  1  6
 23 24  1  0
 23 25  1  0
 23 26  1  0
 24 54  1  0
 24 55  1  0
 24 56  1  0
 25 57  1  0
 25 58  1  0
 25 59  1  0
 26 27  1  0
 26 60  1  1
 27 28  1  0
 27 61  1  1
M  END
>  <i_m_ct_stereo_status>  (129) 
1

>  <s_m_source_file>  (129) 
/var/tmp/pbs.5076255.sched01/tmpaqd8m8vp/41rn73ajce.sdf

>  <i_m_source_file_index>  (129) 
21

>  <i_lp_mmshare_version>  (129) 
48012

>  <i_f3d_flags>  (129) 
0

>  <s_epik_input>  (129) 
W0NIM11bQ0BASF0xW0NIMl1PW0NAQF0oW0NAQF0xMjMpKFtPSF0pW0NAQEhdKE9bQ0gzXSlbQ0BdNDVbQ0BIXShbQ0BASF0zTzIpT1tDSDJdW0NAQF00KFtDSDNdKVtDQEBdNjdbQ0BASF0oTzcpW0NAQEhdOFtDQEhdKFtDSDJdNilbQ0gyXVtDQEhdNUM4KFtDSDNdKVtDSDNd

>  <s_epik_cmdline>  (129) 
J2VwaWtfcHl0aG9uJywgJy1waHQnLCAnMi4wJywgJy1waCcsICc3LjAnLCAnLXRuJywgJzgnLCAnLW1hJywgJzIwMCcsICctaW1hZScsICc8aW5maWxlLm1hZT4nLCAnLW9tYWUnLCAnPG91dGZpbGUubWFlPic=

>  <r_lp_tautomer_probability>  (129) 
1

>  <r_epik_Ionization_Penalty>  (129) 
1.90387e-06

>  <r_epik_Ionization_Penalty_Charging>  (129) 
0

>  <r_epik_Ionization_Penalty_Neutral>  (129) 
1.90387e-06

>  <r_epik_State_Penalty>  (129) 
-0

>  <r_epik_Charging_Adjusted_Penalty>  (129) 
0

>  <i_epik_Tot_Q>  (129) 
0

>  <i_epik_Tot_abs_Q>  (129) 
0

>  <s_lp_Force_Field>  (129) 
OPLS3e

>  <r_lp_Energy>  (129) 
128.228

>  <b_lp_Chiralities_Consistent>  (129) 
1

>  <s_lp_Variant>  (129) 
45:0-1

>  <s_i_glide_gridfile>  (129) 
pfpi4k_grid

>  <i_i_glide_lignum>  (129) 
21

>  <i_i_glide_rotatable_bonds>  (129) 
2

>  <r_i_docking_score>  (129) 
-3.00689

>  <r_i_glide_ligand_efficiency>  (129) 
-0.103686

>  <r_i_glide_ligand_efficiency_sa>  (129) 
-0.318556

>  <r_i_glide_ligand_efficiency_ln>  (129) 
-0.688502

>  <r_i_glide_gscore>  (129) 
-3.00689

>  <r_i_glide_lipo>  (129) 
-0.959695

>  <r_i_glide_hbond>  (129) 
-0.16

>  <r_i_glide_metal>  (129) 
-0

>  <r_i_glide_rewards>  (129) 
-0.787267

>  <r_i_glide_evdw>  (129) 
-3.80497

>  <r_i_glide_ecoul>  (129) 
-6.06455

>  <r_i_glide_erotb>  (129) 
0

>  <r_i_glide_esite>  (129) 
0

>  <r_i_glide_emodel>  (129) 
-6.57728

>  <r_i_glide_energy>  (129) 
-9.86952

>  <r_i_glide_einternal>  (129) 
3.30455

>  <r_i_glide_intrahb_reward>  (129) 
-0

>  <i_i_glide_confnum>  (129) 
1

>  <i_i_glide_posenum>  (129) 
25

>  <r_i_glide_eff_state_penalty>  (129) 
0

>  <ligand_id>  (129) 
45

>  <original_smiles>  (129) 
COC1C2(O)OCC(C)C23OC3C2OCC3(C)C45CC6CC(C(C)(C)C6C4O5)C213

>  <smiles>  (129) 
[H]OC12OC([H])([H])C([H])(C([H])([H])[H])C13OC3([H])C1([H])OC([H])([H])C3(C([H])([H])[H])C45OC4([H])C4([H])C([H])(C([H])([H])C([H])(C4(C([H])([H])[H])C([H])([H])[H])C13C2([H])OC([H])([H])[H])C5([H])[H]

$$$$
45:0:1
     RDKit          3D

 61 68  0  0  1  0  0  0  0  0999 V2000
    5.3842   -5.6350    0.0832 C   0  0  0  0  0  0  0  0  0  0  0  0
    5.4117   -4.2054    0.1574 O   0  0  0  0  0  0  0  0  0  0  0  0
    4.1409   -3.5467    0.2912 C   0  0  2  0  0  0  0  0  0  0  0  0
    3.6350   -3.2048   -1.1592 C   0  0  2  0  0  0  0  0  0  0  0  0
    2.2322   -3.3917   -1.2734 O   0  0  0  0  0  0  0  0  0  0  0  0
    4.3191   -4.0164   -2.0652 O   0  0  0  0  0  0  0  0  0  0  0  0
    4.3344   -3.4794   -3.3816 C   0  0  0  0  0  0  0  0  0  0  0  0
    4.0871   -1.9957   -3.1818 C   0  0  1  0  0  0  0  0  0  0  0  0
    2.8584   -1.4596   -3.9235 C   0  0  0  0  0  0  0  0  0  0  0  0
    3.9867   -1.8749   -1.6995 C   0  0  1  0  0  0  0  0  0  0  0  0
    3.5318   -0.6642   -1.1231 O   0  0  0  0  0  0  0  0  0  0  0  0
    4.8809   -0.9740   -0.8760 C   0  0  1  0  0  0  0  0  0  0  0  0
    5.1268   -1.2403    0.5612 C   0  0  2  0  0  0  0  0  0  0  0  0
    6.4055   -1.7903    0.6663 O   0  0  0  0  0  0  0  0  0  0  0  0
    6.4926   -2.1672    2.0121 C   0  0  0  0  0  0  0  0  0  0  0  0
    5.1046   -2.6110    2.5734 C   0  0  1  0  0  0  0  0  0  0  0  0
    5.2803   -4.1169    2.9673 C   0  0  0  0  0  0  0  0  0  0  0  0
    4.7486   -1.8451    3.8992 C   0  0  1  0  0  0  0  0  0  0  0  0
    3.6035   -2.5577    4.6528 C   0  0  0  0  0  0  0  0  0  0  0  0
    2.2872   -2.1091    4.0170 C   0  0  2  0  0  0  0  0  0  0  0  0
    2.0776   -2.7590    2.6515 C   0  0  0  0  0  0  0  0  0  0  0  0
    2.7428   -1.8048    1.6285 C   0  0  1  0  0  0  0  0  0  0  0  0
    2.3759   -0.4052    2.2598 C   0  0  0  0  0  0  0  0  0  0  0  0
    3.0788    0.8543    1.7602 C   0  0  0  0  0  0  0  0  0  0  0  0
    0.8816   -0.0634    2.0139 C   0  0  0  0  0  0  0  0  0  0  0  0
    2.5591   -0.6298    3.7683 C   0  0  2  0  0  0  0  0  0  0  0  0
    3.9679   -0.5024    4.2842 C   0  0  2  0  0  0  0  0  0  0  0  0
    5.1063   -0.4691    3.5896 O   0  0  0  0  0  0  0  0  0  0  0  0
    4.2163   -2.2930    1.2815 C   0  0  2  0  0  0  0  0  0  0  0  0
    6.4049   -5.9861   -0.0112 H   0  0  0  0  0  0  0  0  0  0  0  0
    4.7986   -6.0092   -0.7537 H   0  0  0  0  0  0  0  0  0  0  0  0
    4.9809   -6.0792    0.9918 H   0  0  0  0  0  0  0  0  0  0  0  0
    3.4546   -4.2806    0.7010 H   0  0  0  0  0  0  0  0  0  0  0  0
    1.8340   -2.5331   -1.1598 H   0  0  0  0  0  0  0  0  0  0  0  0
    5.3022   -3.6845   -3.8360 H   0  0  0  0  0  0  0  0  0  0  0  0
    3.5706   -3.9579   -3.9903 H   0  0  0  0  0  0  0  0  0  0  0  0
    4.9582   -1.4292   -3.5284 H   0  0  0  0  0  0  0  0  0  0  0  0
    1.9611   -2.0230   -3.6740 H   0  0  0  0  0  0  0  0  0  0  0  0
    3.0494   -1.5573   -4.9805 H   0  0  0  0  0  0  0  0  0  0  0  0
    2.6767   -0.4077   -3.7166 H   0  0  0  0  0  0  0  0  0  0  0  0
    5.5734   -0.3163   -1.3926 H   0  0  0  0  0  0  0  0  0  0  0  0
    5.2006   -0.2884    1.0719 H   0  0  0  0  0  0  0  0  0  0  0  0
    7.1666   -3.0145    1.9870 H   0  0  0  0  0  0  0  0  0  0  0  0
    6.9495   -1.3032    2.4663 H   0  0  0  0  0  0  0  0  0  0  0  0
    4.3683   -4.7096    2.9184 H   0  0  0  0  0  0  0  0  0  0  0  0
    5.6772   -4.2115    3.9820 H   0  0  0  0  0  0  0  0  0  0  0  0
    6.0192   -4.6629    2.3903 H   0  0  0  0  0  0  0  0  0  0  0  0
    3.6676   -3.6368    4.6987 H   0  0  0  0  0  0  0  0  0  0  0  0
    3.6323   -2.2803    5.7224 H   0  0  0  0  0  0  0  0  0  0  0  0
    1.4389   -2.2760    4.6807 H   0  0  0  0  0  0  0  0  0  0  0  0
    2.4357   -3.7868    2.6098 H   0  0  0  0  0  0  0  0  0  0  0  0
    1.0071   -2.8273    2.4703 H   0  0  0  0  0  0  0  0  0  0  0  0
    2.2003   -1.8576    0.6920 H   0  0  0  0  0  0  0  0  0  0  0  0
    2.5595    1.7720    2.0480 H   0  0  0  0  0  0  0  0  0  0  0  0
    3.1792    0.8649    0.6865 H   0  0  0  0  0  0  0  0  0  0  0  0
    4.0687    0.9403    2.1815 H   0  0  0  0  0  0  0  0  0  0  0  0
    0.5939    0.8542    2.5232 H   0  0  0  0  0  0  0  0  0  0  0  0
    0.2101   -0.8392    2.3667 H   0  0  0  0  0  0  0  0  0  0  0  0
    0.7230    0.1664    0.9666 H   0  0  0  0  0  0  0  0  0  0  0  0
    1.9143    0.0263    4.3536 H   0  0  0  0  0  0  0  0  0  0  0  0
    4.0570   -0.1351    5.3050 H   0  0  0  0  0  0  0  0  0  0  0  0
  1  2  1  0
  1 30  1  0
  1 31  1  0
  1 32  1  0
  2  3  1  0
  3 29  1  0
  3  4  1  0
  3 33  1  1
  4 10  1  0
  4  5  1  1
  4  6  1  0
  5 34  1  0
  6  7  1  0
  7  8  1  0
  7 35  1  0
  7 36  1  0
  8  9  1  0
  8 10  1  0
  8 37  1  6
  9 38  1  0
  9 39  1  0
  9 40  1  0
 10 12  1  0
 10 11  1  6
 11 12  1  0
 12 13  1  0
 12 41  1  6
 13 29  1  0
 13 14  1  0
 13 42  1  1
 14 15  1  0
 15 16  1  0
 15 43  1  0
 15 44  1  0
 29 16  1  1
 16 17  1  1
 16 18  1  0
 17 45  1  0
 17 46  1  0
 17 47  1  0
 18 27  1  0
 18 28  1  1
 18 19  1  0
 19 20  1  0
 19 48  1  0
 19 49  1  0
 20 26  1  0
 20 21  1  0
 20 50  1  1
 21 22  1  0
 21 51  1  0
 21 52  1  0
 22 23  1  0
 22 29  1  0
 22 53  1  6
 23 24  1  0
 23 25  1  0
 23 26  1  0
 24 54  1  0
 24 55  1  0
 24 56  1  0
 25 57  1  0
 25 58  1  0
 25 59  1  0
 26 27  1  0
 26 60  1  1
 27 28  1  0
 27 61  1  1
M  END
>  <i_m_ct_stereo_status>  (130) 
1

>  <s_m_source_file>  (130) 
/var/tmp/pbs.5076255.sched01/tmpaqd8m8vp/41rn73ajce.sdf

>  <i_m_source_file_index>  (130) 
21

>  <i_lp_mmshare_version>  (130) 
48012

>  <i_f3d_flags>  (130) 
0

>  <s_epik_input>  (130) 
W0NIM11bQ0BASF0xW0NIMl1PW0NAQF0oW0NAQF0xMjMpKFtPSF0pW0NAQEhdKE9bQ0gzXSlbQ0BdNDVbQ0BIXShbQ0BASF0zTzIpT1tDSDJdW0NAQF00KFtDSDNdKVtDQEBdNjdbQ0BASF0oTzcpW0NAQEhdOFtDQEhdKFtDSDJdNilbQ0gyXVtDQEhdNUM4KFtDSDNdKVtDSDNd

>  <s_epik_cmdline>  (130) 
J2VwaWtfcHl0aG9uJywgJy1waHQnLCAnMi4wJywgJy1waCcsICc3LjAnLCAnLXRuJywgJzgnLCAnLW1hJywgJzIwMCcsICctaW1hZScsICc8aW5maWxlLm1hZT4nLCAnLW9tYWUnLCAnPG91dGZpbGUubWFlPic=

>  <r_lp_tautomer_probability>  (130) 
1

>  <r_epik_Ionization_Penalty>  (130) 
1.90387e-06

>  <r_epik_Ionization_Penalty_Charging>  (130) 
0

>  <r_epik_Ionization_Penalty_Neutral>  (130) 
1.90387e-06

>  <r_epik_State_Penalty>  (130) 
-0

>  <r_epik_Charging_Adjusted_Penalty>  (130) 
0

>  <i_epik_Tot_Q>  (130) 
0

>  <i_epik_Tot_abs_Q>  (130) 
0

>  <s_lp_Force_Field>  (130) 
OPLS3e

>  <r_lp_Energy>  (130) 
128.228

>  <b_lp_Chiralities_Consistent>  (130) 
1

>  <s_lp_Variant>  (130) 
45:0-1

>  <s_i_glide_gridfile>  (130) 
pfpi4k_grid

>  <i_i_glide_lignum>  (130) 
21

>  <i_i_glide_rotatable_bonds>  (130) 
2

>  <r_i_docking_score>  (130) 
-2.06529

>  <r_i_glide_ligand_efficiency>  (130) 
-0.0712168

>  <r_i_glide_ligand_efficiency_sa>  (130) 
-0.218801

>  <r_i_glide_ligand_efficiency_ln>  (130) 
-0.472898

>  <r_i_glide_gscore>  (130) 
-2.06529

>  <r_i_glide_lipo>  (130) 
-0.791056

>  <r_i_glide_hbond>  (130) 
0

>  <r_i_glide_metal>  (130) 
-0

>  <r_i_glide_rewards>  (130) 
-0.669915

>  <r_i_glide_evdw>  (130) 
-10.1173

>  <r_i_glide_ecoul>  (130) 
-0.656345

>  <r_i_glide_erotb>  (130) 
0

>  <r_i_glide_esite>  (130) 
0

>  <r_i_glide_emodel>  (130) 
-10.0957

>  <r_i_glide_energy>  (130) 
-10.7736

>  <r_i_glide_einternal>  (130) 
1.75701

>  <r_i_glide_intrahb_reward>  (130) 
-0

>  <i_i_glide_confnum>  (130) 
1

>  <i_i_glide_posenum>  (130) 
38

>  <r_i_glide_eff_state_penalty>  (130) 
0

>  <ligand_id>  (130) 
45

>  <original_smiles>  (130) 
COC1C2(O)OCC(C)C23OC3C2OCC3(C)C45CC6CC(C(C)(C)C6C4O5)C213

>  <smiles>  (130) 
[H]OC12OC([H])([H])C([H])(C([H])([H])[H])C13OC3([H])C1([H])OC([H])([H])C3(C([H])([H])[H])C45OC4([H])C4([H])C([H])(C([H])([H])C([H])(C4(C([H])([H])[H])C([H])([H])[H])C13C2([H])OC([H])([H])[H])C5([H])[H]

$$$$
47:0:0
     RDKit          3D

 49 53  0  0  1  0  0  0  0  0999 V2000
    0.0600   -9.8632    6.9973 C   0  0  0  0  0  0  0  0  0  0  0  0
    0.8188   -9.1611    5.9650 N   0  0  0  0  0  0  0  0  0  0  0  0
    1.0423   -7.8009    6.4341 C   0  0  0  0  0  0  0  0  0  0  0  0
    1.5867   -6.9811    5.2686 C   0  0  0  0  0  0  0  0  0  0  0  0
    2.9609   -7.4700    4.8033 C   0  0  2  0  0  0  0  0  0  0  0  0
    3.3350   -6.7822    3.4885 C   0  0  0  0  0  0  0  0  0  0  0  0
    4.5394   -7.4090    2.8279 C   0  0  0  0  0  0  0  0  0  0  0  0
    5.5296   -6.5585    2.3034 C   0  0  0  0  0  0  0  0  0  0  0  0
    6.6389   -7.1020    1.6377 C   0  0  0  0  0  0  0  0  0  0  0  0
    6.7177   -8.4905    1.4640 C   0  0  0  0  0  0  0  0  0  0  0  0
    5.7254   -9.3492    1.9671 C   0  0  0  0  0  0  0  0  0  0  0  0
    5.8805  -10.6701    1.6723 O   0  0  0  0  0  0  0  0  0  0  0  0
    4.6315   -8.8214    2.7179 C   0  0  0  0  0  0  0  0  0  0  0  0
    3.5197   -9.6784    3.3917 C   0  0  1  0  0  0  0  0  0  0  0  0
    2.3475   -9.7854    2.3755 C   0  0  0  0  0  0  0  0  0  0  0  0
    0.9619  -10.1362    2.9485 C   0  0  0  0  0  0  0  0  0  0  0  0
    0.9241  -11.3179    3.9324 C   0  0  0  0  0  0  0  0  0  0  0  0
    1.8734  -11.2004    5.0774 N   0  0  1  0  0  0  0  0  0  0  0  0
    3.1642  -11.8695    4.8050 C   0  0  0  0  0  0  0  0  0  0  0  0
    3.9881  -11.1330    3.7318 C   0  0  0  0  0  0  0  0  0  0  0  0
    2.0896   -9.8389    5.6445 C   0  0  1  0  0  0  0  0  0  0  0  0
    3.0978   -9.0172    4.7597 C   0  0  2  0  0  0  0  0  0  0  0  0
   -0.8873   -9.3573    7.1827 H   0  0  0  0  0  0  0  0  0  0  0  0
    0.6110   -9.9139    7.9380 H   0  0  0  0  0  0  0  0  0  0  0  0
   -0.1878  -10.8780    6.6871 H   0  0  0  0  0  0  0  0  0  0  0  0
    0.0916   -7.3653    6.7436 H   0  0  0  0  0  0  0  0  0  0  0  0
    1.7078   -7.7690    7.3011 H   0  0  0  0  0  0  0  0  0  0  0  0
    0.8674   -6.9935    4.4491 H   0  0  0  0  0  0  0  0  0  0  0  0
    1.6726   -5.9415    5.5870 H   0  0  0  0  0  0  0  0  0  0  0  0
    3.6840   -7.1222    5.5445 H   0  0  0  0  0  0  0  0  0  0  0  0
    2.5064   -6.8540    2.7843 H   0  0  0  0  0  0  0  0  0  0  0  0
    3.4965   -5.7164    3.6524 H   0  0  0  0  0  0  0  0  0  0  0  0
    5.4402   -5.4859    2.3986 H   0  0  0  0  0  0  0  0  0  0  0  0
    7.4016   -6.4551    1.2291 H   0  0  0  0  0  0  0  0  0  0  0  0
    7.5423   -8.8945    0.8992 H   0  0  0  0  0  0  0  0  0  0  0  0
    5.1022  -11.1364    1.3614 H   0  0  0  0  0  0  0  0  0  0  0  0
    2.2249   -8.8401    1.8490 H   0  0  0  0  0  0  0  0  0  0  0  0
    2.6191  -10.4937    1.5934 H   0  0  0  0  0  0  0  0  0  0  0  0
    0.5291   -9.2460    3.4065 H   0  0  0  0  0  0  0  0  0  0  0  0
    0.2993  -10.3679    2.1150 H   0  0  0  0  0  0  0  0  0  0  0  0
   -0.0837  -11.3857    4.3380 H   0  0  0  0  0  0  0  0  0  0  0  0
    1.0842  -12.2525    3.3932 H   0  0  0  0  0  0  0  0  0  0  0  0
    3.7321  -11.9208    5.7350 H   0  0  0  0  0  0  0  0  0  0  0  0
    3.0066  -12.9062    4.5081 H   0  0  0  0  0  0  0  0  0  0  0  0
    3.9896  -11.7571    2.8366 H   0  0  0  0  0  0  0  0  0  0  0  0
    5.0191  -11.1202    4.0894 H   0  0  0  0  0  0  0  0  0  0  0  0
    2.5831  -10.0021    6.6054 H   0  0  0  0  0  0  0  0  0  0  0  0
    4.0230   -9.1534    5.3216 H   0  0  0  0  0  0  0  0  0  0  0  0
    1.4725  -11.7425    5.8403 H   0  0  0  0  0  0  0  0  0  0  0  0
  1  2  1  0
  1 23  1  0
  1 24  1  0
  1 25  1  0
  2 21  1  0
  2  3  1  0
  3  4  1  0
  3 26  1  0
  3 27  1  0
  4  5  1  0
  4 28  1  0
  4 29  1  0
  5 22  1  0
  5  6  1  0
  5 30  1  1
  6  7  1  0
  6 31  1  0
  6 32  1  0
  7 13  2  0
  7  8  1  0
  8  9  2  0
  8 33  1  0
  9 10  1  0
  9 34  1  0
 10 11  2  0
 10 35  1  0
 11 12  1  0
 11 13  1  0
 12 36  1  0
 14 13  1  6
 14 20  1  0
 14 22  1  0
 14 15  1  0
 15 16  1  0
 15 37  1  0
 15 38  1  0
 16 17  1  0
 16 39  1  0
 16 40  1  0
 17 18  1  0
 17 41  1  0
 17 42  1  0
 18 19  1  0
 18 21  1  0
 18 49  1  1
 19 20  1  0
 19 43  1  0
 19 44  1  0
 20 45  1  0
 20 46  1  0
 21 22  1  0
 21 47  1  1
 22 48  1  1
M  CHG  1  18   1
M  END
>  <i_m_ct_stereo_status>  (131) 
1

>  <s_m_source_file>  (131) 
/var/tmp/pbs.5076255.sched01/tmpaqd8m8vp/41rn73ajce.sdf

>  <i_m_source_file_index>  (131) 
23

>  <i_lp_mmshare_version>  (131) 
48012

>  <i_f3d_flags>  (131) 
0

>  <s_epik_input>  (131) 
W0NIMl0xW0NIMl1bQ0gyXU4oW0NIMl1bQ0gyXTIpW0NASF0oTihbQ0gzXSlbQ0gyXVtDSDJdMylbQ0BASF00W0NASF0zW0NIMl1jKGM1W0NAQF0xMjQpW2NIXVtjSF1bY0hdYzVbT0hd

>  <s_epik_cmdline>  (131) 
J2VwaWtfcHl0aG9uJywgJy1waHQnLCAnMi4wJywgJy1waCcsICc3LjAnLCAnLXRuJywgJzgnLCAnLW1hJywgJzIwMCcsICctaW1hZScsICc8aW5maWxlLm1hZT4nLCAnLW9tYWUnLCAnPG91dGZpbGUubWFlPic=

>  <r_lp_tautomer_probability>  (131) 
1

>  <r_epik_Ionization_Penalty>  (131) 
0.000507382

>  <r_epik_Ionization_Penalty_Charging>  (131) 
0.000152519

>  <r_epik_Ionization_Penalty_Neutral>  (131) 
0.000354863

>  <r_epik_State_Penalty>  (131) 
0.0176213

>  <r_epik_Charging_Adjusted_Penalty>  (131) 
0.0177738

>  <i_epik_Tot_Q>  (131) 
1

>  <i_epik_Tot_abs_Q>  (131) 
1

>  <s_epik_Chemistry_Notes>  (131) 
This compound contains an acetal/aminal-like group ( X-CH(R)-Y where X, Y are N, S, or O) that may be acid/base labile, releasing an aldehyde.

>  <s_lp_Force_Field>  (131) 
OPLS3e

>  <r_lp_Energy>  (131) 
59.2762

>  <b_lp_Chiralities_Consistent>  (131) 
1

>  <s_lp_Variant>  (131) 
47:0-1

>  <s_i_glide_gridfile>  (131) 
pfpi4k_grid

>  <i_i_glide_lignum>  (131) 
23

>  <i_i_glide_rotatable_bonds>  (131) 
1

>  <r_i_docking_score>  (131) 
-4.61538

>  <r_i_glide_ligand_efficiency>  (131) 
-0.20979

>  <r_i_glide_ligand_efficiency_sa>  (131) 
-0.58784

>  <r_i_glide_ligand_efficiency_ln>  (131) 
-1.12817

>  <r_i_glide_gscore>  (131) 
-4.61538

>  <r_i_glide_lipo>  (131) 
-0.512503

>  <r_i_glide_hbond>  (131) 
-0.36

>  <r_i_glide_metal>  (131) 
-0

>  <r_i_glide_rewards>  (131) 
-1.36752

>  <r_i_glide_evdw>  (131) 
-16.6248

>  <r_i_glide_ecoul>  (131) 
-9.38043

>  <r_i_glide_erotb>  (131) 
0

>  <r_i_glide_esite>  (131) 
-0.137053

>  <r_i_glide_emodel>  (131) 
-36.8032

>  <r_i_glide_energy>  (131) 
-26.0052

>  <r_i_glide_einternal>  (131) 
1.61683

>  <r_i_glide_intrahb_reward>  (131) 
-0

>  <i_i_glide_confnum>  (131) 
1

>  <i_i_glide_posenum>  (131) 
23

>  <r_i_glide_eff_state_penalty>  (131) 
0

>  <ligand_id>  (131) 
47

>  <original_smiles>  (131) 
CN1CCC2Cc3cccc(O)c3C34CCCN(CC3)C1C24

>  <smiles>  (131) 
[H]Oc1c([H])c([H])c([H])c2c1C13C([H])([H])C([H])([H])C([H])([H])[N+]([H])(C([H])([H])C1([H])[H])C1([H])N(C([H])([H])[H])C([H])([H])C([H])([H])C([H])(C2([H])[H])C31[H]

$$$$
47:0:1
     RDKit          3D

 49 53  0  0  1  0  0  0  0  0999 V2000
    3.9924   -3.2216    4.9305 C   0  0  0  0  0  0  0  0  0  0  0  0
    4.4463   -3.4597    3.5632 N   0  0  0  0  0  0  0  0  0  0  0  0
    4.2689   -4.8804    3.2822 C   0  0  0  0  0  0  0  0  0  0  0  0
    4.9796   -5.2072    1.9738 C   0  0  0  0  0  0  0  0  0  0  0  0
    4.3551   -4.4862    0.7770 C   0  0  2  0  0  0  0  0  0  0  0  0
    5.2625   -4.6443   -0.4429 C   0  0  0  0  0  0  0  0  0  0  0  0
    4.8880   -3.7268   -1.5793 C   0  0  0  0  0  0  0  0  0  0  0  0
    4.8702   -4.2397   -2.8802 C   0  0  0  0  0  0  0  0  0  0  0  0
    4.5017   -3.4542   -3.9677 C   0  0  0  0  0  0  0  0  0  0  0  0
    4.2255   -2.0985   -3.7676 C   0  0  0  0  0  0  0  0  0  0  0  0
    4.3121   -1.5651   -2.4780 C   0  0  0  0  0  0  0  0  0  0  0  0
    4.2201   -0.2248   -2.4167 O   0  0  0  0  0  0  0  0  0  0  0  0
    4.5658   -2.3734   -1.3332 C   0  0  0  0  0  0  0  0  0  0  0  0
    4.5646   -1.8903    0.1394 C   0  0  1  0  0  0  0  0  0  0  0  0
    6.0224   -1.5191    0.4921 C   0  0  0  0  0  0  0  0  0  0  0  0
    6.3698   -1.4981    1.9809 C   0  0  0  0  0  0  0  0  0  0  0  0
    5.4111   -0.7430    2.9083 C   0  0  0  0  0  0  0  0  0  0  0  0
    3.9900   -1.1705    2.7911 N   0  0  1  0  0  0  0  0  0  0  0  0
    3.2396   -0.3542    1.8129 C   0  0  0  0  0  0  0  0  0  0  0  0
    3.6998   -0.6141    0.3688 C   0  0  0  0  0  0  0  0  0  0  0  0
    3.7376   -2.6263    2.5756 C   0  0  1  0  0  0  0  0  0  0  0  0
    3.9555   -3.0113    1.0670 C   0  0  2  0  0  0  0  0  0  0  0  0
    4.5636   -3.8423    5.6238 H   0  0  0  0  0  0  0  0  0  0  0  0
    2.9370   -3.4704    5.0563 H   0  0  0  0  0  0  0  0  0  0  0  0
    4.1464   -2.1862    5.2344 H   0  0  0  0  0  0  0  0  0  0  0  0
    4.7335   -5.4701    4.0752 H   0  0  0  0  0  0  0  0  0  0  0  0
    3.2139   -5.1702    3.2537 H   0  0  0  0  0  0  0  0  0  0  0  0
    6.0408   -4.9728    2.0651 H   0  0  0  0  0  0  0  0  0  0  0  0
    4.9197   -6.2804    1.8031 H   0  0  0  0  0  0  0  0  0  0  0  0
    3.4286   -5.0146    0.5347 H   0  0  0  0  0  0  0  0  0  0  0  0
    6.2918   -4.4085   -0.1793 H   0  0  0  0  0  0  0  0  0  0  0  0
    5.2645   -5.6842   -0.7728 H   0  0  0  0  0  0  0  0  0  0  0  0
    5.0135   -5.2939   -3.0513 H   0  0  0  0  0  0  0  0  0  0  0  0
    4.4637   -3.8944   -4.9502 H   0  0  0  0  0  0  0  0  0  0  0  0
    4.0300   -1.4605   -4.6192 H   0  0  0  0  0  0  0  0  0  0  0  0
    3.6721    0.1243   -3.0977 H   0  0  0  0  0  0  0  0  0  0  0  0
    6.7068   -2.2367    0.0435 H   0  0  0  0  0  0  0  0  0  0  0  0
    6.2885   -0.5612    0.0431 H   0  0  0  0  0  0  0  0  0  0  0  0
    6.5047   -2.5233    2.3279 H   0  0  0  0  0  0  0  0  0  0  0  0
    7.3448   -1.0287    2.0660 H   0  0  0  0  0  0  0  0  0  0  0  0
    5.7315   -0.8996    3.9354 H   0  0  0  0  0  0  0  0  0  0  0  0
    5.5032    0.3283    2.7498 H   0  0  0  0  0  0  0  0  0  0  0  0
    2.1778   -0.5805    1.9035 H   0  0  0  0  0  0  0  0  0  0  0  0
    3.3311    0.7064    2.0479 H   0  0  0  0  0  0  0  0  0  0  0  0
    4.2258    0.2767    0.0273 H   0  0  0  0  0  0  0  0  0  0  0  0
    2.7941   -0.6687   -0.2311 H   0  0  0  0  0  0  0  0  0  0  0  0
    2.6775   -2.7742    2.7772 H   0  0  0  0  0  0  0  0  0  0  0  0
    2.9271   -3.0093    0.7026 H   0  0  0  0  0  0  0  0  0  0  0  0
    3.5848   -0.9416    3.6840 H   0  0  0  0  0  0  0  0  0  0  0  0
  1  2  1  0
  1 23  1  0
  1 24  1  0
  1 25  1  0
  2 21  1  0
  2  3  1  0
  3  4  1  0
  3 26  1  0
  3 27  1  0
  4  5  1  0
  4 28  1  0
  4 29  1  0
  5 22  1  0
  5  6  1  0
  5 30  1  6
  6  7  1  0
  6 31  1  0
  6 32  1  0
  7 13  2  0
  7  8  1  0
  8  9  2  0
  8 33  1  0
  9 10  1  0
  9 34  1  0
 10 11  2  0
 10 35  1  0
 11 12  1  0
 11 13  1  0
 12 36  1  0
 14 13  1  6
 14 20  1  0
 14 22  1  0
 14 15  1  0
 15 16  1  0
 15 37  1  0
 15 38  1  0
 16 17  1  0
 16 39  1  0
 16 40  1  0
 17 18  1  0
 17 41  1  0
 17 42  1  0
 18 19  1  0
 18 21  1  0
 18 49  1  1
 19 20  1  0
 19 43  1  0
 19 44  1  0
 20 45  1  0
 20 46  1  0
 21 22  1  0
 21 47  1  1
 22 48  1  6
M  CHG  1  18   1
M  END
>  <i_m_ct_stereo_status>  (132) 
1

>  <s_m_source_file>  (132) 
/var/tmp/pbs.5076255.sched01/tmpaqd8m8vp/41rn73ajce.sdf

>  <i_m_source_file_index>  (132) 
23

>  <i_lp_mmshare_version>  (132) 
48012

>  <i_f3d_flags>  (132) 
0

>  <s_epik_input>  (132) 
W0NIMl0xW0NIMl1bQ0gyXU4oW0NIMl1bQ0gyXTIpW0NASF0oTihbQ0gzXSlbQ0gyXVtDSDJdMylbQ0BASF00W0NASF0zW0NIMl1jKGM1W0NAQF0xMjQpW2NIXVtjSF1bY0hdYzVbT0hd

>  <s_epik_cmdline>  (132) 
J2VwaWtfcHl0aG9uJywgJy1waHQnLCAnMi4wJywgJy1waCcsICc3LjAnLCAnLXRuJywgJzgnLCAnLW1hJywgJzIwMCcsICctaW1hZScsICc8aW5maWxlLm1hZT4nLCAnLW9tYWUnLCAnPG91dGZpbGUubWFlPic=

>  <r_lp_tautomer_probability>  (132) 
1

>  <r_epik_Ionization_Penalty>  (132) 
0.000507382

>  <r_epik_Ionization_Penalty_Charging>  (132) 
0.000152519

>  <r_epik_Ionization_Penalty_Neutral>  (132) 
0.000354863

>  <r_epik_State_Penalty>  (132) 
0.0176213

>  <r_epik_Charging_Adjusted_Penalty>  (132) 
0.0177738

>  <i_epik_Tot_Q>  (132) 
1

>  <i_epik_Tot_abs_Q>  (132) 
1

>  <s_epik_Chemistry_Notes>  (132) 
This compound contains an acetal/aminal-like group ( X-CH(R)-Y where X, Y are N, S, or O) that may be acid/base labile, releasing an aldehyde.

>  <s_lp_Force_Field>  (132) 
OPLS3e

>  <r_lp_Energy>  (132) 
59.2762

>  <b_lp_Chiralities_Consistent>  (132) 
1

>  <s_lp_Variant>  (132) 
47:0-1

>  <s_i_glide_gridfile>  (132) 
pfpi4k_grid

>  <i_i_glide_lignum>  (132) 
23

>  <i_i_glide_rotatable_bonds>  (132) 
1

>  <r_i_docking_score>  (132) 
-2.90325

>  <r_i_glide_ligand_efficiency>  (132) 
-0.131966

>  <r_i_glide_ligand_efficiency_sa>  (132) 
-0.369774

>  <r_i_glide_ligand_efficiency_ln>  (132) 
-0.70966

>  <r_i_glide_gscore>  (132) 
-2.90325

>  <r_i_glide_lipo>  (132) 
-0.601226

>  <r_i_glide_hbond>  (132) 
0

>  <r_i_glide_metal>  (132) 
-0

>  <r_i_glide_rewards>  (132) 
-1.36804

>  <r_i_glide_evdw>  (132) 
-13.215

>  <r_i_glide_ecoul>  (132) 
-1.82157

>  <r_i_glide_erotb>  (132) 
0

>  <r_i_glide_esite>  (132) 
0

>  <r_i_glide_emodel>  (132) 
-21.8152

>  <r_i_glide_energy>  (132) 
-15.0366

>  <r_i_glide_einternal>  (132) 
0.592598

>  <r_i_glide_intrahb_reward>  (132) 
-0

>  <i_i_glide_confnum>  (132) 
1

>  <i_i_glide_posenum>  (132) 
2

>  <r_i_glide_eff_state_penalty>  (132) 
0

>  <ligand_id>  (132) 
47

>  <original_smiles>  (132) 
CN1CCC2Cc3cccc(O)c3C34CCCN(CC3)C1C24

>  <smiles>  (132) 
[H]Oc1c([H])c([H])c([H])c2c1C13C([H])([H])C([H])([H])C([H])([H])[N+]([H])(C([H])([H])C1([H])[H])C1([H])N(C([H])([H])[H])C([H])([H])C([H])([H])C([H])(C2([H])[H])C31[H]

$$$$
47:0:2
     RDKit          3D

 49 53  0  0  1  0  0  0  0  0999 V2000
    0.4349  -10.1509    3.2594 C   0  0  0  0  0  0  0  0  0  0  0  0
    0.9971   -9.0458    2.4835 N   0  0  0  0  0  0  0  0  0  0  0  0
   -0.0876   -8.1181    2.1856 C   0  0  0  0  0  0  0  0  0  0  0  0
    0.4080   -7.1027    1.1593 C   0  0  0  0  0  0  0  0  0  0  0  0
    1.5517   -6.2332    1.6924 C   0  0  2  0  0  0  0  0  0  0  0  0
    2.1869   -5.4417    0.5429 C   0  0  0  0  0  0  0  0  0  0  0  0
    3.4728   -4.7660    0.9442 C   0  0  0  0  0  0  0  0  0  0  0  0
    3.6797   -3.4296    0.5510 C   0  0  0  0  0  0  0  0  0  0  0  0
    4.8924   -2.7925    0.8440 C   0  0  0  0  0  0  0  0  0  0  0  0
    5.9067   -3.5079    1.4930 C   0  0  0  0  0  0  0  0  0  0  0  0
    5.7098   -4.8478    1.8887 C   0  0  0  0  0  0  0  0  0  0  0  0
    6.7867   -5.4606    2.4568 O   0  0  0  0  0  0  0  0  0  0  0  0
    4.4580   -5.4924    1.6641 C   0  0  0  0  0  0  0  0  0  0  0  0
    4.1051   -6.9458    2.1049 C   0  0  1  0  0  0  0  0  0  0  0  0
    4.4421   -7.8825    0.9132 C   0  0  0  0  0  0  0  0  0  0  0  0
    3.7357   -9.2493    0.8927 C   0  0  0  0  0  0  0  0  0  0  0  0
    3.7731  -10.0469    2.2056 C   0  0  0  0  0  0  0  0  0  0  0  0
    3.2692   -9.2981    3.3922 N   0  0  1  0  0  0  0  0  0  0  0  0
    4.3527   -8.6105    4.1294 C   0  0  0  0  0  0  0  0  0  0  0  0
    4.9444   -7.4314    3.3340 C   0  0  0  0  0  0  0  0  0  0  0  0
    2.1130   -8.3768    3.1739 C   0  0  1  0  0  0  0  0  0  0  0  0
    2.5915   -7.0148    2.5463 C   0  0  2  0  0  0  0  0  0  0  0  0
   -0.3596  -10.6317    2.6876 H   0  0  0  0  0  0  0  0  0  0  0  0
    0.0051   -9.8103    4.2034 H   0  0  0  0  0  0  0  0  0  0  0  0
    1.1776  -10.9200    3.4728 H   0  0  0  0  0  0  0  0  0  0  0  0
   -0.9196   -8.6691    1.7446 H   0  0  0  0  0  0  0  0  0  0  0  0
   -0.4670   -7.6318    3.0873 H   0  0  0  0  0  0  0  0  0  0  0  0
    0.7146   -7.6289    0.2587 H   0  0  0  0  0  0  0  0  0  0  0  0
   -0.4275   -6.4700    0.8616 H   0  0  0  0  0  0  0  0  0  0  0  0
    1.0990   -5.5002    2.3639 H   0  0  0  0  0  0  0  0  0  0  0  0
    2.4123   -6.1041   -0.2906 H   0  0  0  0  0  0  0  0  0  0  0  0
    1.4904   -4.7158    0.1323 H   0  0  0  0  0  0  0  0  0  0  0  0
    2.9133   -2.8905    0.0126 H   0  0  0  0  0  0  0  0  0  0  0  0
    5.0513   -1.7655    0.5513 H   0  0  0  0  0  0  0  0  0  0  0  0
    6.8541   -3.0299    1.6821 H   0  0  0  0  0  0  0  0  0  0  0  0
    6.6371   -6.3694    2.6611 H   0  0  0  0  0  0  0  0  0  0  0  0
    4.1932   -7.3932   -0.0259 H   0  0  0  0  0  0  0  0  0  0  0  0
    5.5214   -8.0284    0.8516 H   0  0  0  0  0  0  0  0  0  0  0  0
    2.7027   -9.1421    0.5658 H   0  0  0  0  0  0  0  0  0  0  0  0
    4.2050   -9.8539    0.1151 H   0  0  0  0  0  0  0  0  0  0  0  0
    3.1543  -10.9365    2.0826 H   0  0  0  0  0  0  0  0  0  0  0  0
    4.7806  -10.4236    2.3897 H   0  0  0  0  0  0  0  0  0  0  0  0
    3.9558   -8.2454    5.0782 H   0  0  0  0  0  0  0  0  0  0  0  0
    5.1415   -9.3165    4.3940 H   0  0  0  0  0  0  0  0  0  0  0  0
    5.9459   -7.7303    3.0229 H   0  0  0  0  0  0  0  0  0  0  0  0
    5.0709   -6.6147    4.0476 H   0  0  0  0  0  0  0  0  0  0  0  0
    1.7327   -8.1388    4.1699 H   0  0  0  0  0  0  0  0  0  0  0  0
    2.6310   -6.3837    3.4358 H   0  0  0  0  0  0  0  0  0  0  0  0
    2.9409  -10.0184    4.0195 H   0  0  0  0  0  0  0  0  0  0  0  0
  1  2  1  0
  1 23  1  0
  1 24  1  0
  1 25  1  0
  2 21  1  0
  2  3  1  0
  3  4  1  0
  3 26  1  0
  3 27  1  0
  4  5  1  0
  4 28  1  0
  4 29  1  0
  5 22  1  0
  5  6  1  0
  5 30  1  1
  6  7  1  0
  6 31  1  0
  6 32  1  0
  7 13  2  0
  7  8  1  0
  8  9  2  0
  8 33  1  0
  9 10  1  0
  9 34  1  0
 10 11  2  0
 10 35  1  0
 11 12  1  0
 11 13  1  0
 12 36  1  0
 14 13  1  6
 14 20  1  0
 14 22  1  0
 14 15  1  0
 15 16  1  0
 15 37  1  0
 15 38  1  0
 16 17  1  0
 16 39  1  0
 16 40  1  0
 17 18  1  0
 17 41  1  0
 17 42  1  0
 18 19  1  0
 18 21  1  0
 18 49  1  1
 19 20  1  0
 19 43  1  0
 19 44  1  0
 20 45  1  0
 20 46  1  0
 21 22  1  0
 21 47  1  1
 22 48  1  1
M  CHG  1  18   1
M  END
>  <i_m_ct_stereo_status>  (133) 
1

>  <s_m_source_file>  (133) 
/var/tmp/pbs.5076255.sched01/tmpaqd8m8vp/41rn73ajce.sdf

>  <i_m_source_file_index>  (133) 
23

>  <i_lp_mmshare_version>  (133) 
48012

>  <i_f3d_flags>  (133) 
0

>  <s_epik_input>  (133) 
W0NIMl0xW0NIMl1bQ0gyXU4oW0NIMl1bQ0gyXTIpW0NASF0oTihbQ0gzXSlbQ0gyXVtDSDJdMylbQ0BASF00W0NASF0zW0NIMl1jKGM1W0NAQF0xMjQpW2NIXVtjSF1bY0hdYzVbT0hd

>  <s_epik_cmdline>  (133) 
J2VwaWtfcHl0aG9uJywgJy1waHQnLCAnMi4wJywgJy1waCcsICc3LjAnLCAnLXRuJywgJzgnLCAnLW1hJywgJzIwMCcsICctaW1hZScsICc8aW5maWxlLm1hZT4nLCAnLW9tYWUnLCAnPG91dGZpbGUubWFlPic=

>  <r_lp_tautomer_probability>  (133) 
1

>  <r_epik_Ionization_Penalty>  (133) 
0.000507382

>  <r_epik_Ionization_Penalty_Charging>  (133) 
0.000152519

>  <r_epik_Ionization_Penalty_Neutral>  (133) 
0.000354863

>  <r_epik_State_Penalty>  (133) 
0.0176213

>  <r_epik_Charging_Adjusted_Penalty>  (133) 
0.0177738

>  <i_epik_Tot_Q>  (133) 
1

>  <i_epik_Tot_abs_Q>  (133) 
1

>  <s_epik_Chemistry_Notes>  (133) 
This compound contains an acetal/aminal-like group ( X-CH(R)-Y where X, Y are N, S, or O) that may be acid/base labile, releasing an aldehyde.

>  <s_lp_Force_Field>  (133) 
OPLS3e

>  <r_lp_Energy>  (133) 
59.2762

>  <b_lp_Chiralities_Consistent>  (133) 
1

>  <s_lp_Variant>  (133) 
47:0-1

>  <s_i_glide_gridfile>  (133) 
pfpi4k_grid

>  <i_i_glide_lignum>  (133) 
23

>  <i_i_glide_rotatable_bonds>  (133) 
1

>  <r_i_docking_score>  (133) 
-2.77145

>  <r_i_glide_ligand_efficiency>  (133) 
-0.125975

>  <r_i_glide_ligand_efficiency_sa>  (133) 
-0.352986

>  <r_i_glide_ligand_efficiency_ln>  (133) 
-0.677443

>  <r_i_glide_gscore>  (133) 
-2.77145

>  <r_i_glide_lipo>  (133) 
-0.223042

>  <r_i_glide_hbond>  (133) 
0

>  <r_i_glide_metal>  (133) 
-0

>  <r_i_glide_rewards>  (133) 
-1.36752

>  <r_i_glide_evdw>  (133) 
-18.7707

>  <r_i_glide_ecoul>  (133) 
-1.51575

>  <r_i_glide_erotb>  (133) 
0

>  <r_i_glide_esite>  (133) 
-0.0149872

>  <r_i_glide_emodel>  (133) 
-27.5589

>  <r_i_glide_energy>  (133) 
-20.2865

>  <r_i_glide_einternal>  (133) 
0.00541531

>  <r_i_glide_intrahb_reward>  (133) 
-0

>  <i_i_glide_confnum>  (133) 
1

>  <i_i_glide_posenum>  (133) 
1

>  <r_i_glide_eff_state_penalty>  (133) 
0

>  <ligand_id>  (133) 
47

>  <original_smiles>  (133) 
CN1CCC2Cc3cccc(O)c3C34CCCN(CC3)C1C24

>  <smiles>  (133) 
[H]Oc1c([H])c([H])c([H])c2c1C13C([H])([H])C([H])([H])C([H])([H])[N+]([H])(C([H])([H])C1([H])[H])C1([H])N(C([H])([H])[H])C([H])([H])C([H])([H])C([H])(C2([H])[H])C31[H]

$$$$
47:1:0
     RDKit          3D

 49 53  0  0  1  0  0  0  0  0999 V2000
    3.8566  -11.7858    5.3054 C   0  0  0  0  0  0  0  0  0  0  0  0
    3.8878  -10.8477    4.1561 N   0  0  1  0  0  0  0  0  0  0  0  0
    2.5400  -10.2947    3.9063 C   0  0  0  0  0  0  0  0  0  0  0  0
    2.5354   -9.5547    2.5744 C   0  0  0  0  0  0  0  0  0  0  0  0
    3.4273   -8.3077    2.6403 C   0  0  2  0  0  0  0  0  0  0  0  0
    3.5118   -7.6501    1.2634 C   0  0  0  0  0  0  0  0  0  0  0  0
    4.5984   -6.6034    1.1756 C   0  0  0  0  0  0  0  0  0  0  0  0
    4.3003   -5.3856    0.5340 C   0  0  0  0  0  0  0  0  0  0  0  0
    5.2951   -4.4087    0.3869 C   0  0  0  0  0  0  0  0  0  0  0  0
    6.5924   -4.6711    0.8472 C   0  0  0  0  0  0  0  0  0  0  0  0
    6.9051   -5.8938    1.4768 C   0  0  0  0  0  0  0  0  0  0  0  0
    8.2157   -6.0606    1.8145 O   0  0  0  0  0  0  0  0  0  0  0  0
    5.8901   -6.8730    1.7002 C   0  0  0  0  0  0  0  0  0  0  0  0
    6.0971   -8.2286    2.4398 C   0  0  1  0  0  0  0  0  0  0  0  0
    6.4068   -9.3039    1.3697 C   0  0  0  0  0  0  0  0  0  0  0  0
    6.1698  -10.7627    1.7794 C   0  0  0  0  0  0  0  0  0  0  0  0
    6.6844  -11.2053    3.1587 C   0  0  0  0  0  0  0  0  0  0  0  0
    6.2897  -10.3464    4.2823 N   0  0  0  0  0  0  0  0  0  0  0  0
    7.2758   -9.2999    4.5256 C   0  0  0  0  0  0  0  0  0  0  0  0
    7.2919   -8.2078    3.4380 C   0  0  0  0  0  0  0  0  0  0  0  0
    4.9311   -9.7809    4.2823 C   0  0  1  0  0  0  0  0  0  0  0  0
    4.8176   -8.5594    3.2955 C   0  0  2  0  0  0  0  0  0  0  0  0
    3.5961  -11.2683    6.2285 H   0  0  0  0  0  0  0  0  0  0  0  0
    4.8198  -12.2747    5.4473 H   0  0  0  0  0  0  0  0  0  0  0  0
    3.1137  -12.5702    5.1516 H   0  0  0  0  0  0  0  0  0  0  0  0
    1.8086  -11.1027    3.8602 H   0  0  0  0  0  0  0  0  0  0  0  0
    2.2299   -9.6415    4.7255 H   0  0  0  0  0  0  0  0  0  0  0  0
    2.8512  -10.2276    1.7726 H   0  0  0  0  0  0  0  0  0  0  0  0
    1.5113   -9.2548    2.3428 H   0  0  0  0  0  0  0  0  0  0  0  0
    2.9113   -7.5884    3.2822 H   0  0  0  0  0  0  0  0  0  0  0  0
    3.7376   -8.4097    0.5145 H   0  0  0  0  0  0  0  0  0  0  0  0
    2.5442   -7.2311    0.9846 H   0  0  0  0  0  0  0  0  0  0  0  0
    3.3091   -5.1978    0.1468 H   0  0  0  0  0  0  0  0  0  0  0  0
    5.0649   -3.4697   -0.0969 H   0  0  0  0  0  0  0  0  0  0  0  0
    7.3673   -3.9319    0.7033 H   0  0  0  0  0  0  0  0  0  0  0  0
    8.4394   -6.9348    2.1010 H   0  0  0  0  0  0  0  0  0  0  0  0
    5.7794   -9.1403    0.4961 H   0  0  0  0  0  0  0  0  0  0  0  0
    7.4129   -9.1715    0.9969 H   0  0  0  0  0  0  0  0  0  0  0  0
    5.1013  -10.9508    1.7356 H   0  0  0  0  0  0  0  0  0  0  0  0
    6.6069  -11.4138    1.0203 H   0  0  0  0  0  0  0  0  0  0  0  0
    6.2967  -12.2056    3.3553 H   0  0  0  0  0  0  0  0  0  0  0  0
    7.7697  -11.3127    3.1400 H   0  0  0  0  0  0  0  0  0  0  0  0
    7.0586   -8.8388    5.4899 H   0  0  0  0  0  0  0  0  0  0  0  0
    8.2701   -9.7372    4.6284 H   0  0  0  0  0  0  0  0  0  0  0  0
    8.2418   -8.2996    2.9091 H   0  0  0  0  0  0  0  0  0  0  0  0
    7.3278   -7.2516    3.9617 H   0  0  0  0  0  0  0  0  0  0  0  0
    4.7860   -9.3682    5.2823 H   0  0  0  0  0  0  0  0  0  0  0  0
    4.8505   -7.7297    4.0017 H   0  0  0  0  0  0  0  0  0  0  0  0
    4.1143  -11.3909    3.3345 H   0  0  0  0  0  0  0  0  0  0  0  0
  1  2  1  0
  1 23  1  0
  1 24  1  0
  1 25  1  0
  2 21  1  0
  2  3  1  0
  2 49  1  6
  3  4  1  0
  3 26  1  0
  3 27  1  0
  4  5  1  0
  4 28  1  0
  4 29  1  0
  5 22  1  0
  5  6  1  0
  5 30  1  1
  6  7  1  0
  6 31  1  0
  6 32  1  0
  7 13  2  0
  7  8  1  0
  8  9  2  0
  8 33  1  0
  9 10  1  0
  9 34  1  0
 10 11  2  0
 10 35  1  0
 11 12  1  0
 11 13  1  0
 12 36  1  0
 14 13  1  6
 14 20  1  0
 14 22  1  0
 14 15  1  0
 15 16  1  0
 15 37  1  0
 15 38  1  0
 16 17  1  0
 16 39  1  0
 16 40  1  0
 17 18  1  0
 17 41  1  0
 17 42  1  0
 18 19  1  0
 18 21  1  0
 19 20  1  0
 19 43  1  0
 19 44  1  0
 20 45  1  0
 20 46  1  0
 21 22  1  0
 21 47  1  1
 22 48  1  1
M  CHG  1   2   1
M  END
>  <i_m_ct_stereo_status>  (134) 
1

>  <s_m_source_file>  (134) 
/var/tmp/pbs.5076255.sched01/tmpaqd8m8vp/41rn73ajce.sdf

>  <i_m_source_file_index>  (134) 
24

>  <i_lp_mmshare_version>  (134) 
48012

>  <i_f3d_flags>  (134) 
0

>  <s_epik_input>  (134) 
W0NIMl0xW0NIMl1bQ0gyXU4oW0NIMl1bQ0gyXTIpW0NASF0oTihbQ0gzXSlbQ0gyXVtDSDJdMylbQ0BASF00W0NASF0zW0NIMl1jKGM1W0NAQF0xMjQpW2NIXVtjSF1bY0hdYzVbT0hd

>  <s_epik_cmdline>  (134) 
J2VwaWtfcHl0aG9uJywgJy1waHQnLCAnMi4wJywgJy1waCcsICc3LjAnLCAnLXRuJywgJzgnLCAnLW1hJywgJzIwMCcsICctaW1hZScsICc8aW5maWxlLm1hZT4nLCAnLW9tYWUnLCAnPG91dGZpbGUubWFlPic=

>  <r_epik_Ionization_Penalty>  (134) 
0.00415293

>  <r_epik_Ionization_Penalty_Charging>  (134) 
0.00404112

>  <r_epik_Ionization_Penalty_Neutral>  (134) 
0.000111807

>  <r_epik_State_Penalty>  (134) 
2.09151

>  <r_epik_Charging_Adjusted_Penalty>  (134) 
2.09555

>  <i_epik_Tot_Q>  (134) 
1

>  <i_epik_Tot_abs_Q>  (134) 
1

>  <s_epik_Chemistry_Notes>  (134) 
This compound contains an acetal/aminal-like group ( X-CH(R)-Y where X, Y are N, S, or O) that may be acid/base labile, releasing an aldehyde.

>  <s_lp_Force_Field>  (134) 
OPLS3e

>  <r_lp_Energy>  (134) 
61.3544

>  <b_lp_Chiralities_Consistent>  (134) 
1

>  <s_lp_Variant>  (134) 
47:0-2

>  <s_i_glide_gridfile>  (134) 
pfpi4k_grid

>  <i_i_glide_lignum>  (134) 
24

>  <i_i_glide_rotatable_bonds>  (134) 
1

>  <r_i_docking_score>  (134) 
-3.43267

>  <r_i_glide_ligand_efficiency>  (134) 
-0.15603

>  <r_i_glide_ligand_efficiency_sa>  (134) 
-0.437203

>  <r_i_glide_ligand_efficiency_ln>  (134) 
-0.83907

>  <r_i_glide_gscore>  (134) 
-3.43267

>  <r_i_glide_lipo>  (134) 
-0.643645

>  <r_i_glide_hbond>  (134) 
0

>  <r_i_glide_metal>  (134) 
-0

>  <r_i_glide_rewards>  (134) 
-1.36752

>  <r_i_glide_evdw>  (134) 
-17.575

>  <r_i_glide_ecoul>  (134) 
-3.51489

>  <r_i_glide_erotb>  (134) 
0

>  <r_i_glide_esite>  (134) 
-0.0155232

>  <r_i_glide_emodel>  (134) 
-27.9052

>  <r_i_glide_energy>  (134) 
-21.0899

>  <r_i_glide_einternal>  (134) 
0.0767592

>  <r_i_glide_intrahb_reward>  (134) 
-0

>  <i_i_glide_confnum>  (134) 
1

>  <i_i_glide_posenum>  (134) 
1

>  <r_i_glide_eff_state_penalty>  (134) 
0

>  <ligand_id>  (134) 
47

>  <original_smiles>  (134) 
CN1CCC2Cc3cccc(O)c3C34CCCN(CC3)C1C24

>  <smiles>  (134) 
[H]Oc1c([H])c([H])c([H])c2c1C13C([H])([H])C([H])([H])N(C([H])([H])C([H])([H])C1([H])[H])C1([H])C3([H])C([H])(C2([H])[H])C([H])([H])C([H])([H])[N+]1([H])C([H])([H])[H]

$$$$
47:1:1
     RDKit          3D

 49 53  0  0  1  0  0  0  0  0999 V2000
    2.0995  -11.7427    4.8264 C   0  0  0  0  0  0  0  0  0  0  0  0
    2.8471  -10.9445    3.8228 N   0  0  1  0  0  0  0  0  0  0  0  0
    1.9206  -10.0832    3.0548 C   0  0  0  0  0  0  0  0  0  0  0  0
    2.6576   -9.4678    1.8717 C   0  0  0  0  0  0  0  0  0  0  0  0
    3.7482   -8.5001    2.3421 C   0  0  2  0  0  0  0  0  0  0  0  0
    4.5644   -8.0037    1.1462 C   0  0  0  0  0  0  0  0  0  0  0  0
    5.8220   -7.2786    1.5676 C   0  0  0  0  0  0  0  0  0  0  0  0
    6.1520   -6.0806    0.9078 C   0  0  0  0  0  0  0  0  0  0  0  0
    7.3465   -5.4149    1.2170 C   0  0  0  0  0  0  0  0  0  0  0  0
    8.2201   -5.9711    2.1633 C   0  0  0  0  0  0  0  0  0  0  0  0
    7.9029   -7.1738    2.8242 C   0  0  0  0  0  0  0  0  0  0  0  0
    8.8573   -7.6677    3.6660 O   0  0  0  0  0  0  0  0  0  0  0  0
    6.6588   -7.8321    2.5726 C   0  0  0  0  0  0  0  0  0  0  0  0
    6.1754   -9.1325    3.2791 C   0  0  1  0  0  0  0  0  0  0  0  0
    6.6036  -10.3400    2.4045 C   0  0  0  0  0  0  0  0  0  0  0  0
    5.8312  -11.6456    2.6171 C   0  0  0  0  0  0  0  0  0  0  0  0
    5.5905  -12.0893    4.0699 C   0  0  0  0  0  0  0  0  0  0  0  0
    5.0187  -11.0700    4.9566 N   0  0  0  0  0  0  0  0  0  0  0  0
    6.0585  -10.2971    5.6277 C   0  0  0  0  0  0  0  0  0  0  0  0
    6.8102   -9.3367    4.6854 C   0  0  0  0  0  0  0  0  0  0  0  0
    3.9878  -10.1754    4.4109 C   0  0  1  0  0  0  0  0  0  0  0  0
    4.6222   -9.0529    3.5086 C   0  0  2  0  0  0  0  0  0  0  0  0
    1.6401  -11.0983    5.5764 H   0  0  0  0  0  0  0  0  0  0  0  0
    2.7480  -12.4554    5.3339 H   0  0  0  0  0  0  0  0  0  0  0  0
    1.2994  -12.3091    4.3501 H   0  0  0  0  0  0  0  0  0  0  0  0
    1.0868  -10.6762    2.6763 H   0  0  0  0  0  0  0  0  0  0  0  0
    1.4897   -9.3097    3.6947 H   0  0  0  0  0  0  0  0  0  0  0  0
    3.0861  -10.2545    1.2496 H   0  0  0  0  0  0  0  0  0  0  0  0
    1.9383   -8.9387    1.2450 H   0  0  0  0  0  0  0  0  0  0  0  0
    3.2289   -7.6223    2.7355 H   0  0  0  0  0  0  0  0  0  0  0  0
    4.8597   -8.8518    0.5284 H   0  0  0  0  0  0  0  0  0  0  0  0
    3.9485   -7.3735    0.5046 H   0  0  0  0  0  0  0  0  0  0  0  0
    5.4968   -5.6769    0.1501 H   0  0  0  0  0  0  0  0  0  0  0  0
    7.5982   -4.4926    0.7163 H   0  0  0  0  0  0  0  0  0  0  0  0
    9.1504   -5.4653    2.3775 H   0  0  0  0  0  0  0  0  0  0  0  0
    9.7250   -7.3788    3.4204 H   0  0  0  0  0  0  0  0  0  0  0  0
    6.4897  -10.0925    1.3507 H   0  0  0  0  0  0  0  0  0  0  0  0
    7.6662  -10.5297    2.5347 H   0  0  0  0  0  0  0  0  0  0  0  0
    4.8787  -11.5481    2.1118 H   0  0  0  0  0  0  0  0  0  0  0  0
    6.3584  -12.4480    2.0959 H   0  0  0  0  0  0  0  0  0  0  0  0
    4.9032  -12.9371    4.0539 H   0  0  0  0  0  0  0  0  0  0  0  0
    6.5142  -12.4747    4.5045 H   0  0  0  0  0  0  0  0  0  0  0  0
    5.5958   -9.7202    6.4302 H   0  0  0  0  0  0  0  0  0  0  0  0
    6.7647  -10.9673    6.1224 H   0  0  0  0  0  0  0  0  0  0  0  0
    7.8336   -9.7001    4.5968 H   0  0  0  0  0  0  0  0  0  0  0  0
    6.8839   -8.3831    5.2080 H   0  0  0  0  0  0  0  0  0  0  0  0
    3.5610   -9.6615    5.2727 H   0  0  0  0  0  0  0  0  0  0  0  0
    4.5825   -8.2055    4.1934 H   0  0  0  0  0  0  0  0  0  0  0  0
    3.2372  -11.5955    3.1532 H   0  0  0  0  0  0  0  0  0  0  0  0
  1  2  1  0
  1 23  1  0
  1 24  1  0
  1 25  1  0
  2 21  1  0
  2  3  1  0
  2 49  1  6
  3  4  1  0
  3 26  1  0
  3 27  1  0
  4  5  1  0
  4 28  1  0
  4 29  1  0
  5 22  1  0
  5  6  1  0
  5 30  1  1
  6  7  1  0
  6 31  1  0
  6 32  1  0
  7 13  2  0
  7  8  1  0
  8  9  2  0
  8 33  1  0
  9 10  1  0
  9 34  1  0
 10 11  2  0
 10 35  1  0
 11 12  1  0
 11 13  1  0
 12 36  1  0
 14 13  1  6
 14 20  1  0
 14 22  1  0
 14 15  1  0
 15 16  1  0
 15 37  1  0
 15 38  1  0
 16 17  1  0
 16 39  1  0
 16 40  1  0
 17 18  1  0
 17 41  1  0
 17 42  1  0
 18 19  1  0
 18 21  1  0
 19 20  1  0
 19 43  1  0
 19 44  1  0
 20 45  1  0
 20 46  1  0
 21 22  1  0
 21 47  1  1
 22 48  1  1
M  CHG  1   2   1
M  END
>  <i_m_ct_stereo_status>  (135) 
1

>  <s_m_source_file>  (135) 
/var/tmp/pbs.5076255.sched01/tmpaqd8m8vp/41rn73ajce.sdf

>  <i_m_source_file_index>  (135) 
24

>  <i_lp_mmshare_version>  (135) 
48012

>  <i_f3d_flags>  (135) 
0

>  <s_epik_input>  (135) 
W0NIMl0xW0NIMl1bQ0gyXU4oW0NIMl1bQ0gyXTIpW0NASF0oTihbQ0gzXSlbQ0gyXVtDSDJdMylbQ0BASF00W0NASF0zW0NIMl1jKGM1W0NAQF0xMjQpW2NIXVtjSF1bY0hdYzVbT0hd

>  <s_epik_cmdline>  (135) 
J2VwaWtfcHl0aG9uJywgJy1waHQnLCAnMi4wJywgJy1waCcsICc3LjAnLCAnLXRuJywgJzgnLCAnLW1hJywgJzIwMCcsICctaW1hZScsICc8aW5maWxlLm1hZT4nLCAnLW9tYWUnLCAnPG91dGZpbGUubWFlPic=

>  <r_epik_Ionization_Penalty>  (135) 
0.00415293

>  <r_epik_Ionization_Penalty_Charging>  (135) 
0.00404112

>  <r_epik_Ionization_Penalty_Neutral>  (135) 
0.000111807

>  <r_epik_State_Penalty>  (135) 
2.09151

>  <r_epik_Charging_Adjusted_Penalty>  (135) 
2.09555

>  <i_epik_Tot_Q>  (135) 
1

>  <i_epik_Tot_abs_Q>  (135) 
1

>  <s_epik_Chemistry_Notes>  (135) 
This compound contains an acetal/aminal-like group ( X-CH(R)-Y where X, Y are N, S, or O) that may be acid/base labile, releasing an aldehyde.

>  <s_lp_Force_Field>  (135) 
OPLS3e

>  <r_lp_Energy>  (135) 
61.3544

>  <b_lp_Chiralities_Consistent>  (135) 
1

>  <s_lp_Variant>  (135) 
47:0-2

>  <s_i_glide_gridfile>  (135) 
pfpi4k_grid

>  <i_i_glide_lignum>  (135) 
24

>  <i_i_glide_rotatable_bonds>  (135) 
1

>  <r_i_docking_score>  (135) 
-3.31477

>  <r_i_glide_ligand_efficiency>  (135) 
-0.150671

>  <r_i_glide_ligand_efficiency_sa>  (135) 
-0.422187

>  <r_i_glide_ligand_efficiency_ln>  (135) 
-0.81025

>  <r_i_glide_gscore>  (135) 
-3.31477

>  <r_i_glide_lipo>  (135) 
-0.376822

>  <r_i_glide_hbond>  (135) 
0

>  <r_i_glide_metal>  (135) 
-0

>  <r_i_glide_rewards>  (135) 
-1.36752

>  <r_i_glide_evdw>  (135) 
-16.7104

>  <r_i_glide_ecoul>  (135) 
-4.76957

>  <r_i_glide_erotb>  (135) 
0

>  <r_i_glide_esite>  (135) 
-0.0194712

>  <r_i_glide_emodel>  (135) 
-27.3593

>  <r_i_glide_energy>  (135) 
-21.4799

>  <r_i_glide_einternal>  (135) 
0.800071

>  <r_i_glide_intrahb_reward>  (135) 
-0

>  <i_i_glide_confnum>  (135) 
1

>  <i_i_glide_posenum>  (135) 
16

>  <r_i_glide_eff_state_penalty>  (135) 
0

>  <ligand_id>  (135) 
47

>  <original_smiles>  (135) 
CN1CCC2Cc3cccc(O)c3C34CCCN(CC3)C1C24

>  <smiles>  (135) 
[H]Oc1c([H])c([H])c([H])c2c1C13C([H])([H])C([H])([H])N(C([H])([H])C([H])([H])C1([H])[H])C1([H])C3([H])C([H])(C2([H])[H])C([H])([H])C([H])([H])[N+]1([H])C([H])([H])[H]

$$$$
47:1:2
     RDKit          3D

 49 53  0  0  1  0  0  0  0  0999 V2000
    0.4526  -10.1431    3.5221 C   0  0  0  0  0  0  0  0  0  0  0  0
    0.9975   -9.0729    2.6506 N   0  0  1  0  0  0  0  0  0  0  0  0
   -0.0723   -8.1317    2.2545 C   0  0  0  0  0  0  0  0  0  0  0  0
    0.4439   -7.2016    1.1650 C   0  0  0  0  0  0  0  0  0  0  0  0
    1.5530   -6.2835    1.6911 C   0  0  2  0  0  0  0  0  0  0  0  0
    2.1576   -5.4697    0.5410 C   0  0  0  0  0  0  0  0  0  0  0  0
    3.4293   -4.7632    0.9382 C   0  0  0  0  0  0  0  0  0  0  0  0
    3.5988   -3.4202    0.5492 C   0  0  0  0  0  0  0  0  0  0  0  0
    4.7948   -2.7521    0.8432 C   0  0  0  0  0  0  0  0  0  0  0  0
    5.8281   -3.4422    1.4917 C   0  0  0  0  0  0  0  0  0  0  0  0
    5.6691   -4.7895    1.8804 C   0  0  0  0  0  0  0  0  0  0  0  0
    6.7596   -5.3813    2.4463 O   0  0  0  0  0  0  0  0  0  0  0  0
    4.4356   -5.4669    1.6519 C   0  0  0  0  0  0  0  0  0  0  0  0
    4.1219   -6.9297    2.0883 C   0  0  1  0  0  0  0  0  0  0  0  0
    4.4562   -7.8627    0.8953 C   0  0  0  0  0  0  0  0  0  0  0  0
    3.7654   -9.2372    0.8914 C   0  0  0  0  0  0  0  0  0  0  0  0
    3.7886  -10.0234    2.2131 C   0  0  0  0  0  0  0  0  0  0  0  0
    3.3225   -9.2874    3.3949 N   0  0  0  0  0  0  0  0  0  0  0  0
    4.4212   -8.6158    4.0792 C   0  0  0  0  0  0  0  0  0  0  0  0
    4.9770   -7.4075    3.3009 C   0  0  0  0  0  0  0  0  0  0  0  0
    2.1846   -8.3739    3.2361 C   0  0  1  0  0  0  0  0  0  0  0  0
    2.6218   -7.0255    2.5501 C   0  0  2  0  0  0  0  0  0  0  0  0
    0.0819   -9.7329    4.4615 H   0  0  0  0  0  0  0  0  0  0  0  0
    1.2022  -10.8998    3.7479 H   0  0  0  0  0  0  0  0  0  0  0  0
   -0.3786  -10.6474    3.0310 H   0  0  0  0  0  0  0  0  0  0  0  0
   -0.9252   -8.6859    1.8605 H   0  0  0  0  0  0  0  0  0  0  0  0
   -0.4313   -7.5677    3.1180 H   0  0  0  0  0  0  0  0  0  0  0  0
    0.8094   -7.8009    0.3317 H   0  0  0  0  0  0  0  0  0  0  0  0
   -0.3865   -6.6079    0.7805 H   0  0  0  0  0  0  0  0  0  0  0  0
    1.0713   -5.5643    2.3592 H   0  0  0  0  0  0  0  0  0  0  0  0
    2.3971   -6.1247   -0.2938 H   0  0  0  0  0  0  0  0  0  0  0  0
    1.4370   -4.7637    0.1364 H   0  0  0  0  0  0  0  0  0  0  0  0
    2.8159   -2.8983    0.0156 H   0  0  0  0  0  0  0  0  0  0  0  0
    4.9251   -1.7190    0.5530 H   0  0  0  0  0  0  0  0  0  0  0  0
    6.7619   -2.9365    1.6846 H   0  0  0  0  0  0  0  0  0  0  0  0
    6.6223   -6.2895    2.6684 H   0  0  0  0  0  0  0  0  0  0  0  0
    4.1987   -7.3756   -0.0421 H   0  0  0  0  0  0  0  0  0  0  0  0
    5.5357   -7.9920    0.8272 H   0  0  0  0  0  0  0  0  0  0  0  0
    2.7364   -9.1419    0.5560 H   0  0  0  0  0  0  0  0  0  0  0  0
    4.2441   -9.8549    0.1313 H   0  0  0  0  0  0  0  0  0  0  0  0
    3.1494  -10.8993    2.0924 H   0  0  0  0  0  0  0  0  0  0  0  0
    4.7860  -10.4258    2.3985 H   0  0  0  0  0  0  0  0  0  0  0  0
    4.0677   -8.2802    5.0554 H   0  0  0  0  0  0  0  0  0  0  0  0
    5.2231   -9.3265    4.2897 H   0  0  0  0  0  0  0  0  0  0  0  0
    5.9844   -7.6765    2.9855 H   0  0  0  0  0  0  0  0  0  0  0  0
    5.0892   -6.6006    4.0262 H   0  0  0  0  0  0  0  0  0  0  0  0
    1.8781   -8.1096    4.2494 H   0  0  0  0  0  0  0  0  0  0  0  0
    2.6566   -6.3684    3.4194 H   0  0  0  0  0  0  0  0  0  0  0  0
    1.3008   -9.5208    1.7947 H   0  0  0  0  0  0  0  0  0  0  0  0
  1  2  1  0
  1 23  1  0
  1 24  1  0
  1 25  1  0
  2 21  1  0
  2  3  1  0
  2 49  1  6
  3  4  1  0
  3 26  1  0
  3 27  1  0
  4  5  1  0
  4 28  1  0
  4 29  1  0
  5 22  1  0
  5  6  1  0
  5 30  1  1
  6  7  1  0
  6 31  1  0
  6 32  1  0
  7 13  2  0
  7  8  1  0
  8  9  2  0
  8 33  1  0
  9 10  1  0
  9 34  1  0
 10 11  2  0
 10 35  1  0
 11 12  1  0
 11 13  1  0
 12 36  1  0
 14 13  1  6
 14 20  1  0
 14 22  1  0
 14 15  1  0
 15 16  1  0
 15 37  1  0
 15 38  1  0
 16 17  1  0
 16 39  1  0
 16 40  1  0
 17 18  1  0
 17 41  1  0
 17 42  1  0
 18 19  1  0
 18 21  1  0
 19 20  1  0
 19 43  1  0
 19 44  1  0
 20 45  1  0
 20 46  1  0
 21 22  1  0
 21 47  1  1
 22 48  1  1
M  CHG  1   2   1
M  END
>  <i_m_ct_stereo_status>  (136) 
1

>  <s_m_source_file>  (136) 
/var/tmp/pbs.5076255.sched01/tmpaqd8m8vp/41rn73ajce.sdf

>  <i_m_source_file_index>  (136) 
24

>  <i_lp_mmshare_version>  (136) 
48012

>  <i_f3d_flags>  (136) 
0

>  <s_epik_input>  (136) 
W0NIMl0xW0NIMl1bQ0gyXU4oW0NIMl1bQ0gyXTIpW0NASF0oTihbQ0gzXSlbQ0gyXVtDSDJdMylbQ0BASF00W0NASF0zW0NIMl1jKGM1W0NAQF0xMjQpW2NIXVtjSF1bY0hdYzVbT0hd

>  <s_epik_cmdline>  (136) 
J2VwaWtfcHl0aG9uJywgJy1waHQnLCAnMi4wJywgJy1waCcsICc3LjAnLCAnLXRuJywgJzgnLCAnLW1hJywgJzIwMCcsICctaW1hZScsICc8aW5maWxlLm1hZT4nLCAnLW9tYWUnLCAnPG91dGZpbGUubWFlPic=

>  <r_epik_Ionization_Penalty>  (136) 
0.00415293

>  <r_epik_Ionization_Penalty_Charging>  (136) 
0.00404112

>  <r_epik_Ionization_Penalty_Neutral>  (136) 
0.000111807

>  <r_epik_State_Penalty>  (136) 
2.09151

>  <r_epik_Charging_Adjusted_Penalty>  (136) 
2.09555

>  <i_epik_Tot_Q>  (136) 
1

>  <i_epik_Tot_abs_Q>  (136) 
1

>  <s_epik_Chemistry_Notes>  (136) 
This compound contains an acetal/aminal-like group ( X-CH(R)-Y where X, Y are N, S, or O) that may be acid/base labile, releasing an aldehyde.

>  <s_lp_Force_Field>  (136) 
OPLS3e

>  <r_lp_Energy>  (136) 
61.3544

>  <b_lp_Chiralities_Consistent>  (136) 
1

>  <s_lp_Variant>  (136) 
47:0-2

>  <s_i_glide_gridfile>  (136) 
pfpi4k_grid

>  <i_i_glide_lignum>  (136) 
24

>  <i_i_glide_rotatable_bonds>  (136) 
1

>  <r_i_docking_score>  (136) 
-2.86403

>  <r_i_glide_ligand_efficiency>  (136) 
-0.130183

>  <r_i_glide_ligand_efficiency_sa>  (136) 
-0.364778

>  <r_i_glide_ligand_efficiency_ln>  (136) 
-0.700073

>  <r_i_glide_gscore>  (136) 
-2.86403

>  <r_i_glide_lipo>  (136) 
-0.218951

>  <r_i_glide_hbond>  (136) 
0

>  <r_i_glide_metal>  (136) 
-0

>  <r_i_glide_rewards>  (136) 
-1.36752

>  <r_i_glide_evdw>  (136) 
-17.9736

>  <r_i_glide_ecoul>  (136) 
-2.48135

>  <r_i_glide_erotb>  (136) 
0

>  <r_i_glide_esite>  (136) 
-0.00667638

>  <r_i_glide_emodel>  (136) 
-26.1709

>  <r_i_glide_energy>  (136) 
-20.4549

>  <r_i_glide_einternal>  (136) 
0.0039133

>  <r_i_glide_intrahb_reward>  (136) 
-0

>  <i_i_glide_confnum>  (136) 
1

>  <i_i_glide_posenum>  (136) 
8

>  <r_i_glide_eff_state_penalty>  (136) 
0

>  <ligand_id>  (136) 
47

>  <original_smiles>  (136) 
CN1CCC2Cc3cccc(O)c3C34CCCN(CC3)C1C24

>  <smiles>  (136) 
[H]Oc1c([H])c([H])c([H])c2c1C13C([H])([H])C([H])([H])N(C([H])([H])C([H])([H])C1([H])[H])C1([H])C3([H])C([H])(C2([H])[H])C([H])([H])C([H])([H])[N+]1([H])C([H])([H])[H]

$$$$
48:0:0
     RDKit          3D

 97102  0  0  1  0  0  0  0  0999 V2000
    5.2250  -10.5355    2.7073 C   0  0  0  0  0  0  0  0  0  0  0  0
    5.5894   -9.0837    2.3777 C   0  0  0  0  0  0  0  0  0  0  0  0
    7.0031   -9.1366    1.7666 C   0  0  0  0  0  0  0  0  0  0  0  0
    5.4670   -7.9941    3.5182 C   0  0  2  0  0  0  0  0  0  0  0  0
    6.1789   -8.3006    4.8635 C   0  0  0  0  0  0  0  0  0  0  0  0
    5.2233   -8.7121    5.9582 C   0  0  0  0  0  0  0  0  0  0  0  0
    3.9364   -8.3191    6.2197 C   0  0  0  0  0  0  0  0  0  0  0  0
    3.0731   -9.5692    6.2864 C   0  0  1  0  0  0  0  0  0  0  0  0
    2.0065   -9.6057    7.2088 O   0  0  0  0  0  0  0  0  0  0  0  0
    2.8857  -10.1340    4.8620 C   0  0  0  0  0  0  0  0  0  0  0  0
    2.2103   -9.3075    3.7037 C   0  0  2  0  0  0  0  0  0  0  0  0
    2.7460   -7.8994    3.2165 C   0  0  0  0  0  0  0  0  0  0  0  0
    1.9516   -7.1652    2.4020 C   0  0  0  0  0  0  0  0  0  0  0  0
    1.8743   -5.6469    2.3216 C   0  0  1  0  0  0  0  0  0  0  0  0
    1.8545   -5.0990    3.6223 O   0  0  0  0  0  0  0  0  0  0  0  0
    3.1495   -4.7954    4.0947 C   0  0  2  0  0  0  0  0  0  0  0  0
    2.7798   -3.6535    5.0915 C   0  0  0  0  0  0  0  0  0  0  0  0
    3.8134   -4.2501    2.7571 C   0  0  2  0  0  0  0  0  0  0  0  0
    4.0517   -2.7168    2.5547 C   0  0  1  0  0  0  0  0  0  0  0  0
    5.2580   -2.1469    3.3330 C   0  0  0  0  0  0  0  0  0  0  0  0
    4.3230   -2.4487    1.0696 C   0  0  0  0  0  0  0  0  0  0  0  0
    3.1887   -2.9535    0.1472 C   0  0  1  0  0  0  0  0  0  0  0  0
    3.6146   -3.5413   -1.2252 C   0  0  2  0  0  0  0  0  0  0  0  0
    4.7329   -4.4079   -1.0574 O   0  0  0  0  0  0  0  0  0  0  0  0
    3.9423   -2.5054   -2.3464 C   0  0  0  0  0  0  0  0  0  0  0  0
    4.9564   -1.4271   -1.9172 C   0  0  0  0  0  0  0  0  0  0  0  0
    4.4267   -3.1940   -3.6335 C   0  0  0  0  0  0  0  0  0  0  0  0
    2.7459   -1.8427   -2.7182 O   0  0  0  0  0  0  0  0  0  0  0  0
    2.3199   -3.8546    0.8296 O   0  0  0  0  0  0  0  0  0  0  0  0
    2.9652   -4.8534    1.6114 C   0  0  2  0  0  0  0  0  0  0  0  0
    3.9116   -6.0925    4.7291 C   0  0  2  0  0  0  0  0  0  0  0  0
    5.3009   -5.4428    5.1020 C   0  0  0  0  0  0  0  0  0  0  0  0
    4.0888   -7.2255    3.6286 C   0  0  1  0  0  0  0  0  0  0  0  0
    3.2910   -6.8841    6.0078 C   0  0  2  0  0  0  0  0  0  0  0  0
    3.7141   -6.1639    7.3304 C   0  0  0  0  0  0  0  0  0  0  0  0
    1.6893   -6.8449    6.1975 C   0  0  0  0  0  0  0  0  0  0  0  0
    0.5001   -7.2105    5.2447 C   0  0  0  0  0  0  0  0  0  0  0  0
    0.0237   -8.6503    5.0047 C   0  0  1  0  0  0  0  0  0  0  0  0
   -1.3632   -8.5694    4.7586 O   0  0  0  0  0  0  0  0  0  0  0  0
    0.6734   -9.4813    3.8695 C   0  0  1  0  0  0  0  0  0  0  0  0
   -0.1410   -9.6468    2.5522 C   0  0  0  0  0  0  0  0  0  0  0  0
    5.6814  -10.8427    3.6381 H   0  0  0  0  0  0  0  0  0  0  0  0
    5.5667  -11.2277    1.9488 H   0  0  0  0  0  0  0  0  0  0  0  0
    4.1650  -10.6582    2.7425 H   0  0  0  0  0  0  0  0  0  0  0  0
    4.9481   -8.7477    1.5627 H   0  0  0  0  0  0  0  0  0  0  0  0
    7.7394   -9.4158    2.5314 H   0  0  0  0  0  0  0  0  0  0  0  0
    7.3227   -8.2016    1.2917 H   0  0  0  0  0  0  0  0  0  0  0  0
    7.0349   -9.9129    0.9974 H   0  0  0  0  0  0  0  0  0  0  0  0
    6.1387   -7.2162    3.1339 H   0  0  0  0  0  0  0  0  0  0  0  0
    6.8550   -9.1396    4.7036 H   0  0  0  0  0  0  0  0  0  0  0  0
    6.8845   -7.5357    5.1891 H   0  0  0  0  0  0  0  0  0  0  0  0
    5.4997   -9.7232    6.2079 H   0  0  0  0  0  0  0  0  0  0  0  0
    3.6539  -10.3457    6.7835 H   0  0  0  0  0  0  0  0  0  0  0  0
    1.7482  -10.5102    7.3083 H   0  0  0  0  0  0  0  0  0  0  0  0
    3.8831  -10.3773    4.5897 H   0  0  0  0  0  0  0  0  0  0  0  0
    2.4431  -11.1267    4.9304 H   0  0  0  0  0  0  0  0  0  0  0  0
    2.3986   -9.8908    2.8086 H   0  0  0  0  0  0  0  0  0  0  0  0
    1.0593   -7.5976    2.0036 H   0  0  0  0  0  0  0  0  0  0  0  0
    0.9072   -5.4534    1.8609 H   0  0  0  0  0  0  0  0  0  0  0  0
    3.6199   -3.1547    5.5598 H   0  0  0  0  0  0  0  0  0  0  0  0
    2.1407   -3.9751    5.9017 H   0  0  0  0  0  0  0  0  0  0  0  0
    2.1953   -2.8745    4.5978 H   0  0  0  0  0  0  0  0  0  0  0  0
    4.8079   -4.6667    2.6272 H   0  0  0  0  0  0  0  0  0  0  0  0
    3.1593   -2.1509    2.8161 H   0  0  0  0  0  0  0  0  0  0  0  0
    6.1834   -2.6484    3.0402 H   0  0  0  0  0  0  0  0  0  0  0  0
    5.1561   -2.2273    4.4108 H   0  0  0  0  0  0  0  0  0  0  0  0
    5.3969   -1.0887    3.1081 H   0  0  0  0  0  0  0  0  0  0  0  0
    4.4617   -1.3770    0.9298 H   0  0  0  0  0  0  0  0  0  0  0  0
    5.2731   -2.9113    0.8039 H   0  0  0  0  0  0  0  0  0  0  0  0
    2.5470   -2.0951   -0.0477 H   0  0  0  0  0  0  0  0  0  0  0  0
    2.7857   -4.1642   -1.5712 H   0  0  0  0  0  0  0  0  0  0  0  0
    4.6340   -5.1177   -1.6614 H   0  0  0  0  0  0  0  0  0  0  0  0
    5.8908   -1.8790   -1.5774 H   0  0  0  0  0  0  0  0  0  0  0  0
    4.5664   -0.7940   -1.1222 H   0  0  0  0  0  0  0  0  0  0  0  0
    5.1852   -0.7516   -2.7370 H   0  0  0  0  0  0  0  0  0  0  0  0
    5.3886   -3.6894   -3.4955 H   0  0  0  0  0  0  0  0  0  0  0  0
    4.5545   -2.4596   -4.4257 H   0  0  0  0  0  0  0  0  0  0  0  0
    3.7129   -3.9390   -3.9848 H   0  0  0  0  0  0  0  0  0  0  0  0
    2.2998   -1.5160   -1.9554 H   0  0  0  0  0  0  0  0  0  0  0  0
    3.5363   -5.4992    0.9447 H   0  0  0  0  0  0  0  0  0  0  0  0
    5.8507   -5.9573    5.8735 H   0  0  0  0  0  0  0  0  0  0  0  0
    5.2215   -4.4445    5.5153 H   0  0  0  0  0  0  0  0  0  0  0  0
    5.9771   -5.3461    4.2583 H   0  0  0  0  0  0  0  0  0  0  0  0
    4.2685   -6.6924    2.7104 H   0  0  0  0  0  0  0  0  0  0  0  0
    3.5240   -5.0935    7.3098 H   0  0  0  0  0  0  0  0  0  0  0  0
    4.7627   -6.3005    7.5938 H   0  0  0  0  0  0  0  0  0  0  0  0
    3.1856   -6.5594    8.1988 H   0  0  0  0  0  0  0  0  0  0  0  0
    1.4362   -7.2959    7.1557 H   0  0  0  0  0  0  0  0  0  0  0  0
    1.4581   -5.8127    6.4177 H   0  0  0  0  0  0  0  0  0  0  0  0
   -0.3341   -6.7555    5.7813 H   0  0  0  0  0  0  0  0  0  0  0  0
    0.4416   -6.6734    4.3154 H   0  0  0  0  0  0  0  0  0  0  0  0
    0.0462   -9.2153    5.9188 H   0  0  0  0  0  0  0  0  0  0  0  0
   -1.7369   -9.4595    4.8728 H   0  0  0  0  0  0  0  0  0  0  0  0
    0.5618  -10.5058    4.2260 H   0  0  0  0  0  0  0  0  0  0  0  0
   -0.6366   -8.7369    2.2284 H   0  0  0  0  0  0  0  0  0  0  0  0
   -0.9319  -10.3826    2.6828 H   0  0  0  0  0  0  0  0  0  0  0  0
    0.4826  -10.0232    1.7363 H   0  0  0  0  0  0  0  0  0  0  0  0
  1  2  1  0
  1 42  1  0
  1 43  1  0
  1 44  1  0
  2  3  1  0
  2  4  1  0
  2 45  1  0
  3 46  1  0
  3 47  1  0
  3 48  1  0
  4 33  1  0
  4  5  1  0
  4 49  1  6
  5  6  1  0
  5 50  1  0
  5 51  1  0
  6  7  2  0
  6 52  1  0
  7 34  1  0
  7  8  1  0
  8  9  1  0
  8 10  1  0
  8 53  1  1
  9 54  1  0
 10 11  1  0
 10 55  1  0
 10 56  1  0
 11 40  1  0
 11 12  1  0
 11 57  1  6
 12 33  1  0
 12 13  2  0
 13 14  1  0
 13 58  1  0
 14 30  1  0
 14 15  1  0
 14 59  1  6
 15 16  1  0
 16 17  1  1
 16 18  1  0
 16 31  1  0
 17 60  1  0
 17 61  1  0
 17 62  1  0
 18 30  1  0
 18 19  1  0
 18 63  1  6
 19 20  1  0
 19 21  1  0
 19 64  1  1
 20 65  1  0
 20 66  1  0
 20 67  1  0
 21 22  1  0
 21 68  1  0
 21 69  1  0
 22 23  1  0
 22 29  1  0
 22 70  1  6
 23 24  1  0
 23 25  1  0
 23 71  1  6
 24 72  1  0
 25 26  1  0
 25 27  1  0
 25 28  1  0
 26 73  1  0
 26 74  1  0
 26 75  1  0
 27 76  1  0
 27 77  1  0
 27 78  1  0
 28 79  1  0
 29 30  1  0
 30 80  1  6
 31 32  1  1
 31 33  1  0
 31 34  1  0
 32 81  1  0
 32 82  1  0
 32 83  1  0
 33 84  1  6
 34 35  1  1
 34 36  1  0
 35 85  1  0
 35 86  1  0
 35 87  1  0
 36 37  1  0
 36 88  1  0
 36 89  1  0
 37 38  1  0
 37 90  1  0
 37 91  1  0
 38 39  1  0
 38 40  1  0
 38 92  1  1
 39 93  1  0
 40 41  1  0
 40 94  1  1
 41 95  1  0
 41 96  1  0
 41 97  1  0
M  END
>  <i_m_ct_stereo_status>  (137) 
1

>  <s_m_source_file>  (137) 
/var/tmp/pbs.5076255.sched01/tmpaqd8m8vp/41rn73ajce.sdf

>  <i_m_source_file_index>  (137) 
25

>  <i_lp_mmshare_version>  (137) 
48012

>  <i_f3d_flags>  (137) 
0

>  <s_epik_input>  (137) 
W0NIM11bQ0hdKFtDSDNdKVtDQEhdKFtDSDJdW0NIXT0xKVtDSF0yW0NAXTMoW0NIM10pW0NAQF0oW0NIM10pKFtDSDJdW0NIMl1bQ0BASF0oW09IXSlbQ0BIXTRbQ0gzXSlDMVtDQEBIXShbT0hdKVtDSDJdW0NAQEhdNEMyPVtDSF1bQ0BASF0oTzUpW0NASF0oW0NAQEhdNltDQF0zNVtDSDNdKU9bQ0BASF0oW0NIMl1bQ0BASF02W0NIM10pW0NASF0oW09IXSlDKFtDSDNdKShbQ0gzXSlbT0hd

>  <s_epik_cmdline>  (137) 
J2VwaWtfcHl0aG9uJywgJy1waHQnLCAnMi4wJywgJy1waCcsICc3LjAnLCAnLXRuJywgJzgnLCAnLW1hJywgJzIwMCcsICctaW1hZScsICc8aW5maWxlLm1hZT4nLCAnLW9tYWUnLCAnPG91dGZpbGUubWFlPic=

>  <r_lp_tautomer_probability>  (137) 
1

>  <r_epik_Ionization_Penalty>  (137) 
1.43605e-06

>  <r_epik_Ionization_Penalty_Charging>  (137) 
0

>  <r_epik_Ionization_Penalty_Neutral>  (137) 
1.43605e-06

>  <r_epik_State_Penalty>  (137) 
-0

>  <r_epik_Charging_Adjusted_Penalty>  (137) 
0

>  <i_epik_Tot_Q>  (137) 
0

>  <i_epik_Tot_abs_Q>  (137) 
0

>  <s_lp_Force_Field>  (137) 
OPLS3e

>  <r_lp_Energy>  (137) 
207.396

>  <b_lp_Chiralities_Consistent>  (137) 
1

>  <s_lp_Variant>  (137) 
48:0-1

>  <s_i_glide_gridfile>  (137) 
pfpi4k_grid

>  <i_i_glide_lignum>  (137) 
25

>  <i_i_glide_rotatable_bonds>  (137) 
7

>  <r_i_docking_score>  (137) 
-3.73447

>  <r_i_glide_ligand_efficiency>  (137) 
-0.0910846

>  <r_i_glide_ligand_efficiency_sa>  (137) 
-0.314079

>  <r_i_glide_ligand_efficiency_ln>  (137) 
-0.79228

>  <r_i_glide_gscore>  (137) 
-3.73447

>  <r_i_glide_lipo>  (137) 
-0.368489

>  <r_i_glide_hbond>  (137) 
-0.48

>  <r_i_glide_metal>  (137) 
-0

>  <r_i_glide_rewards>  (137) 
0

>  <r_i_glide_evdw>  (137) 
-23.1065

>  <r_i_glide_ecoul>  (137) 
-11.7681

>  <r_i_glide_erotb>  (137) 
0.0345626

>  <r_i_glide_esite>  (137) 
0

>  <r_i_glide_emodel>  (137) 
-40.5738

>  <r_i_glide_energy>  (137) 
-34.8746

>  <r_i_glide_einternal>  (137) 
5.27588

>  <r_i_glide_intrahb_reward>  (137) 
-0

>  <i_i_glide_confnum>  (137) 
4

>  <i_i_glide_posenum>  (137) 
1

>  <r_i_glide_eff_state_penalty>  (137) 
0

>  <ligand_id>  (137) 
48

>  <original_smiles>  (137) 
CC(C)C1CC=C2C(O)CC3C4=CC5OC(C)(C6C(C)CC(C(O)C(C)(C)O)OC56)C(C)(C41)C2(C)CCC(O)C3C

>  <smiles>  (137) 
[H]OC1([H])C2=C([H])C([H])([H])C([H])(C([H])(C([H])([H])[H])C([H])([H])[H])C3([H])C4=C([H])C5([H])OC(C([H])([H])[H])(C6([H])C5([H])OC([H])(C([H])(O[H])C(O[H])(C([H])([H])[H])C([H])([H])[H])C([H])([H])C6([H])C([H])([H])[H])C3(C([H])([H])[H])C2(C([H])([H])[H])C([H])([H])C([H])([H])C([H])(O[H])C([H])(C([H])([H])[H])C4([H])C1([H])[H]

$$$$
48:0:1
     RDKit          3D

 97102  0  0  1  0  0  0  0  0999 V2000
    7.0585   -9.3917    3.1978 C   0  0  0  0  0  0  0  0  0  0  0  0
    5.6361   -8.7938    3.1183 C   0  0  0  0  0  0  0  0  0  0  0  0
    5.4375   -8.2693    1.6774 C   0  0  0  0  0  0  0  0  0  0  0  0
    5.3391   -7.6947    4.2033 C   0  0  2  0  0  0  0  0  0  0  0  0
    5.8320   -7.9806    5.6522 C   0  0  0  0  0  0  0  0  0  0  0  0
    4.7382   -8.4304    6.5888 C   0  0  0  0  0  0  0  0  0  0  0  0
    3.4308   -8.0993    6.6349 C   0  0  0  0  0  0  0  0  0  0  0  0
    2.6313   -9.3881    6.5638 C   0  0  1  0  0  0  0  0  0  0  0  0
    1.4278   -9.4699    7.2834 O   0  0  0  0  0  0  0  0  0  0  0  0
    2.7362   -9.9656    5.1240 C   0  0  0  0  0  0  0  0  0  0  0  0
    2.1918   -9.1900    3.8847 C   0  0  2  0  0  0  0  0  0  0  0  0
    2.6869   -7.7453    3.4907 C   0  0  0  0  0  0  0  0  0  0  0  0
    1.9932   -7.0510    2.5676 C   0  0  0  0  0  0  0  0  0  0  0  0
    1.8749   -5.5376    2.4462 C   0  0  1  0  0  0  0  0  0  0  0  0
    1.6303   -4.9802    3.7182 O   0  0  0  0  0  0  0  0  0  0  0  0
    2.8199   -4.6183    4.3804 C   0  0  2  0  0  0  0  0  0  0  0  0
    2.2588   -3.4868    5.2918 C   0  0  0  0  0  0  0  0  0  0  0  0
    3.6608   -4.0484    3.1504 C   0  0  2  0  0  0  0  0  0  0  0  0
    3.8429   -2.4996    2.9573 C   0  0  1  0  0  0  0  0  0  0  0  0
    4.8918   -1.8903    3.9153 C   0  0  0  0  0  0  0  0  0  0  0  0
    4.3421   -2.2255    1.5285 C   0  0  0  0  0  0  0  0  0  0  0  0
    3.3865   -2.8053    0.4478 C   0  0  1  0  0  0  0  0  0  0  0  0
    4.0252   -3.3983   -0.8507 C   0  0  2  0  0  0  0  0  0  0  0  0
    5.3380   -3.8566   -0.5833 O   0  0  0  0  0  0  0  0  0  0  0  0
    4.0630   -2.4530   -2.0894 C   0  0  0  0  0  0  0  0  0  0  0  0
    4.7570   -1.1069   -1.8060 C   0  0  0  0  0  0  0  0  0  0  0  0
    4.7142   -3.1505   -3.2984 C   0  0  0  0  0  0  0  0  0  0  0  0
    2.7294   -2.1861   -2.4891 O   0  0  0  0  0  0  0  0  0  0  0  0
    2.4759   -3.7447    1.0127 O   0  0  0  0  0  0  0  0  0  0  0  0
    3.0318   -4.7079    1.8950 C   0  0  2  0  0  0  0  0  0  0  0  0
    3.5298   -5.8784    5.1468 C   0  0  2  0  0  0  0  0  0  0  0  0
    4.8155   -5.1682    5.7148 C   0  0  0  0  0  0  0  0  0  0  0  0
    3.9215   -7.0034    4.1060 C   0  0  1  0  0  0  0  0  0  0  0  0
    2.7486   -6.6890    6.3198 C   0  0  2  0  0  0  0  0  0  0  0  0
    2.9398   -5.9417    7.6823 C   0  0  0  0  0  0  0  0  0  0  0  0
    1.1430   -6.7137    6.2686 C   0  0  0  0  0  0  0  0  0  0  0  0
    0.1277   -7.1388    5.1444 C   0  0  0  0  0  0  0  0  0  0  0  0
   -0.2292   -8.6156    4.8539 C   0  0  1  0  0  0  0  0  0  0  0  0
   -1.5636   -8.6271    4.3973 O   0  0  0  0  0  0  0  0  0  0  0  0
    0.6375   -9.4311    3.8469 C   0  0  1  0  0  0  0  0  0  0  0  0
    0.0193   -9.6314    2.4427 C   0  0  0  0  0  0  0  0  0  0  0  0
    7.8276   -8.6181    3.2324 H   0  0  0  0  0  0  0  0  0  0  0  0
    7.2650  -10.0158    2.3287 H   0  0  0  0  0  0  0  0  0  0  0  0
    7.1884  -10.0461    4.0592 H   0  0  0  0  0  0  0  0  0  0  0  0
    4.9504   -9.6268    3.2406 H   0  0  0  0  0  0  0  0  0  0  0  0
    6.0732   -7.4072    1.4724 H   0  0  0  0  0  0  0  0  0  0  0  0
    4.4094   -7.9783    1.4762 H   0  0  0  0  0  0  0  0  0  0  0  0
    5.6767   -9.0388    0.9430 H   0  0  0  0  0  0  0  0  0  0  0  0
    6.0503   -6.9219    3.9058 H   0  0  0  0  0  0  0  0  0  0  0  0
    6.5507   -8.7932    5.6465 H   0  0  0  0  0  0  0  0  0  0  0  0
    6.4440   -7.1906    6.0743 H   0  0  0  0  0  0  0  0  0  0  0  0
    5.0187   -9.4373    6.8796 H   0  0  0  0  0  0  0  0  0  0  0  0
    3.1584  -10.1374    7.1622 H   0  0  0  0  0  0  0  0  0  0  0  0
    1.2463  -10.3926    7.4080 H   0  0  0  0  0  0  0  0  0  0  0  0
    3.7854  -10.1763    4.9355 H   0  0  0  0  0  0  0  0  0  0  0  0
    2.3215  -10.9735    5.1455 H   0  0  0  0  0  0  0  0  0  0  0  0
    2.5787   -9.7787    3.0553 H   0  0  0  0  0  0  0  0  0  0  0  0
    1.1918   -7.5290    2.0365 H   0  0  0  0  0  0  0  0  0  0  0  0
    0.9864   -5.3861    1.8399 H   0  0  0  0  0  0  0  0  0  0  0  0
    2.9966   -2.9506    5.8771 H   0  0  0  0  0  0  0  0  0  0  0  0
    1.5160   -3.8303    5.9987 H   0  0  0  0  0  0  0  0  0  0  0  0
    1.7270   -2.7386    4.7045 H   0  0  0  0  0  0  0  0  0  0  0  0
    4.6766   -4.4246    3.1799 H   0  0  0  0  0  0  0  0  0  0  0  0
    2.8948   -1.9784    3.0827 H   0  0  0  0  0  0  0  0  0  0  0  0
    5.8491   -2.3862    3.7804 H   0  0  0  0  0  0  0  0  0  0  0  0
    4.6362   -1.9658    4.9690 H   0  0  0  0  0  0  0  0  0  0  0  0
    5.0450   -0.8307    3.6937 H   0  0  0  0  0  0  0  0  0  0  0  0
    4.4620   -1.1524    1.3559 H   0  0  0  0  0  0  0  0  0  0  0  0
    5.3438   -2.6475    1.4866 H   0  0  0  0  0  0  0  0  0  0  0  0
    2.7185   -2.0004    0.1534 H   0  0  0  0  0  0  0  0  0  0  0  0
    3.4626   -4.2922   -1.1293 H   0  0  0  0  0  0  0  0  0  0  0  0
    5.7821   -3.1785   -0.0962 H   0  0  0  0  0  0  0  0  0  0  0  0
    5.7865   -1.2468   -1.4702 H   0  0  0  0  0  0  0  0  0  0  0  0
    4.2346   -0.5283   -1.0439 H   0  0  0  0  0  0  0  0  0  0  0  0
    4.7871   -0.4949   -2.7070 H   0  0  0  0  0  0  0  0  0  0  0  0
    5.7751   -3.3503   -3.1337 H   0  0  0  0  0  0  0  0  0  0  0  0
    4.6251   -2.5304   -4.1885 H   0  0  0  0  0  0  0  0  0  0  0  0
    4.2340   -4.1058   -3.5140 H   0  0  0  0  0  0  0  0  0  0  0  0
    2.2638   -1.7435   -1.7973 H   0  0  0  0  0  0  0  0  0  0  0  0
    3.7342   -5.3230    1.3254 H   0  0  0  0  0  0  0  0  0  0  0  0
    5.2624   -5.6548    6.5681 H   0  0  0  0  0  0  0  0  0  0  0  0
    4.6352   -4.1720    6.0989 H   0  0  0  0  0  0  0  0  0  0  0  0
    5.6098   -5.0519    4.9809 H   0  0  0  0  0  0  0  0  0  0  0  0
    4.2061   -6.4590    3.2234 H   0  0  0  0  0  0  0  0  0  0  0  0
    2.7104   -4.8790    7.6162 H   0  0  0  0  0  0  0  0  0  0  0  0
    3.9396   -6.0293    8.1033 H   0  0  0  0  0  0  0  0  0  0  0  0
    2.3003   -6.3496    8.4660 H   0  0  0  0  0  0  0  0  0  0  0  0
    0.7666   -7.1744    7.1795 H   0  0  0  0  0  0  0  0  0  0  0  0
    0.8383   -5.6886    6.4352 H   0  0  0  0  0  0  0  0  0  0  0  0
   -0.7992   -6.7186    5.5389 H   0  0  0  0  0  0  0  0  0  0  0  0
    0.1874   -6.6063    4.2164 H   0  0  0  0  0  0  0  0  0  0  0  0
   -0.3319   -9.1542    5.7860 H   0  0  0  0  0  0  0  0  0  0  0  0
   -1.8496   -9.5744    4.4825 H   0  0  0  0  0  0  0  0  0  0  0  0
    0.5045  -10.4483    4.2165 H   0  0  0  0  0  0  0  0  0  0  0  0
   -0.4669   -8.7404    2.0421 H   0  0  0  0  0  0  0  0  0  0  0  0
   -0.7568  -10.3975    2.4583 H   0  0  0  0  0  0  0  0  0  0  0  0
    0.7667   -9.9724    1.7268 H   0  0  0  0  0  0  0  0  0  0  0  0
  1  2  1  0
  1 42  1  0
  1 43  1  0
  1 44  1  0
  2  3  1  0
  2  4  1  0
  2 45  1  0
  3 46  1  0
  3 47  1  0
  3 48  1  0
  4 33  1  0
  4  5  1  0
  4 49  1  6
  5  6  1  0
  5 50  1  0
  5 51  1  0
  6  7  2  0
  6 52  1  0
  7 34  1  0
  7  8  1  0
  8  9  1  0
  8 10  1  0
  8 53  1  1
  9 54  1  0
 10 11  1  0
 10 55  1  0
 10 56  1  0
 11 40  1  0
 11 12  1  0
 11 57  1  6
 12 33  1  0
 12 13  2  0
 13 14  1  0
 13 58  1  0
 14 30  1  0
 14 15  1  0
 14 59  1  6
 15 16  1  0
 16 17  1  1
 16 18  1  0
 16 31  1  0
 17 60  1  0
 17 61  1  0
 17 62  1  0
 18 30  1  0
 18 19  1  0
 18 63  1  1
 19 20  1  0
 19 21  1  0
 19 64  1  6
 20 65  1  0
 20 66  1  0
 20 67  1  0
 21 22  1  0
 21 68  1  0
 21 69  1  0
 22 23  1  0
 22 29  1  0
 22 70  1  6
 23 24  1  0
 23 25  1  0
 23 71  1  6
 24 72  1  0
 25 26  1  0
 25 27  1  0
 25 28  1  0
 26 73  1  0
 26 74  1  0
 26 75  1  0
 27 76  1  0
 27 77  1  0
 27 78  1  0
 28 79  1  0
 29 30  1  0
 30 80  1  6
 31 32  1  1
 31 33  1  0
 31 34  1  0
 32 81  1  0
 32 82  1  0
 32 83  1  0
 33 84  1  6
 34 35  1  1
 34 36  1  0
 35 85  1  0
 35 86  1  0
 35 87  1  0
 36 37  1  0
 36 88  1  0
 36 89  1  0
 37 38  1  0
 37 90  1  0
 37 91  1  0
 38 39  1  0
 38 40  1  0
 38 92  1  1
 39 93  1  0
 40 41  1  0
 40 94  1  1
 41 95  1  0
 41 96  1  0
 41 97  1  0
M  END
>  <i_m_ct_stereo_status>  (138) 
1

>  <s_m_source_file>  (138) 
/var/tmp/pbs.5076255.sched01/tmpaqd8m8vp/41rn73ajce.sdf

>  <i_m_source_file_index>  (138) 
25

>  <i_lp_mmshare_version>  (138) 
48012

>  <i_f3d_flags>  (138) 
0

>  <s_epik_input>  (138) 
W0NIM11bQ0hdKFtDSDNdKVtDQEhdKFtDSDJdW0NIXT0xKVtDSF0yW0NAXTMoW0NIM10pW0NAQF0oW0NIM10pKFtDSDJdW0NIMl1bQ0BASF0oW09IXSlbQ0BIXTRbQ0gzXSlDMVtDQEBIXShbT0hdKVtDSDJdW0NAQEhdNEMyPVtDSF1bQ0BASF0oTzUpW0NASF0oW0NAQEhdNltDQF0zNVtDSDNdKU9bQ0BASF0oW0NIMl1bQ0BASF02W0NIM10pW0NASF0oW09IXSlDKFtDSDNdKShbQ0gzXSlbT0hd

>  <s_epik_cmdline>  (138) 
J2VwaWtfcHl0aG9uJywgJy1waHQnLCAnMi4wJywgJy1waCcsICc3LjAnLCAnLXRuJywgJzgnLCAnLW1hJywgJzIwMCcsICctaW1hZScsICc8aW5maWxlLm1hZT4nLCAnLW9tYWUnLCAnPG91dGZpbGUubWFlPic=

>  <r_lp_tautomer_probability>  (138) 
1

>  <r_epik_Ionization_Penalty>  (138) 
1.43605e-06

>  <r_epik_Ionization_Penalty_Charging>  (138) 
0

>  <r_epik_Ionization_Penalty_Neutral>  (138) 
1.43605e-06

>  <r_epik_State_Penalty>  (138) 
-0

>  <r_epik_Charging_Adjusted_Penalty>  (138) 
0

>  <i_epik_Tot_Q>  (138) 
0

>  <i_epik_Tot_abs_Q>  (138) 
0

>  <s_lp_Force_Field>  (138) 
OPLS3e

>  <r_lp_Energy>  (138) 
207.396

>  <b_lp_Chiralities_Consistent>  (138) 
1

>  <s_lp_Variant>  (138) 
48:0-1

>  <s_i_glide_gridfile>  (138) 
pfpi4k_grid

>  <i_i_glide_lignum>  (138) 
25

>  <i_i_glide_rotatable_bonds>  (138) 
7

>  <r_i_docking_score>  (138) 
-3.54138

>  <r_i_glide_ligand_efficiency>  (138) 
-0.0863751

>  <r_i_glide_ligand_efficiency_sa>  (138) 
-0.29784

>  <r_i_glide_ligand_efficiency_ln>  (138) 
-0.751316

>  <r_i_glide_gscore>  (138) 
-3.54138

>  <r_i_glide_lipo>  (138) 
-0.379568

>  <r_i_glide_hbond>  (138) 
-0.432

>  <r_i_glide_metal>  (138) 
-0

>  <r_i_glide_rewards>  (138) 
0

>  <r_i_glide_evdw>  (138) 
-25.5313

>  <r_i_glide_ecoul>  (138) 
-9.91874

>  <r_i_glide_erotb>  (138) 
0.0345626

>  <r_i_glide_esite>  (138) 
0

>  <r_i_glide_emodel>  (138) 
-41.8434

>  <r_i_glide_energy>  (138) 
-35.45

>  <r_i_glide_einternal>  (138) 
6.80762

>  <r_i_glide_intrahb_reward>  (138) 
-0

>  <i_i_glide_confnum>  (138) 
1

>  <i_i_glide_posenum>  (138) 
13

>  <r_i_glide_eff_state_penalty>  (138) 
0

>  <ligand_id>  (138) 
48

>  <original_smiles>  (138) 
CC(C)C1CC=C2C(O)CC3C4=CC5OC(C)(C6C(C)CC(C(O)C(C)(C)O)OC56)C(C)(C41)C2(C)CCC(O)C3C

>  <smiles>  (138) 
[H]OC1([H])C2=C([H])C([H])([H])C([H])(C([H])(C([H])([H])[H])C([H])([H])[H])C3([H])C4=C([H])C5([H])OC(C([H])([H])[H])(C6([H])C5([H])OC([H])(C([H])(O[H])C(O[H])(C([H])([H])[H])C([H])([H])[H])C([H])([H])C6([H])C([H])([H])[H])C3(C([H])([H])[H])C2(C([H])([H])[H])C([H])([H])C([H])([H])C([H])(O[H])C([H])(C([H])([H])[H])C4([H])C1([H])[H]

$$$$
48:0:2
     RDKit          3D

 97102  0  0  1  0  0  0  0  0999 V2000
    6.1839   -9.7718    2.6676 C   0  0  0  0  0  0  0  0  0  0  0  0
    4.9461   -8.8510    2.7579 C   0  0  0  0  0  0  0  0  0  0  0  0
    5.0240   -7.8619    1.5724 C   0  0  0  0  0  0  0  0  0  0  0  0
    4.7898   -8.1164    4.1408 C   0  0  2  0  0  0  0  0  0  0  0  0
    5.0382   -8.9632    5.4202 C   0  0  0  0  0  0  0  0  0  0  0  0
    3.7832   -9.4075    6.1219 C   0  0  0  0  0  0  0  0  0  0  0  0
    2.5769   -8.7830    6.2376 C   0  0  0  0  0  0  0  0  0  0  0  0
    1.5189   -9.7452    5.7209 C   0  0  1  0  0  0  0  0  0  0  0  0
    0.2434   -9.7031    6.3183 O   0  0  0  0  0  0  0  0  0  0  0  0
    1.6565   -9.8356    4.1771 C   0  0  0  0  0  0  0  0  0  0  0  0
    1.4388   -8.5940    3.2466 C   0  0  2  0  0  0  0  0  0  0  0  0
    2.2938   -7.2716    3.3796 C   0  0  0  0  0  0  0  0  0  0  0  0
    1.8766   -6.1640    2.7256 C   0  0  0  0  0  0  0  0  0  0  0  0
    2.1202   -4.7086    3.1268 C   0  0  1  0  0  0  0  0  0  0  0  0
    1.8712   -4.5546    4.5066 O   0  0  0  0  0  0  0  0  0  0  0  0
    3.0373   -4.7362    5.2782 C   0  0  2  0  0  0  0  0  0  0  0  0
    2.6499   -3.8501    6.4988 C   0  0  0  0  0  0  0  0  0  0  0  0
    4.1126   -4.0355    4.3299 C   0  0  2  0  0  0  0  0  0  0  0  0
    4.6864   -2.6211    4.6594 C   0  0  1  0  0  0  0  0  0  0  0  0
    5.7265   -2.6236    5.8023 C   0  0  0  0  0  0  0  0  0  0  0  0
    5.3357   -2.0356    3.3856 C   0  0  0  0  0  0  0  0  0  0  0  0
    4.3612   -1.9282    2.1931 C   0  0  1  0  0  0  0  0  0  0  0  0
    5.0271   -2.2787    0.8226 C   0  0  2  0  0  0  0  0  0  0  0  0
    6.1376   -1.4163    0.6281 O   0  0  0  0  0  0  0  0  0  0  0  0
    4.1195   -2.1839   -0.4437 C   0  0  0  0  0  0  0  0  0  0  0  0
    3.7194   -0.7404   -0.7616 C   0  0  0  0  0  0  0  0  0  0  0  0
    4.7766   -2.8318   -1.6747 C   0  0  0  0  0  0  0  0  0  0  0  0
    2.9140   -2.9047   -0.2784 O   0  0  0  0  0  0  0  0  0  0  0  0
    3.2207   -2.7407    2.4572 O   0  0  0  0  0  0  0  0  0  0  0  0
    3.4829   -4.0643    2.9212 C   0  0  2  0  0  0  0  0  0  0  0  0
    3.3475   -6.3072    5.5899 C   0  0  2  0  0  0  0  0  0  0  0  0
    4.6913   -6.1653    6.4011 C   0  0  0  0  0  0  0  0  0  0  0  0
    3.5844   -7.0995    4.2393 C   0  0  1  0  0  0  0  0  0  0  0  0
    2.2790   -7.2295    6.3985 C   0  0  2  0  0  0  0  0  0  0  0  0
    2.4837   -7.0298    7.9371 C   0  0  0  0  0  0  0  0  0  0  0  0
    0.7223   -6.8251    6.2972 C   0  0  0  0  0  0  0  0  0  0  0  0
   -0.2362   -6.6164    5.0658 C   0  0  0  0  0  0  0  0  0  0  0  0
   -0.8891   -7.7796    4.2821 C   0  0  1  0  0  0  0  0  0  0  0  0
   -2.1413   -7.3337    3.8053 O   0  0  0  0  0  0  0  0  0  0  0  0
   -0.1137   -8.4120    3.0872 C   0  0  1  0  0  0  0  0  0  0  0  0
   -0.5950   -7.9656    1.6857 C   0  0  0  0  0  0  0  0  0  0  0  0
    7.0921   -9.2591    2.9843 H   0  0  0  0  0  0  0  0  0  0  0  0
    6.3390  -10.1125    1.6439 H   0  0  0  0  0  0  0  0  0  0  0  0
    6.0710  -10.6774    3.2615 H   0  0  0  0  0  0  0  0  0  0  0  0
    4.0822   -9.4868    2.5752 H   0  0  0  0  0  0  0  0  0  0  0  0
    5.8562   -7.1666    1.6890 H   0  0  0  0  0  0  0  0  0  0  0  0
    4.1141   -7.2753    1.4522 H   0  0  0  0  0  0  0  0  0  0  0  0
    5.1647   -8.3936    0.6304 H   0  0  0  0  0  0  0  0  0  0  0  0
    5.6835   -7.4903    4.1369 H   0  0  0  0  0  0  0  0  0  0  0  0
    5.5523   -9.8838    5.1610 H   0  0  0  0  0  0  0  0  0  0  0  0
    5.7655   -8.5344    6.0984 H   0  0  0  0  0  0  0  0  0  0  0  0
    3.7806  -10.4858    6.0535 H   0  0  0  0  0  0  0  0  0  0  0  0
    1.7842  -10.7448    6.0586 H   0  0  0  0  0  0  0  0  0  0  0  0
   -0.3103  -10.3703    5.9261 H   0  0  0  0  0  0  0  0  0  0  0  0
    2.6473  -10.2305    3.9598 H   0  0  0  0  0  0  0  0  0  0  0  0
    1.0250  -10.6598    3.8427 H   0  0  0  0  0  0  0  0  0  0  0  0
    1.7796   -8.9693    2.2831 H   0  0  0  0  0  0  0  0  0  0  0  0
    1.0594   -6.2270    2.0432 H   0  0  0  0  0  0  0  0  0  0  0  0
    1.3654   -4.1373    2.5876 H   0  0  0  0  0  0  0  0  0  0  0  0
    3.4209   -3.7294    7.2506 H   0  0  0  0  0  0  0  0  0  0  0  0
    1.7775   -4.2080    7.0281 H   0  0  0  0  0  0  0  0  0  0  0  0
    2.3695   -2.8485    6.1793 H   0  0  0  0  0  0  0  0  0  0  0  0
    5.0095   -4.6462    4.2609 H   0  0  0  0  0  0  0  0  0  0  0  0
    3.8740   -1.9458    4.9305 H   0  0  0  0  0  0  0  0  0  0  0  0
    6.5734   -3.2730    5.5762 H   0  0  0  0  0  0  0  0  0  0  0  0
    5.3224   -2.9567    6.7555 H   0  0  0  0  0  0  0  0  0  0  0  0
    6.1177   -1.6175    5.9650 H   0  0  0  0  0  0  0  0  0  0  0  0
    5.7694   -1.0581    3.5925 H   0  0  0  0  0  0  0  0  0  0  0  0
    6.1622   -2.6789    3.0928 H   0  0  0  0  0  0  0  0  0  0  0  0
    3.9929   -0.8982    2.1607 H   0  0  0  0  0  0  0  0  0  0  0  0
    5.4318   -3.2866    0.8785 H   0  0  0  0  0  0  0  0  0  0  0  0
    5.8253   -0.5243    0.6752 H   0  0  0  0  0  0  0  0  0  0  0  0
    4.5869   -0.1170   -0.9693 H   0  0  0  0  0  0  0  0  0  0  0  0
    3.1654   -0.2931    0.0673 H   0  0  0  0  0  0  0  0  0  0  0  0
    3.0849   -0.7006   -1.6503 H   0  0  0  0  0  0  0  0  0  0  0  0
    5.6722   -2.2953   -1.9874 H   0  0  0  0  0  0  0  0  0  0  0  0
    4.0852   -2.8475   -2.5196 H   0  0  0  0  0  0  0  0  0  0  0  0
    5.0547   -3.8651   -1.4652 H   0  0  0  0  0  0  0  0  0  0  0  0
    2.1965   -2.3254   -0.5194 H   0  0  0  0  0  0  0  0  0  0  0  0
    4.0787   -4.6149    2.1975 H   0  0  0  0  0  0  0  0  0  0  0  0
    4.9185   -6.9956    7.0526 H   0  0  0  0  0  0  0  0  0  0  0  0
    4.6989   -5.3337    7.0954 H   0  0  0  0  0  0  0  0  0  0  0  0
    5.5654   -6.0216    5.7704 H   0  0  0  0  0  0  0  0  0  0  0  0
    4.0811   -6.3890    3.6048 H   0  0  0  0  0  0  0  0  0  0  0  0
    2.5123   -5.9808    8.2261 H   0  0  0  0  0  0  0  0  0  0  0  0
    3.3842   -7.4986    8.3258 H   0  0  0  0  0  0  0  0  0  0  0  0
    1.6868   -7.4955    8.5147 H   0  0  0  0  0  0  0  0  0  0  0  0
    0.1603   -7.4398    6.9928 H   0  0  0  0  0  0  0  0  0  0  0  0
    0.6401   -5.8652    6.7927 H   0  0  0  0  0  0  0  0  0  0  0  0
   -1.0864   -6.1364    5.5528 H   0  0  0  0  0  0  0  0  0  0  0  0
    0.0440   -5.8450    4.3767 H   0  0  0  0  0  0  0  0  0  0  0  0
   -1.2229   -8.5465    4.9697 H   0  0  0  0  0  0  0  0  0  0  0  0
   -2.6125   -8.1044    3.5241 H   0  0  0  0  0  0  0  0  0  0  0  0
   -0.4994   -9.4312    3.0826 H   0  0  0  0  0  0  0  0  0  0  0  0
   -0.8461   -6.9078    1.6248 H   0  0  0  0  0  0  0  0  0  0  0  0
   -1.5014   -8.5134    1.4207 H   0  0  0  0  0  0  0  0  0  0  0  0
    0.1533   -8.1758    0.9282 H   0  0  0  0  0  0  0  0  0  0  0  0
  1  2  1  0
  1 42  1  0
  1 43  1  0
  1 44  1  0
  2  3  1  0
  2  4  1  0
  2 45  1  0
  3 46  1  0
  3 47  1  0
  3 48  1  0
  4 33  1  0
  4  5  1  0
  4 49  1  6
  5  6  1  0
  5 50  1  0
  5 51  1  0
  6  7  2  0
  6 52  1  0
  7 34  1  0
  7  8  1  0
  8  9  1  0
  8 10  1  0
  8 53  1  1
  9 54  1  0
 10 11  1  0
 10 55  1  0
 10 56  1  0
 11 40  1  0
 11 12  1  0
 11 57  1  6
 12 33  1  0
 12 13  2  0
 13 14  1  0
 13 58  1  0
 14 30  1  0
 14 15  1  0
 14 59  1  6
 15 16  1  0
 16 17  1  1
 16 18  1  0
 16 31  1  0
 17 60  1  0
 17 61  1  0
 17 62  1  0
 18 30  1  0
 18 19  1  0
 18 63  1  6
 19 20  1  0
 19 21  1  0
 19 64  1  1
 20 65  1  0
 20 66  1  0
 20 67  1  0
 21 22  1  0
 21 68  1  0
 21 69  1  0
 22 23  1  0
 22 29  1  0
 22 70  1  6
 23 24  1  0
 23 25  1  0
 23 71  1  1
 24 72  1  0
 25 26  1  0
 25 27  1  0
 25 28  1  0
 26 73  1  0
 26 74  1  0
 26 75  1  0
 27 76  1  0
 27 77  1  0
 27 78  1  0
 28 79  1  0
 29 30  1  0
 30 80  1  6
 31 32  1  1
 31 33  1  0
 31 34  1  0
 32 81  1  0
 32 82  1  0
 32 83  1  0
 33 84  1  6
 34 35  1  1
 34 36  1  0
 35 85  1  0
 35 86  1  0
 35 87  1  0
 36 37  1  0
 36 88  1  0
 36 89  1  0
 37 38  1  0
 37 90  1  0
 37 91  1  0
 38 39  1  0
 38 40  1  0
 38 92  1  1
 39 93  1  0
 40 41  1  0
 40 94  1  6
 41 95  1  0
 41 96  1  0
 41 97  1  0
M  END
>  <i_m_ct_stereo_status>  (139) 
1

>  <s_m_source_file>  (139) 
/var/tmp/pbs.5076255.sched01/tmpaqd8m8vp/41rn73ajce.sdf

>  <i_m_source_file_index>  (139) 
25

>  <i_lp_mmshare_version>  (139) 
48012

>  <i_f3d_flags>  (139) 
0

>  <s_epik_input>  (139) 
W0NIM11bQ0hdKFtDSDNdKVtDQEhdKFtDSDJdW0NIXT0xKVtDSF0yW0NAXTMoW0NIM10pW0NAQF0oW0NIM10pKFtDSDJdW0NIMl1bQ0BASF0oW09IXSlbQ0BIXTRbQ0gzXSlDMVtDQEBIXShbT0hdKVtDSDJdW0NAQEhdNEMyPVtDSF1bQ0BASF0oTzUpW0NASF0oW0NAQEhdNltDQF0zNVtDSDNdKU9bQ0BASF0oW0NIMl1bQ0BASF02W0NIM10pW0NASF0oW09IXSlDKFtDSDNdKShbQ0gzXSlbT0hd

>  <s_epik_cmdline>  (139) 
J2VwaWtfcHl0aG9uJywgJy1waHQnLCAnMi4wJywgJy1waCcsICc3LjAnLCAnLXRuJywgJzgnLCAnLW1hJywgJzIwMCcsICctaW1hZScsICc8aW5maWxlLm1hZT4nLCAnLW9tYWUnLCAnPG91dGZpbGUubWFlPic=

>  <r_lp_tautomer_probability>  (139) 
1

>  <r_epik_Ionization_Penalty>  (139) 
1.43605e-06

>  <r_epik_Ionization_Penalty_Charging>  (139) 
0

>  <r_epik_Ionization_Penalty_Neutral>  (139) 
1.43605e-06

>  <r_epik_State_Penalty>  (139) 
-0

>  <r_epik_Charging_Adjusted_Penalty>  (139) 
0

>  <i_epik_Tot_Q>  (139) 
0

>  <i_epik_Tot_abs_Q>  (139) 
0

>  <s_lp_Force_Field>  (139) 
OPLS3e

>  <r_lp_Energy>  (139) 
207.396

>  <b_lp_Chiralities_Consistent>  (139) 
1

>  <s_lp_Variant>  (139) 
48:0-1

>  <s_i_glide_gridfile>  (139) 
pfpi4k_grid

>  <i_i_glide_lignum>  (139) 
25

>  <i_i_glide_rotatable_bonds>  (139) 
7

>  <r_i_docking_score>  (139) 
-2.19625

>  <r_i_glide_ligand_efficiency>  (139) 
-0.053567

>  <r_i_glide_ligand_efficiency_sa>  (139) 
-0.184711

>  <r_i_glide_ligand_efficiency_ln>  (139) 
-0.465941

>  <r_i_glide_gscore>  (139) 
-2.19625

>  <r_i_glide_lipo>  (139) 
-0.204896

>  <r_i_glide_hbond>  (139) 
-0.113143

>  <r_i_glide_metal>  (139) 
-0

>  <r_i_glide_rewards>  (139) 
0

>  <r_i_glide_evdw>  (139) 
-23.7722

>  <r_i_glide_ecoul>  (139) 
-4.82775

>  <r_i_glide_erotb>  (139) 
0.0345626

>  <r_i_glide_esite>  (139) 
0

>  <r_i_glide_emodel>  (139) 
-33.0656

>  <r_i_glide_energy>  (139) 
-28.5999

>  <r_i_glide_einternal>  (139) 
2.66327

>  <r_i_glide_intrahb_reward>  (139) 
-0

>  <i_i_glide_confnum>  (139) 
4

>  <i_i_glide_posenum>  (139) 
9

>  <r_i_glide_eff_state_penalty>  (139) 
0

>  <ligand_id>  (139) 
48

>  <original_smiles>  (139) 
CC(C)C1CC=C2C(O)CC3C4=CC5OC(C)(C6C(C)CC(C(O)C(C)(C)O)OC56)C(C)(C41)C2(C)CCC(O)C3C

>  <smiles>  (139) 
[H]OC1([H])C2=C([H])C([H])([H])C([H])(C([H])(C([H])([H])[H])C([H])([H])[H])C3([H])C4=C([H])C5([H])OC(C([H])([H])[H])(C6([H])C5([H])OC([H])(C([H])(O[H])C(O[H])(C([H])([H])[H])C([H])([H])[H])C([H])([H])C6([H])C([H])([H])[H])C3(C([H])([H])[H])C2(C([H])([H])[H])C([H])([H])C([H])([H])C([H])(O[H])C([H])(C([H])([H])[H])C4([H])C1([H])[H]

$$$$
49:0:0
     RDKit          3D

 43 47  0  0  1  0  0  0  0  0999 V2000
    1.6887    3.4659    3.7035 C   0  0  0  0  0  0  0  0  0  0  0  0
    1.2669    2.0729    3.5133 N   0  0  0  0  0  0  0  0  0  0  0  0
    1.9425    1.0197    3.9578 C   0  0  0  0  0  0  0  0  0  0  0  0
    3.0297    0.9711    4.5118 O   0  0  0  0  0  0  0  0  0  0  0  0
    1.0552   -0.2210    3.6756 C   0  0  1  0  0  0  0  0  0  0  0  0
    0.0202    0.3528    2.8238 N   0  0  0  0  0  0  0  0  0  0  0  0
    0.1196    1.6158    2.8904 C   0  0  0  0  0  0  0  0  0  0  0  0
   -0.8010    2.5447    2.4780 N   0  0  0  0  0  0  0  0  0  0  0  0
    1.8578   -1.2936    3.0106 C   0  0  0  0  0  0  0  0  0  0  0  0
    2.4328   -1.2461    1.7361 C   0  0  0  0  0  0  0  0  0  0  0  0
    3.1764   -2.3446    1.2812 C   0  0  0  0  0  0  0  0  0  0  0  0
    3.7666   -2.3011   -0.0607 C   0  0  0  0  0  0  0  0  0  0  0  0
    3.2190   -3.0908   -1.0890 C   0  0  0  0  0  0  0  0  0  0  0  0
    3.8075   -3.0592   -2.3653 C   0  0  0  0  0  0  0  0  0  0  0  0
    4.9291   -2.2330   -2.5587 C   0  0  0  0  0  0  0  0  0  0  0  0
    5.4539   -1.4577   -1.5897 N   0  0  0  0  0  0  0  0  0  0  0  0
    4.8758   -1.4814   -0.3713 C   0  0  0  0  0  0  0  0  0  0  0  0
    5.4204   -0.7012    0.5954 F   0  0  0  0  0  0  0  0  0  0  0  0
    3.3179   -3.4730    2.1221 C   0  0  0  0  0  0  0  0  0  0  0  0
    2.7324   -3.5343    3.4125 C   0  0  0  0  0  0  0  0  0  0  0  0
    1.9884   -2.4046    3.8299 C   0  0  0  0  0  0  0  0  0  0  0  0
    1.2786   -2.1956    5.1241 C   0  0  0  0  0  0  0  0  0  0  0  0
    0.4845   -0.8537    4.9904 C   0  0  0  0  0  0  0  0  0  0  0  0
   -1.0436   -0.9662    5.2152 C   0  0  0  0  0  0  0  0  0  0  0  0
   -0.9235   -0.5536    6.5796 O   0  0  0  0  0  0  0  0  0  0  0  0
    0.3625    0.0011    6.2691 C   0  0  0  0  0  0  0  0  0  0  0  0
    0.9860    4.1877    3.2862 H   0  0  0  0  0  0  0  0  0  0  0  0
    2.6549    3.5563    3.2079 H   0  0  0  0  0  0  0  0  0  0  0  0
    1.8297    3.6548    4.7727 H   0  0  0  0  0  0  0  0  0  0  0  0
   -1.6364    2.1953    2.0463 H   0  0  0  0  0  0  0  0  0  0  0  0
    2.2774   -0.3670    1.1467 H   0  0  0  0  0  0  0  0  0  0  0  0
    2.3601   -3.7184   -0.9041 H   0  0  0  0  0  0  0  0  0  0  0  0
    3.4131   -3.6616   -3.1683 H   0  0  0  0  0  0  0  0  0  0  0  0
    5.4167   -2.1985   -3.5187 H   0  0  0  0  0  0  0  0  0  0  0  0
    3.8814   -4.3123    1.7665 H   0  0  0  0  0  0  0  0  0  0  0  0
    2.8625   -4.4063    4.0511 H   0  0  0  0  0  0  0  0  0  0  0  0
    0.6238   -3.0509    5.3418 H   0  0  0  0  0  0  0  0  0  0  0  0
    2.0145   -2.1571    5.9430 H   0  0  0  0  0  0  0  0  0  0  0  0
   -1.6579   -0.2532    4.6591 H   0  0  0  0  0  0  0  0  0  0  0  0
   -1.4129   -1.9878    5.1051 H   0  0  0  0  0  0  0  0  0  0  0  0
    1.1269   -0.2314    7.0162 H   0  0  0  0  0  0  0  0  0  0  0  0
    0.2912    1.0826    6.0992 H   0  0  0  0  0  0  0  0  0  0  0  0
   -0.4890    3.3750    1.9403 H   0  0  0  0  0  0  0  0  0  0  0  0
  1 27  1  0
  1 28  1  0
  1 29  1  0
  1  2  1  0
  2  3  1  0
  2  7  1  0
  3  4  2  0
  3  5  1  0
  5  6  1  0
  5 23  1  1
  5  9  1  0
  6  7  2  0
  7  8  1  0
  8 30  1  0
  8 43  1  0
  9 21  1  0
  9 10  2  0
 10 11  1  0
 10 31  1  0
 11 12  1  0
 11 19  2  0
 12 17  1  0
 12 13  2  0
 13 14  1  0
 13 32  1  0
 14 15  2  0
 14 33  1  0
 15 16  1  0
 15 34  1  0
 16 17  2  0
 17 18  1  0
 19 20  1  0
 19 35  1  0
 20 21  2  0
 20 36  1  0
 21 22  1  0
 22 23  1  0
 22 37  1  0
 22 38  1  0
 23 26  1  0
 23 24  1  0
 24 25  1  0
 24 39  1  0
 24 40  1  0
 25 26  1  0
 26 41  1  0
 26 42  1  0
M  END
>  <i_m_ct_stereo_status>  (140) 
1

>  <s_m_source_file>  (140) 
/var/tmp/pbs.5076255.sched01/tmpaqd8m8vp/41rn73ajce.sdf

>  <i_m_source_file_index>  (140) 
26

>  <i_lp_mmshare_version>  (140) 
48012

>  <i_f3d_flags>  (140) 
0

>  <s_epik_input>  (140) 
TjE9QyhbTkgyXSlOKFtDSDNdKUMoPU8pW0NAQF0xMkMzKFtDSDJdT1tDSDJdMylbQ0gyXWM0YzJbY0hdYyhbY0hdW2NIXTQpLWM1W2NIXVtjSF1bY0hdbmM1Rg==

>  <s_epik_cmdline>  (140) 
J2VwaWtfcHl0aG9uJywgJy1waHQnLCAnMi4wJywgJy1waCcsICc3LjAnLCAnLXRuJywgJzgnLCAnLW1hJywgJzIwMCcsICctaW1hZScsICc8aW5maWxlLm1hZT4nLCAnLW9tYWUnLCAnPG91dGZpbGUubWFlPic=

>  <r_lp_tautomer_probability>  (140) 
1

>  <r_epik_Ionization_Penalty>  (140) 
1.31487

>  <r_epik_Ionization_Penalty_Charging>  (140) 
0

>  <r_epik_Ionization_Penalty_Neutral>  (140) 
1.31487

>  <r_epik_State_Penalty>  (140) 
-0

>  <r_epik_Charging_Adjusted_Penalty>  (140) 
0

>  <i_epik_Tot_Q>  (140) 
0

>  <i_epik_Tot_abs_Q>  (140) 
0

>  <s_epik_Chemistry_Notes>  (140) 
This compound has an imine and may undergo hydrolysis.

>  <s_lp_Force_Field>  (140) 
OPLS3e

>  <r_lp_Energy>  (140) 
33.0453

>  <b_lp_Chiralities_Consistent>  (140) 
1

>  <s_lp_Variant>  (140) 
49:0-1

>  <s_i_glide_gridfile>  (140) 
pfpi4k_grid

>  <i_i_glide_lignum>  (140) 
26

>  <i_i_glide_rotatable_bonds>  (140) 
1

>  <r_i_docking_score>  (140) 
-3.76272

>  <r_i_glide_ligand_efficiency>  (140) 
-0.14472

>  <r_i_glide_ligand_efficiency_sa>  (140) 
-0.428733

>  <r_i_glide_ligand_efficiency_ln>  (140) 
-0.883663

>  <r_i_glide_gscore>  (140) 
-3.76272

>  <r_i_glide_lipo>  (140) 
-0.134699

>  <r_i_glide_hbond>  (140) 
-0.238341

>  <r_i_glide_metal>  (140) 
-0

>  <r_i_glide_rewards>  (140) 
-1.19123

>  <r_i_glide_evdw>  (140) 
-23.2178

>  <r_i_glide_ecoul>  (140) 
-7.05345

>  <r_i_glide_erotb>  (140) 
0.153706

>  <r_i_glide_esite>  (140) 
-0.133245

>  <r_i_glide_emodel>  (140) 
-35.9866

>  <r_i_glide_energy>  (140) 
-30.2713

>  <r_i_glide_einternal>  (140) 
0.998785

>  <r_i_glide_intrahb_reward>  (140) 
-0

>  <i_i_glide_confnum>  (140) 
6

>  <i_i_glide_posenum>  (140) 
1

>  <r_i_glide_eff_state_penalty>  (140) 
0

>  <ligand_id>  (140) 
49

>  <original_smiles>  (140) 
CN1C(=O)C2(N=C1N)c1cc(-c3cccnc3F)ccc1CC21COC1

>  <smiles>  (140) 
[H]c1nc(F)c(-c2c([H])c([H])c3c(c2[H])C2(N=C(N([H])[H])N(C([H])([H])[H])C2=O)C2(C([H])([H])OC2([H])[H])C3([H])[H])c([H])c1[H]

$$$$
49:0:1
     RDKit          3D

 43 47  0  0  1  0  0  0  0  0999 V2000
    2.2866    3.1237    3.1397 C   0  0  0  0  0  0  0  0  0  0  0  0
    1.8629    1.7240    3.0898 N   0  0  0  0  0  0  0  0  0  0  0  0
    2.6242    0.6954    3.4537 C   0  0  0  0  0  0  0  0  0  0  0  0
    3.8034    0.6809    3.7958 O   0  0  0  0  0  0  0  0  0  0  0  0
    1.7105   -0.5545    3.4162 C   0  0  1  0  0  0  0  0  0  0  0  0
    0.5269   -0.0379    2.7477 N   0  0  0  0  0  0  0  0  0  0  0  0
    0.6154    1.2535    2.7187 C   0  0  0  0  0  0  0  0  0  0  0  0
   -0.3643    2.1366    2.3919 N   0  0  0  0  0  0  0  0  0  0  0  0
    2.3848   -1.6554    2.6544 C   0  0  0  0  0  0  0  0  0  0  0  0
    2.7051   -1.6747    1.2921 C   0  0  0  0  0  0  0  0  0  0  0  0
    3.3615   -2.7947    0.7479 C   0  0  0  0  0  0  0  0  0  0  0  0
    3.6809   -2.8228   -0.6859 C   0  0  0  0  0  0  0  0  0  0  0  0
    2.6637   -3.0458   -1.6329 C   0  0  0  0  0  0  0  0  0  0  0  0
    2.9894   -3.0594   -2.9981 C   0  0  0  0  0  0  0  0  0  0  0  0
    4.3316   -2.8707   -3.3612 C   0  0  0  0  0  0  0  0  0  0  0  0
    5.3158   -2.6443   -2.4673 N   0  0  0  0  0  0  0  0  0  0  0  0
    4.9927   -2.6158   -1.1585 C   0  0  0  0  0  0  0  0  0  0  0  0
    5.9893   -2.3706   -0.2722 F   0  0  0  0  0  0  0  0  0  0  0  0
    3.6839   -3.8735    1.6065 C   0  0  0  0  0  0  0  0  0  0  0  0
    3.3551   -3.8693    2.9836 C   0  0  0  0  0  0  0  0  0  0  0  0
    2.6914   -2.7249    3.4756 C   0  0  0  0  0  0  0  0  0  0  0  0
    2.2393   -2.4626    4.8884 C   0  0  0  0  0  0  0  0  0  0  0  0
    1.4167   -1.1271    4.8452 C   0  0  0  0  0  0  0  0  0  0  0  0
   -0.0408   -1.2340    5.3475 C   0  0  0  0  0  0  0  0  0  0  0  0
    0.3408   -0.7587    6.6627 O   0  0  0  0  0  0  0  0  0  0  0  0
    1.5465   -0.2024    6.0714 C   0  0  0  0  0  0  0  0  0  0  0  0
    1.5106    3.8364    2.8362 H   0  0  0  0  0  0  0  0  0  0  0  0
    3.1406    3.2149    2.4598 H   0  0  0  0  0  0  0  0  0  0  0  0
    2.6389    3.3765    4.1548 H   0  0  0  0  0  0  0  0  0  0  0  0
   -1.2792    1.7815    2.1949 H   0  0  0  0  0  0  0  0  0  0  0  0
    2.4406   -0.8149    0.7022 H   0  0  0  0  0  0  0  0  0  0  0  0
    1.6383   -3.1814   -1.3230 H   0  0  0  0  0  0  0  0  0  0  0  0
    2.2308   -3.2283   -3.7501 H   0  0  0  0  0  0  0  0  0  0  0  0
    4.6142   -2.8922   -4.4020 H   0  0  0  0  0  0  0  0  0  0  0  0
    4.1801   -4.7329    1.1807 H   0  0  0  0  0  0  0  0  0  0  0  0
    3.6123   -4.7094    3.6224 H   0  0  0  0  0  0  0  0  0  0  0  0
    1.6478   -3.3007    5.2559 H   0  0  0  0  0  0  0  0  0  0  0  0
    3.1175   -2.3735    5.5337 H   0  0  0  0  0  0  0  0  0  0  0  0
   -0.7532   -0.5481    4.8999 H   0  0  0  0  0  0  0  0  0  0  0  0
   -0.4118   -2.2555    5.3731 H   0  0  0  0  0  0  0  0  0  0  0  0
    2.4311   -0.4017    6.6693 H   0  0  0  0  0  0  0  0  0  0  0  0
    1.4161    0.8629    5.8708 H   0  0  0  0  0  0  0  0  0  0  0  0
   -0.1868    2.9955    1.8832 H   0  0  0  0  0  0  0  0  0  0  0  0
  1 27  1  0
  1 28  1  0
  1 29  1  0
  1  2  1  0
  2  3  1  0
  2  7  1  0
  3  4  2  0
  3  5  1  0
  5  6  1  0
  5 23  1  1
  5  9  1  0
  6  7  2  0
  7  8  1  0
  8 30  1  0
  8 43  1  0
  9 21  1  0
  9 10  2  0
 10 11  1  0
 10 31  1  0
 11 12  1  0
 11 19  2  0
 12 17  1  0
 12 13  2  0
 13 14  1  0
 13 32  1  0
 14 15  2  0
 14 33  1  0
 15 16  1  0
 15 34  1  0
 16 17  2  0
 17 18  1  0
 19 20  1  0
 19 35  1  0
 20 21  2  0
 20 36  1  0
 21 22  1  0
 22 23  1  0
 22 37  1  0
 22 38  1  0
 23 26  1  0
 23 24  1  0
 24 25  1  0
 24 39  1  0
 24 40  1  0
 25 26  1  0
 26 41  1  0
 26 42  1  0
M  END
>  <i_m_ct_stereo_status>  (141) 
1

>  <s_m_source_file>  (141) 
/var/tmp/pbs.5076255.sched01/tmpaqd8m8vp/41rn73ajce.sdf

>  <i_m_source_file_index>  (141) 
26

>  <i_lp_mmshare_version>  (141) 
48012

>  <i_f3d_flags>  (141) 
0

>  <s_epik_input>  (141) 
TjE9QyhbTkgyXSlOKFtDSDNdKUMoPU8pW0NAQF0xMkMzKFtDSDJdT1tDSDJdMylbQ0gyXWM0YzJbY0hdYyhbY0hdW2NIXTQpLWM1W2NIXVtjSF1bY0hdbmM1Rg==

>  <s_epik_cmdline>  (141) 
J2VwaWtfcHl0aG9uJywgJy1waHQnLCAnMi4wJywgJy1waCcsICc3LjAnLCAnLXRuJywgJzgnLCAnLW1hJywgJzIwMCcsICctaW1hZScsICc8aW5maWxlLm1hZT4nLCAnLW9tYWUnLCAnPG91dGZpbGUubWFlPic=

>  <r_lp_tautomer_probability>  (141) 
1

>  <r_epik_Ionization_Penalty>  (141) 
1.31487

>  <r_epik_Ionization_Penalty_Charging>  (141) 
0

>  <r_epik_Ionization_Penalty_Neutral>  (141) 
1.31487

>  <r_epik_State_Penalty>  (141) 
-0

>  <r_epik_Charging_Adjusted_Penalty>  (141) 
0

>  <i_epik_Tot_Q>  (141) 
0

>  <i_epik_Tot_abs_Q>  (141) 
0

>  <s_epik_Chemistry_Notes>  (141) 
This compound has an imine and may undergo hydrolysis.

>  <s_lp_Force_Field>  (141) 
OPLS3e

>  <r_lp_Energy>  (141) 
33.0453

>  <b_lp_Chiralities_Consistent>  (141) 
1

>  <s_lp_Variant>  (141) 
49:0-1

>  <s_i_glide_gridfile>  (141) 
pfpi4k_grid

>  <i_i_glide_lignum>  (141) 
26

>  <i_i_glide_rotatable_bonds>  (141) 
1

>  <r_i_docking_score>  (141) 
-3.27311

>  <r_i_glide_ligand_efficiency>  (141) 
-0.125889

>  <r_i_glide_ligand_efficiency_sa>  (141) 
-0.372945

>  <r_i_glide_ligand_efficiency_ln>  (141) 
-0.768678

>  <r_i_glide_gscore>  (141) 
-3.27311

>  <r_i_glide_lipo>  (141) 
-0.199238

>  <r_i_glide_hbond>  (141) 
-0.16

>  <r_i_glide_metal>  (141) 
-0

>  <r_i_glide_rewards>  (141) 
-1.00662

>  <r_i_glide_evdw>  (141) 
-25.6367

>  <r_i_glide_ecoul>  (141) 
-4.38192

>  <r_i_glide_erotb>  (141) 
0.153706

>  <r_i_glide_esite>  (141) 
-0.121828

>  <r_i_glide_emodel>  (141) 
-35.3608

>  <r_i_glide_energy>  (141) 
-30.0186

>  <r_i_glide_einternal>  (141) 
1.0911

>  <r_i_glide_intrahb_reward>  (141) 
-0

>  <i_i_glide_confnum>  (141) 
6

>  <i_i_glide_posenum>  (141) 
15

>  <r_i_glide_eff_state_penalty>  (141) 
0

>  <ligand_id>  (141) 
49

>  <original_smiles>  (141) 
CN1C(=O)C2(N=C1N)c1cc(-c3cccnc3F)ccc1CC21COC1

>  <smiles>  (141) 
[H]c1nc(F)c(-c2c([H])c([H])c3c(c2[H])C2(N=C(N([H])[H])N(C([H])([H])[H])C2=O)C2(C([H])([H])OC2([H])[H])C3([H])[H])c([H])c1[H]

$$$$
49:0:2
     RDKit          3D

 43 47  0  0  1  0  0  0  0  0999 V2000
    2.3722   -2.8274   -3.1103 C   0  0  0  0  0  0  0  0  0  0  0  0
    3.1086   -2.4207   -1.9115 N   0  0  0  0  0  0  0  0  0  0  0  0
    3.0489   -3.0848   -0.7375 C   0  0  0  0  0  0  0  0  0  0  0  0
    2.3467   -4.0424   -0.4180 O   0  0  0  0  0  0  0  0  0  0  0  0
    4.0531   -2.3775    0.1888 C   0  0  1  0  0  0  0  0  0  0  0  0
    4.3853   -1.1534   -0.5457 N   0  0  0  0  0  0  0  0  0  0  0  0
    3.9018   -1.2999   -1.7144 C   0  0  0  0  0  0  0  0  0  0  0  0
    4.1353   -0.4801   -2.8089 N   0  0  0  0  0  0  0  0  0  0  0  0
    3.4313   -2.1279    1.5315 C   0  0  0  0  0  0  0  0  0  0  0  0
    2.3555   -1.2691    1.8164 C   0  0  0  0  0  0  0  0  0  0  0  0
    1.8699   -1.1908    3.1337 C   0  0  0  0  0  0  0  0  0  0  0  0
    0.7333   -0.3007    3.4283 C   0  0  0  0  0  0  0  0  0  0  0  0
    0.6167    0.9503    2.7727 C   0  0  0  0  0  0  0  0  0  0  0  0
   -0.4628    1.7924    3.0842 C   0  0  0  0  0  0  0  0  0  0  0  0
   -1.3967    1.3578    4.0392 C   0  0  0  0  0  0  0  0  0  0  0  0
   -1.3098    0.1681    4.6621 N   0  0  0  0  0  0  0  0  0  0  0  0
   -0.2792   -0.6396    4.3582 C   0  0  0  0  0  0  0  0  0  0  0  0
   -0.2523   -1.8462    4.9782 F   0  0  0  0  0  0  0  0  0  0  0  0
    2.4949   -1.9671    4.1430 C   0  0  0  0  0  0  0  0  0  0  0  0
    3.5932   -2.8268    3.8570 C   0  0  0  0  0  0  0  0  0  0  0  0
    4.0435   -2.8778    2.5226 C   0  0  0  0  0  0  0  0  0  0  0  0
    5.1646   -3.6945    1.9661 C   0  0  0  0  0  0  0  0  0  0  0  0
    5.3236   -3.2543    0.4917 C   0  0  0  0  0  0  0  0  0  0  0  0
    6.7019   -2.6866    0.0823 C   0  0  0  0  0  0  0  0  0  0  0  0
    6.6594   -3.4084   -1.1476 O   0  0  0  0  0  0  0  0  0  0  0  0
    5.7408   -4.3277   -0.5423 C   0  0  0  0  0  0  0  0  0  0  0  0
    2.5191   -2.1511   -3.9588 H   0  0  0  0  0  0  0  0  0  0  0  0
    1.3117   -2.8602   -2.8493 H   0  0  0  0  0  0  0  0  0  0  0  0
    2.6787   -3.8443   -3.3916 H   0  0  0  0  0  0  0  0  0  0  0  0
    4.7353    0.3015   -2.6689 H   0  0  0  0  0  0  0  0  0  0  0  0
    1.9292   -0.7307    0.9997 H   0  0  0  0  0  0  0  0  0  0  0  0
    1.3451    1.2780    2.0486 H   0  0  0  0  0  0  0  0  0  0  0  0
   -0.5710    2.7515    2.5983 H   0  0  0  0  0  0  0  0  0  0  0  0
   -2.2454    1.9705    4.3077 H   0  0  0  0  0  0  0  0  0  0  0  0
    2.1603   -1.9009    5.1558 H   0  0  0  0  0  0  0  0  0  0  0  0
    4.0557   -3.4164    4.6473 H   0  0  0  0  0  0  0  0  0  0  0  0
    6.0953   -3.5353    2.5481 H   0  0  0  0  0  0  0  0  0  0  0  0
    4.9196   -4.7730    2.0348 H   0  0  0  0  0  0  0  0  0  0  0  0
    6.7264   -1.5918   -0.0316 H   0  0  0  0  0  0  0  0  0  0  0  0
    7.5454   -3.0337    0.7021 H   0  0  0  0  0  0  0  0  0  0  0  0
    6.2719   -5.1847   -0.0887 H   0  0  0  0  0  0  0  0  0  0  0  0
    4.9612   -4.6939   -1.2266 H   0  0  0  0  0  0  0  0  0  0  0  0
    3.3957   -0.2531   -3.4808 H   0  0  0  0  0  0  0  0  0  0  0  0
  1 27  1  0
  1 28  1  0
  1 29  1  0
  1  2  1  0
  2  3  1  0
  2  7  1  0
  3  4  2  0
  3  5  1  0
  5  6  1  0
  5 23  1  1
  5  9  1  0
  6  7  2  0
  7  8  1  0
  8 30  1  0
  8 43  1  0
  9 21  1  0
  9 10  2  0
 10 11  1  0
 10 31  1  0
 11 12  1  0
 11 19  2  0
 12 17  1  0
 12 13  2  0
 13 14  1  0
 13 32  1  0
 14 15  2  0
 14 33  1  0
 15 16  1  0
 15 34  1  0
 16 17  2  0
 17 18  1  0
 19 20  1  0
 19 35  1  0
 20 21  2  0
 20 36  1  0
 21 22  1  0
 22 23  1  0
 22 37  1  0
 22 38  1  0
 23 26  1  0
 23 24  1  0
 24 25  1  0
 24 39  1  0
 24 40  1  0
 25 26  1  0
 26 41  1  0
 26 42  1  0
M  END
>  <i_m_ct_stereo_status>  (142) 
1

>  <s_m_source_file>  (142) 
/var/tmp/pbs.5076255.sched01/tmpaqd8m8vp/41rn73ajce.sdf

>  <i_m_source_file_index>  (142) 
26

>  <i_lp_mmshare_version>  (142) 
48012

>  <i_f3d_flags>  (142) 
0

>  <s_epik_input>  (142) 
TjE9QyhbTkgyXSlOKFtDSDNdKUMoPU8pW0NAQF0xMkMzKFtDSDJdT1tDSDJdMylbQ0gyXWM0YzJbY0hdYyhbY0hdW2NIXTQpLWM1W2NIXVtjSF1bY0hdbmM1Rg==

>  <s_epik_cmdline>  (142) 
J2VwaWtfcHl0aG9uJywgJy1waHQnLCAnMi4wJywgJy1waCcsICc3LjAnLCAnLXRuJywgJzgnLCAnLW1hJywgJzIwMCcsICctaW1hZScsICc8aW5maWxlLm1hZT4nLCAnLW9tYWUnLCAnPG91dGZpbGUubWFlPic=

>  <r_lp_tautomer_probability>  (142) 
1

>  <r_epik_Ionization_Penalty>  (142) 
1.31487

>  <r_epik_Ionization_Penalty_Charging>  (142) 
0

>  <r_epik_Ionization_Penalty_Neutral>  (142) 
1.31487

>  <r_epik_State_Penalty>  (142) 
-0

>  <r_epik_Charging_Adjusted_Penalty>  (142) 
0

>  <i_epik_Tot_Q>  (142) 
0

>  <i_epik_Tot_abs_Q>  (142) 
0

>  <s_epik_Chemistry_Notes>  (142) 
This compound has an imine and may undergo hydrolysis.

>  <s_lp_Force_Field>  (142) 
OPLS3e

>  <r_lp_Energy>  (142) 
33.0453

>  <b_lp_Chiralities_Consistent>  (142) 
1

>  <s_lp_Variant>  (142) 
49:0-1

>  <s_i_glide_gridfile>  (142) 
pfpi4k_grid

>  <i_i_glide_lignum>  (142) 
26

>  <i_i_glide_rotatable_bonds>  (142) 
1

>  <r_i_docking_score>  (142) 
-3.1704

>  <r_i_glide_ligand_efficiency>  (142) 
-0.121938

>  <r_i_glide_ligand_efficiency_sa>  (142) 
-0.361242

>  <r_i_glide_ligand_efficiency_ln>  (142) 
-0.744558

>  <r_i_glide_gscore>  (142) 
-3.1704

>  <r_i_glide_lipo>  (142) 
-0.296058

>  <r_i_glide_hbond>  (142) 
-0.02595

>  <r_i_glide_metal>  (142) 
-0

>  <r_i_glide_rewards>  (142) 
-1.00662

>  <r_i_glide_evdw>  (142) 
-29.133

>  <r_i_glide_ecoul>  (142) 
-3.09364

>  <r_i_glide_erotb>  (142) 
0.153706

>  <r_i_glide_esite>  (142) 
-0.074782

>  <r_i_glide_emodel>  (142) 
-37.542

>  <r_i_glide_energy>  (142) 
-32.2266

>  <r_i_glide_einternal>  (142) 
0.0967786

>  <r_i_glide_intrahb_reward>  (142) 
-0

>  <i_i_glide_confnum>  (142) 
2

>  <i_i_glide_posenum>  (142) 
10

>  <r_i_glide_eff_state_penalty>  (142) 
0

>  <ligand_id>  (142) 
49

>  <original_smiles>  (142) 
CN1C(=O)C2(N=C1N)c1cc(-c3cccnc3F)ccc1CC21COC1

>  <smiles>  (142) 
[H]c1nc(F)c(-c2c([H])c([H])c3c(c2[H])C2(N=C(N([H])[H])N(C([H])([H])[H])C2=O)C2(C([H])([H])OC2([H])[H])C3([H])[H])c([H])c1[H]

$$$$
50:0:0
     RDKit          3D

 44 49  0  0  1  0  0  0  0  0999 V2000
    2.9630   -4.7775    0.4384 C   0  0  0  0  0  0  0  0  0  0  0  0
    3.5457   -3.3730    0.1392 C   0  0  2  0  0  0  0  0  0  0  0  0
    2.9777   -2.3635    1.1912 C   0  0  0  0  0  0  0  0  0  0  0  0
    3.5917   -0.9662    0.9502 C   0  0  0  0  0  0  0  0  0  0  0  0
    4.3542   -0.9670   -0.3876 C   0  0  1  0  0  0  0  0  0  0  0  0
    5.4863   -2.0827   -0.5771 C   0  0  2  0  0  0  0  0  0  0  0  0
    5.8795   -2.3445   -2.1276 C   0  0  0  0  0  0  0  0  0  0  0  0
    4.8699   -1.8559   -3.2377 C   0  0  1  0  0  0  0  0  0  0  0  0
    3.6702   -2.7224   -3.6961 C   0  0  2  0  0  0  0  0  0  0  0  0
    2.5225   -1.7216   -3.9140 C   0  0  0  0  0  0  0  0  0  0  0  0
    2.7448   -0.7682   -2.7719 C   0  0  2  0  0  0  0  0  0  0  0  0
    4.1490   -0.7566   -2.6199 C   0  0  1  0  0  0  0  0  0  0  0  0
    3.3350   -1.3021   -1.4434 C   0  0  2  0  0  0  0  0  0  0  0  0
    2.9720   -2.7971   -1.2304 C   0  0  1  0  0  0  0  0  0  0  0  0
    3.2375   -3.5901   -2.5297 C   0  0  0  0  0  0  0  0  0  0  0  0
    5.0753   -3.3280    0.1889 N   0  0  0  0  0  0  0  0  0  0  0  0
    5.6083   -3.2289    1.5938 C   0  0  0  0  0  0  0  0  0  0  0  0
    5.7385   -4.5891   -0.2747 C   0  0  0  0  0  0  0  0  0  0  0  0
    1.8786   -4.7528    0.4707 H   0  0  0  0  0  0  0  0  0  0  0  0
    3.3089   -5.1595    1.3980 H   0  0  0  0  0  0  0  0  0  0  0  0
    3.2342   -5.5130   -0.3189 H   0  0  0  0  0  0  0  0  0  0  0  0
    1.8973   -2.2873    1.0761 H   0  0  0  0  0  0  0  0  0  0  0  0
    3.1347   -2.6842    2.2209 H   0  0  0  0  0  0  0  0  0  0  0  0
    2.7913   -0.2238    0.8961 H   0  0  0  0  0  0  0  0  0  0  0  0
    4.2176   -0.6308    1.7768 H   0  0  0  0  0  0  0  0  0  0  0  0
    4.7630    0.0321   -0.5002 H   0  0  0  0  0  0  0  0  0  0  0  0
    6.3973   -1.7124   -0.1099 H   0  0  0  0  0  0  0  0  0  0  0  0
    6.7987   -1.7998   -2.2964 H   0  0  0  0  0  0  0  0  0  0  0  0
    6.1954   -3.3592   -2.3653 H   0  0  0  0  0  0  0  0  0  0  0  0
    5.3209   -1.4916   -4.1506 H   0  0  0  0  0  0  0  0  0  0  0  0
    3.8581   -3.3157   -4.5951 H   0  0  0  0  0  0  0  0  0  0  0  0
    2.6198   -1.1435   -4.8318 H   0  0  0  0  0  0  0  0  0  0  0  0
    1.5517   -2.2295   -3.8778 H   0  0  0  0  0  0  0  0  0  0  0  0
    2.2052    0.1498   -2.7637 H   0  0  0  0  0  0  0  0  0  0  0  0
    4.6254    0.2222   -2.6075 H   0  0  0  0  0  0  0  0  0  0  0  0
    1.8913   -2.8155   -1.1422 H   0  0  0  0  0  0  0  0  0  0  0  0
    2.3428   -4.1438   -2.8084 H   0  0  0  0  0  0  0  0  0  0  0  0
    4.0659   -4.2558   -2.4247 H   0  0  0  0  0  0  0  0  0  0  0  0
    6.6924   -3.3446    1.6125 H   0  0  0  0  0  0  0  0  0  0  0  0
    5.1985   -4.0131    2.2331 H   0  0  0  0  0  0  0  0  0  0  0  0
    5.4420   -2.2832    2.1006 H   0  0  0  0  0  0  0  0  0  0  0  0
    6.8160   -4.4429   -0.3389 H   0  0  0  0  0  0  0  0  0  0  0  0
    5.4027   -5.0014   -1.2158 H   0  0  0  0  0  0  0  0  0  0  0  0
    5.5954   -5.3967    0.4437 H   0  0  0  0  0  0  0  0  0  0  0  0
  2  1  1  1
  1 19  1  0
  1 20  1  0
  1 21  1  0
  2 14  1  0
  2 16  1  0
  2  3  1  0
  3  4  1  0
  3 22  1  0
  3 23  1  0
  4  5  1  0
  4 24  1  0
  4 25  1  0
  5 13  1  0
  5  6  1  0
  5 26  1  6
  6  7  1  0
  6 16  1  0
  6 27  1  1
  7  8  1  0
  7 28  1  0
  7 29  1  0
  8 12  1  0
  8  9  1  0
  8 30  1  6
  9 15  1  0
  9 10  1  0
  9 31  1  6
 10 11  1  0
 10 32  1  0
 10 33  1  0
 13 11  1  1
 11 12  1  0
 11 34  1  1
 12 13  1  0
 12 35  1  1
 13 14  1  0
 14 15  1  0
 14 36  1  1
 15 37  1  0
 15 38  1  0
 16 17  1  0
 16 18  1  0
 17 39  1  0
 17 40  1  0
 17 41  1  0
 18 42  1  0
 18 43  1  0
 18 44  1  0
M  CHG  1  16   1
M  END
>  <i_m_ct_stereo_status>  (143) 
1

>  <s_m_source_file>  (143) 
/var/tmp/pbs.5076255.sched01/tmpaqd8m8vp/41rn73ajce.sdf

>  <i_m_source_file_index>  (143) 
27

>  <i_lp_mmshare_version>  (143) 
48012

>  <i_f3d_flags>  (143) 
0

>  <s_epik_input>  (143) 
W0NIMl0xW0NIMl1bQ0BdKFtDSDNdKShbTitdMihbQ0gzXSlbQ0gzXSlbQ0BASF0zW0NIMl1bQ0BASF0oW0NIMl1bQ0BASF00W0NASF01NilbQ0BASF01W0NIMl1bQ0BIXTJbQ0BIXTFbQ0BAXTM0Ng==

>  <s_epik_cmdline>  (143) 
J2VwaWtfcHl0aG9uJywgJy1waHQnLCAnMi4wJywgJy1waCcsICc3LjAnLCAnLXRuJywgJzgnLCAnLW1hJywgJzIwMCcsICctaW1hZScsICc8aW5maWxlLm1hZT4nLCAnLW9tYWUnLCAnPG91dGZpbGUubWFlPic=

>  <r_lp_tautomer_probability>  (143) 
1

>  <r_epik_Ionization_Penalty>  (143) 
0

>  <r_epik_Ionization_Penalty_Charging>  (143) 
0

>  <r_epik_Ionization_Penalty_Neutral>  (143) 
0

>  <r_epik_State_Penalty>  (143) 
-0

>  <r_epik_Charging_Adjusted_Penalty>  (143) 
0

>  <i_epik_Tot_Q>  (143) 
1

>  <i_epik_Tot_abs_Q>  (143) 
1

>  <s_lp_Force_Field>  (143) 
OPLS3e

>  <r_lp_Energy>  (143) 
184.788

>  <b_lp_Chiralities_Consistent>  (143) 
1

>  <s_lp_Variant>  (143) 
50:0-1

>  <s_i_glide_gridfile>  (143) 
pfpi4k_grid

>  <i_i_glide_lignum>  (143) 
27

>  <i_i_glide_rotatable_bonds>  (143) 
0

>  <r_i_docking_score>  (143) 
-2.96248

>  <r_i_glide_ligand_efficiency>  (143) 
-0.164582

>  <r_i_glide_ligand_efficiency_sa>  (143) 
-0.431328

>  <r_i_glide_ligand_efficiency_ln>  (143) 
-0.761491

>  <r_i_glide_gscore>  (143) 
-2.96248

>  <r_i_glide_lipo>  (143) 
-0.470126

>  <r_i_glide_hbond>  (143) 
0

>  <r_i_glide_metal>  (143) 
-0

>  <r_i_glide_rewards>  (143) 
-1.74276

>  <r_i_glide_evdw>  (143) 
-9.33343

>  <r_i_glide_ecoul>  (143) 
-1.88617

>  <r_i_glide_erotb>  (143) 
0

>  <r_i_glide_esite>  (143) 
0

>  <r_i_glide_emodel>  (143) 
-10.5416

>  <r_i_glide_energy>  (143) 
-11.2196

>  <r_i_glide_einternal>  (143) 
0

>  <r_i_glide_intrahb_reward>  (143) 
-0

>  <i_i_glide_confnum>  (143) 
2

>  <i_i_glide_posenum>  (143) 
26

>  <r_i_glide_eff_state_penalty>  (143) 
0

>  <ligand_id>  (143) 
50

>  <original_smiles>  (143) 
CC12CCC3C(CC4C5CC6C4C63C1C5)[N+]2(C)C

>  <smiles>  (143) 
[H]C([H])([H])C12C([H])([H])C([H])([H])C3([H])C45C6([H])C([H])([H])C([H])(C([H])([H])C41[H])C([H])(C([H])([H])C3([H])[N+]2(C([H])([H])[H])C([H])([H])[H])C65[H]

$$$$
52:0:0
     RDKit          3D

 30 32  0  0  1  0  0  0  0  0999 V2000
   -2.9688    3.5008   10.7069 C   0  0  0  0  0  0  0  0  0  0  0  0
   -1.5029    3.3880   10.8967 N   0  0  1  0  0  0  0  0  0  0  0  0
   -1.0062    2.0437   11.2747 C   0  0  0  0  0  0  0  0  0  0  0  0
    0.1380    1.7937   10.2612 C   0  0  2  0  0  0  0  0  0  0  0  0
    0.7045    3.2052   10.1059 C   0  0  0  0  0  0  0  0  0  0  0  0
   -0.6582    3.7509    9.7352 C   0  0  1  0  0  0  0  0  0  0  0  0
   -0.9691    2.8389    8.5358 C   0  0  0  0  0  0  0  0  0  0  0  0
   -0.5056    1.5075    8.9651 N   0  0  0  0  0  0  0  0  0  0  0  0
    0.3936    0.8718    7.9952 C   0  0  0  0  0  0  0  0  0  0  0  0
   -0.2737    0.4766    6.7073 C   0  0  0  0  0  0  0  0  0  0  0  0
   -0.5399   -0.7962    6.2565 C   0  0  0  0  0  0  0  0  0  0  0  0
   -1.2154   -0.8452    5.0343 N   0  0  0  0  0  0  0  0  0  0  0  0
   -1.3805    0.3725    4.5153 C   0  0  0  0  0  0  0  0  0  0  0  0
   -0.7608    1.6672    5.5179 S   0  0  0  0  0  0  0  0  0  0  0  0
   -3.3553    2.7628   10.0025 H   0  0  0  0  0  0  0  0  0  0  0  0
   -3.2242    4.4967   10.3433 H   0  0  0  0  0  0  0  0  0  0  0  0
   -3.4803    3.3495   11.6572 H   0  0  0  0  0  0  0  0  0  0  0  0
   -0.6281    2.0758   12.2961 H   0  0  0  0  0  0  0  0  0  0  0  0
   -1.7852    1.2867   11.2352 H   0  0  0  0  0  0  0  0  0  0  0  0
    0.8521    1.0344   10.5913 H   0  0  0  0  0  0  0  0  0  0  0  0
    1.0884    3.6224   11.0406 H   0  0  0  0  0  0  0  0  0  0  0  0
    1.4623    3.3094    9.3231 H   0  0  0  0  0  0  0  0  0  0  0  0
   -0.6759    4.8130    9.4918 H   0  0  0  0  0  0  0  0  0  0  0  0
   -2.0198    2.8241    8.2390 H   0  0  0  0  0  0  0  0  0  0  0  0
   -0.3842    3.2156    7.6952 H   0  0  0  0  0  0  0  0  0  0  0  0
    1.2520    1.5104    7.7866 H   0  0  0  0  0  0  0  0  0  0  0  0
    0.7980   -0.0253    8.4662 H   0  0  0  0  0  0  0  0  0  0  0  0
   -0.3063   -1.7266    6.7594 H   0  0  0  0  0  0  0  0  0  0  0  0
   -1.8600    0.5271    3.5581 H   0  0  0  0  0  0  0  0  0  0  0  0
   -1.2530    4.0082   11.6557 H   0  0  0  0  0  0  0  0  0  0  0  0
  1  2  1  0
  1 15  1  0
  1 16  1  0
  1 17  1  0
  2  6  1  0
  2  3  1  0
  2 30  1  1
  3  4  1  0
  3 18  1  0
  3 19  1  0
  4  8  1  0
  4  5  1  0
  4 20  1  1
  5  6  1  0
  5 21  1  0
  5 22  1  0
  6  7  1  0
  6 23  1  6
  7  8  1  0
  7 24  1  0
  7 25  1  0
  8  9  1  0
  9 10  1  0
  9 26  1  0
  9 27  1  0
 10 14  1  0
 10 11  2  0
 11 12  1  0
 11 28  1  0
 12 13  2  0
 13 14  1  0
 13 29  1  0
M  CHG  1   2   1
M  END
>  <i_m_ct_stereo_status>  (144) 
1

>  <s_m_source_file>  (144) 
/var/tmp/pbs.5076255.sched01/tmpaqd8m8vp/41rn73ajce.sdf

>  <i_m_source_file_index>  (144) 
29

>  <i_lp_mmshare_version>  (144) 
48012

>  <i_f3d_flags>  (144) 
0

>  <s_epik_input>  (144) 
W0NAQEhdMTJbQ0gyXU4oW0NIM10pW0NAQEhdKFtDSDJdMSlbQ0gyXU4yW0NIMl1jM1tjSF1uW2NIXXMz

>  <s_epik_cmdline>  (144) 
J2VwaWtfcHl0aG9uJywgJy1waHQnLCAnMi4wJywgJy1waCcsICc3LjAnLCAnLXRuJywgJzgnLCAnLW1hJywgJzIwMCcsICctaW1hZScsICc8aW5maWxlLm1hZT4nLCAnLW9tYWUnLCAnPG91dGZpbGUubWFlPic=

>  <r_epik_Ionization_Penalty>  (144) 
0.0030164

>  <r_epik_Ionization_Penalty_Charging>  (144) 
0.00300096

>  <r_epik_Ionization_Penalty_Neutral>  (144) 
1.5443e-05

>  <r_epik_State_Penalty>  (144) 
0.00542396

>  <r_epik_Charging_Adjusted_Penalty>  (144) 
0.00842492

>  <i_epik_Tot_Q>  (144) 
1

>  <i_epik_Tot_abs_Q>  (144) 
1

>  <s_lp_Force_Field>  (144) 
OPLS3e

>  <r_lp_Energy>  (144) 
39.8377

>  <b_lp_Chiralities_Consistent>  (144) 
1

>  <s_lp_Variant>  (144) 
52:0-1

>  <s_i_glide_gridfile>  (144) 
pfpi4k_grid

>  <i_i_glide_lignum>  (144) 
29

>  <i_i_glide_rotatable_bonds>  (144) 
2

>  <r_i_docking_score>  (144) 
-2.46981

>  <r_i_glide_ligand_efficiency>  (144) 
-0.176415

>  <r_i_glide_ligand_efficiency_sa>  (144) 
-0.425186

>  <r_i_glide_ligand_efficiency_ln>  (144) 
-0.678696

>  <r_i_glide_gscore>  (144) 
-2.46981

>  <r_i_glide_lipo>  (144) 
0

>  <r_i_glide_hbond>  (144) 
0

>  <r_i_glide_metal>  (144) 
-0

>  <r_i_glide_rewards>  (144) 
-1.97509

>  <r_i_glide_evdw>  (144) 
-11.0794

>  <r_i_glide_ecoul>  (144) 
-4.11803

>  <r_i_glide_erotb>  (144) 
0.750767

>  <r_i_glide_esite>  (144) 
-0.0738143

>  <r_i_glide_emodel>  (144) 
-18.0012

>  <r_i_glide_energy>  (144) 
-15.1975

>  <r_i_glide_einternal>  (144) 
0.849833

>  <r_i_glide_intrahb_reward>  (144) 
-0

>  <i_i_glide_confnum>  (144) 
1

>  <i_i_glide_posenum>  (144) 
1

>  <r_i_glide_eff_state_penalty>  (144) 
0

>  <ligand_id>  (144) 
52

>  <original_smiles>  (144) 
CN1CC2CC1CN2Cc1cncs1

>  <smiles>  (144) 
[H]c1nc([H])c(C([H])([H])N2C([H])([H])C3([H])C([H])([H])C2([H])C([H])([H])[N+]3([H])C([H])([H])[H])s1

$$$$
52:0:1
     RDKit          3D

 30 32  0  0  1  0  0  0  0  0999 V2000
   -3.1703    2.9145   10.3772 C   0  0  0  0  0  0  0  0  0  0  0  0
   -1.7221    3.2117   10.3625 N   0  0  1  0  0  0  0  0  0  0  0  0
   -0.8354    2.0482   10.1250 C   0  0  0  0  0  0  0  0  0  0  0  0
    0.0837    2.5297    8.9765 C   0  0  2  0  0  0  0  0  0  0  0  0
    0.2277    4.0125    9.3207 C   0  0  0  0  0  0  0  0  0  0  0  0
   -1.2751    4.1931    9.3483 C   0  0  1  0  0  0  0  0  0  0  0  0
   -1.6093    3.6937    7.9329 C   0  0  0  0  0  0  0  0  0  0  0  0
   -0.7383    2.5199    7.7515 N   0  0  0  0  0  0  0  0  0  0  0  0
    0.0645    2.5743    6.5241 C   0  0  0  0  0  0  0  0  0  0  0  0
   -0.7442    2.7463    5.2730 C   0  0  0  0  0  0  0  0  0  0  0  0
   -1.2166    3.9254    4.7445 C   0  0  0  0  0  0  0  0  0  0  0  0
   -1.9983    3.7818    3.6008 N   0  0  0  0  0  0  0  0  0  0  0  0
   -2.0326    2.5112    3.2000 C   0  0  0  0  0  0  0  0  0  0  0  0
   -1.1873    1.3897    4.2657 S   0  0  0  0  0  0  0  0  0  0  0  0
   -3.4963    2.3741    9.4894 H   0  0  0  0  0  0  0  0  0  0  0  0
   -3.7554    3.8245   10.4678 H   0  0  0  0  0  0  0  0  0  0  0  0
   -3.3860    2.3023   11.2416 H   0  0  0  0  0  0  0  0  0  0  0  0
   -0.2676    1.8441   11.0340 H   0  0  0  0  0  0  0  0  0  0  0  0
   -1.3784    1.1474    9.8507 H   0  0  0  0  0  0  0  0  0  0  0  0
    1.0196    1.9688    8.9009 H   0  0  0  0  0  0  0  0  0  0  0  0
    0.6920    4.1884   10.2944 H   0  0  0  0  0  0  0  0  0  0  0  0
    0.7399    4.6086    8.5592 H   0  0  0  0  0  0  0  0  0  0  0  0
   -1.6157    5.2104    9.5399 H   0  0  0  0  0  0  0  0  0  0  0  0
   -2.6587    3.4399    7.7677 H   0  0  0  0  0  0  0  0  0  0  0  0
   -1.3474    4.5029    7.2551 H   0  0  0  0  0  0  0  0  0  0  0  0
    0.8144    3.3642    6.5838 H   0  0  0  0  0  0  0  0  0  0  0  0
    0.6194    1.6381    6.4584 H   0  0  0  0  0  0  0  0  0  0  0  0
   -1.0796    4.9187    5.1471 H   0  0  0  0  0  0  0  0  0  0  0  0
   -2.5759    2.2242    2.3083 H   0  0  0  0  0  0  0  0  0  0  0  0
   -1.4874    3.5854   11.2758 H   0  0  0  0  0  0  0  0  0  0  0  0
  1  2  1  0
  1 15  1  0
  1 16  1  0
  1 17  1  0
  2  6  1  0
  2  3  1  0
  2 30  1  1
  3  4  1  0
  3 18  1  0
  3 19  1  0
  4  8  1  0
  4  5  1  0
  4 20  1  6
  5  6  1  0
  5 21  1  0
  5 22  1  0
  6  7  1  0
  6 23  1  1
  7  8  1  0
  7 24  1  0
  7 25  1  0
  8  9  1  0
  9 10  1  0
  9 26  1  0
  9 27  1  0
 10 14  1  0
 10 11  2  0
 11 12  1  0
 11 28  1  0
 12 13  2  0
 13 14  1  0
 13 29  1  0
M  CHG  1   2   1
M  END
>  <i_m_ct_stereo_status>  (145) 
1

>  <s_m_source_file>  (145) 
/var/tmp/pbs.5076255.sched01/tmpaqd8m8vp/41rn73ajce.sdf

>  <i_m_source_file_index>  (145) 
29

>  <i_lp_mmshare_version>  (145) 
48012

>  <i_f3d_flags>  (145) 
0

>  <s_epik_input>  (145) 
W0NAQEhdMTJbQ0gyXU4oW0NIM10pW0NAQEhdKFtDSDJdMSlbQ0gyXU4yW0NIMl1jM1tjSF1uW2NIXXMz

>  <s_epik_cmdline>  (145) 
J2VwaWtfcHl0aG9uJywgJy1waHQnLCAnMi4wJywgJy1waCcsICc3LjAnLCAnLXRuJywgJzgnLCAnLW1hJywgJzIwMCcsICctaW1hZScsICc8aW5maWxlLm1hZT4nLCAnLW9tYWUnLCAnPG91dGZpbGUubWFlPic=

>  <r_epik_Ionization_Penalty>  (145) 
0.0030164

>  <r_epik_Ionization_Penalty_Charging>  (145) 
0.00300096

>  <r_epik_Ionization_Penalty_Neutral>  (145) 
1.5443e-05

>  <r_epik_State_Penalty>  (145) 
0.00542396

>  <r_epik_Charging_Adjusted_Penalty>  (145) 
0.00842492

>  <i_epik_Tot_Q>  (145) 
1

>  <i_epik_Tot_abs_Q>  (145) 
1

>  <s_lp_Force_Field>  (145) 
OPLS3e

>  <r_lp_Energy>  (145) 
39.8377

>  <b_lp_Chiralities_Consistent>  (145) 
1

>  <s_lp_Variant>  (145) 
52:0-1

>  <s_i_glide_gridfile>  (145) 
pfpi4k_grid

>  <i_i_glide_lignum>  (145) 
29

>  <i_i_glide_rotatable_bonds>  (145) 
2

>  <r_i_docking_score>  (145) 
-2.35185

>  <r_i_glide_ligand_efficiency>  (145) 
-0.167989

>  <r_i_glide_ligand_efficiency_sa>  (145) 
-0.404879

>  <r_i_glide_ligand_efficiency_ln>  (145) 
-0.646281

>  <r_i_glide_gscore>  (145) 
-2.35185

>  <r_i_glide_lipo>  (145) 
-0.010344

>  <r_i_glide_hbond>  (145) 
0

>  <r_i_glide_metal>  (145) 
-0

>  <r_i_glide_rewards>  (145) 
-1.97509

>  <r_i_glide_evdw>  (145) 
-11.3711

>  <r_i_glide_ecoul>  (145) 
-3.2773

>  <r_i_glide_erotb>  (145) 
0.750767

>  <r_i_glide_esite>  (145) 
-0.0570374

>  <r_i_glide_emodel>  (145) 
-16.991

>  <r_i_glide_energy>  (145) 
-14.6484

>  <r_i_glide_einternal>  (145) 
1.1985

>  <r_i_glide_intrahb_reward>  (145) 
-0

>  <i_i_glide_confnum>  (145) 
2

>  <i_i_glide_posenum>  (145) 
34

>  <r_i_glide_eff_state_penalty>  (145) 
0

>  <ligand_id>  (145) 
52

>  <original_smiles>  (145) 
CN1CC2CC1CN2Cc1cncs1

>  <smiles>  (145) 
[H]c1nc([H])c(C([H])([H])N2C([H])([H])C3([H])C([H])([H])C2([H])C([H])([H])[N+]3([H])C([H])([H])[H])s1

$$$$
52:0:2
     RDKit          3D

 30 32  0  0  1  0  0  0  0  0999 V2000
   -3.0854    2.8561   10.0026 C   0  0  0  0  0  0  0  0  0  0  0  0
   -1.6652    3.2548   10.1145 N   0  0  1  0  0  0  0  0  0  0  0  0
   -0.6843    2.1448   10.0903 C   0  0  0  0  0  0  0  0  0  0  0  0
    0.3430    2.6074    9.0306 C   0  0  2  0  0  0  0  0  0  0  0  0
    0.3462    4.1163    9.2547 C   0  0  0  0  0  0  0  0  0  0  0  0
   -1.1569    4.1825    9.0716 C   0  0  1  0  0  0  0  0  0  0  0  0
   -1.2696    3.5454    7.6667 C   0  0  0  0  0  0  0  0  0  0  0  0
   -0.3134    2.4264    7.7252 N   0  0  0  0  0  0  0  0  0  0  0  0
    0.6287    2.4336    6.6046 C   0  0  0  0  0  0  0  0  0  0  0  0
   -0.0107    2.1154    5.2935 C   0  0  0  0  0  0  0  0  0  0  0  0
   -0.4167    0.8838    4.8348 C   0  0  0  0  0  0  0  0  0  0  0  0
   -0.9851    0.9099    3.5606 N   0  0  0  0  0  0  0  0  0  0  0  0
   -0.9880    2.1416    3.0474 C   0  0  0  0  0  0  0  0  0  0  0  0
   -0.3004    3.3637    4.1039 S   0  0  0  0  0  0  0  0  0  0  0  0
   -3.2653    2.2370    9.1259 H   0  0  0  0  0  0  0  0  0  0  0  0
   -3.7307    3.7332    9.9526 H   0  0  0  0  0  0  0  0  0  0  0  0
   -3.3736    2.2788   10.8785 H   0  0  0  0  0  0  0  0  0  0  0  0
   -0.2267    2.0528   11.0772 H   0  0  0  0  0  0  0  0  0  0  0  0
   -1.1272    1.1833    9.8359 H   0  0  0  0  0  0  0  0  0  0  0  0
    1.3119    2.1116    9.1213 H   0  0  0  0  0  0  0  0  0  0  0  0
    0.6683    4.3983   10.2608 H   0  0  0  0  0  0  0  0  0  0  0  0
    0.9168    4.6849    8.5151 H   0  0  0  0  0  0  0  0  0  0  0  0
   -1.5793    5.1861    9.1415 H   0  0  0  0  0  0  0  0  0  0  0  0
   -2.2747    3.2059    7.4115 H   0  0  0  0  0  0  0  0  0  0  0  0
   -0.9723    4.2820    6.9167 H   0  0  0  0  0  0  0  0  0  0  0  0
    1.1483    3.3907    6.5387 H   0  0  0  0  0  0  0  0  0  0  0  0
    1.3985    1.6855    6.7998 H   0  0  0  0  0  0  0  0  0  0  0  0
   -0.3451   -0.0612    5.3544 H   0  0  0  0  0  0  0  0  0  0  0  0
   -1.3988    2.3297    2.0687 H   0  0  0  0  0  0  0  0  0  0  0  0
   -1.5619    3.7151   11.0114 H   0  0  0  0  0  0  0  0  0  0  0  0
  1  2  1  0
  1 15  1  0
  1 16  1  0
  1 17  1  0
  2  6  1  0
  2  3  1  0
  2 30  1  1
  3  4  1  0
  3 18  1  0
  3 19  1  0
  4  8  1  0
  4  5  1  0
  4 20  1  6
  5  6  1  0
  5 21  1  0
  5 22  1  0
  6  7  1  0
  6 23  1  6
  7  8  1  0
  7 24  1  0
  7 25  1  0
  8  9  1  0
  9 10  1  0
  9 26  1  0
  9 27  1  0
 10 14  1  0
 10 11  2  0
 11 12  1  0
 11 28  1  0
 12 13  2  0
 13 14  1  0
 13 29  1  0
M  CHG  1   2   1
M  END
>  <i_m_ct_stereo_status>  (146) 
1

>  <s_m_source_file>  (146) 
/var/tmp/pbs.5076255.sched01/tmpaqd8m8vp/41rn73ajce.sdf

>  <i_m_source_file_index>  (146) 
29

>  <i_lp_mmshare_version>  (146) 
48012

>  <i_f3d_flags>  (146) 
0

>  <s_epik_input>  (146) 
W0NAQEhdMTJbQ0gyXU4oW0NIM10pW0NAQEhdKFtDSDJdMSlbQ0gyXU4yW0NIMl1jM1tjSF1uW2NIXXMz

>  <s_epik_cmdline>  (146) 
J2VwaWtfcHl0aG9uJywgJy1waHQnLCAnMi4wJywgJy1waCcsICc3LjAnLCAnLXRuJywgJzgnLCAnLW1hJywgJzIwMCcsICctaW1hZScsICc8aW5maWxlLm1hZT4nLCAnLW9tYWUnLCAnPG91dGZpbGUubWFlPic=

>  <r_epik_Ionization_Penalty>  (146) 
0.0030164

>  <r_epik_Ionization_Penalty_Charging>  (146) 
0.00300096

>  <r_epik_Ionization_Penalty_Neutral>  (146) 
1.5443e-05

>  <r_epik_State_Penalty>  (146) 
0.00542396

>  <r_epik_Charging_Adjusted_Penalty>  (146) 
0.00842492

>  <i_epik_Tot_Q>  (146) 
1

>  <i_epik_Tot_abs_Q>  (146) 
1

>  <s_lp_Force_Field>  (146) 
OPLS3e

>  <r_lp_Energy>  (146) 
39.8377

>  <b_lp_Chiralities_Consistent>  (146) 
1

>  <s_lp_Variant>  (146) 
52:0-1

>  <s_i_glide_gridfile>  (146) 
pfpi4k_grid

>  <i_i_glide_lignum>  (146) 
29

>  <i_i_glide_rotatable_bonds>  (146) 
2

>  <r_i_docking_score>  (146) 
-2.03136

>  <r_i_glide_ligand_efficiency>  (146) 
-0.145097

>  <r_i_glide_ligand_efficiency_sa>  (146) 
-0.349705

>  <r_i_glide_ligand_efficiency_ln>  (146) 
-0.558211

>  <r_i_glide_gscore>  (146) 
-2.03136

>  <r_i_glide_lipo>  (146) 
-0.0127151

>  <r_i_glide_hbond>  (146) 
0

>  <r_i_glide_metal>  (146) 
-0

>  <r_i_glide_rewards>  (146) 
-1.97509

>  <r_i_glide_evdw>  (146) 
-11.973

>  <r_i_glide_ecoul>  (146) 
-1.00304

>  <r_i_glide_erotb>  (146) 
0.750767

>  <r_i_glide_esite>  (146) 
-0.0452158

>  <r_i_glide_emodel>  (146) 
-15.785

>  <r_i_glide_energy>  (146) 
-12.9761

>  <r_i_glide_einternal>  (146) 
0.0859795

>  <r_i_glide_intrahb_reward>  (146) 
-0

>  <i_i_glide_confnum>  (146) 
2

>  <i_i_glide_posenum>  (146) 
6

>  <r_i_glide_eff_state_penalty>  (146) 
0

>  <ligand_id>  (146) 
52

>  <original_smiles>  (146) 
CN1CC2CC1CN2Cc1cncs1

>  <smiles>  (146) 
[H]c1nc([H])c(C([H])([H])N2C([H])([H])C3([H])C([H])([H])C2([H])C([H])([H])[N+]3([H])C([H])([H])[H])s1

$$$$
55:0:0
     RDKit          3D

 62 67  0  0  1  0  0  0  0  0999 V2000
    5.4074    0.0521    4.4622 C   0  0  0  0  0  0  0  0  0  0  0  0
    3.9556   -0.2681    4.8791 C   0  0  0  0  0  0  0  0  0  0  0  0
    3.6441    0.4402    6.2082 C   0  0  0  0  0  0  0  0  0  0  0  0
    2.9438    0.1052    3.7877 C   0  0  0  0  0  0  0  0  0  0  0  0
    3.0724   -0.7572    2.5080 C   0  0  0  0  0  0  0  0  0  0  0  0
    3.7219   -2.1721    2.6430 C   0  0  2  0  0  0  0  0  0  0  0  0
    4.5246   -2.4214    1.3070 C   0  0  2  0  0  0  0  0  0  0  0  0
    3.5873   -2.2982    0.0337 C   0  0  2  0  0  0  0  0  0  0  0  0
    2.2513   -2.6643    0.3035 O   0  0  0  0  0  0  0  0  0  0  0  0
    3.9635   -3.1142   -1.2174 C   0  0  2  0  0  0  0  0  0  0  0  0
    5.3565   -3.1595   -1.7961 C   0  0  2  0  0  0  0  0  0  0  0  0
    6.4599   -2.4895   -1.0089 C   0  0  0  0  0  0  0  0  0  0  0  0
    6.7435   -3.2535    0.2970 C   0  0  0  0  0  0  0  0  0  0  0  0
    5.5108   -3.6051    1.1414 C   0  0  1  0  0  0  0  0  0  0  0  0
    5.8853   -4.4401    2.2406 O   0  0  0  0  0  0  0  0  0  0  0  0
    5.0206   -5.0196    1.2677 C   0  0  1  0  0  0  0  0  0  0  0  0
    3.6188   -5.3591    1.7412 C   0  0  1  0  0  0  0  0  0  0  0  0
    3.4401   -6.7626    1.6990 O   0  0  0  0  0  0  0  0  0  0  0  0
    3.1929   -4.8586    3.1499 C   0  0  1  0  0  0  0  0  0  0  0  0
    3.9444   -5.4788    4.1808 O   0  0  0  0  0  0  0  0  0  0  0  0
    3.0129   -3.3313    3.4010 C   0  0  2  0  0  0  0  0  0  0  0  0
    1.5660   -3.1235    3.8459 C   0  0  0  0  0  0  0  0  0  0  0  0
    4.1338   -2.5139    4.0774 C   0  0  1  0  0  0  0  0  0  0  0  0
    5.4084   -3.0565    4.3155 O   0  0  0  0  0  0  0  0  0  0  0  0
    3.6954   -1.6443    5.1084 O   0  0  0  0  0  0  0  0  0  0  0  0
    4.2597   -2.4612   -2.5629 C   0  0  0  0  0  0  0  0  0  0  0  0
    3.7421   -3.1195   -3.8239 C   0  0  0  0  0  0  0  0  0  0  0  0
    4.2563   -0.9605   -2.7477 C   0  0  0  0  0  0  0  0  0  0  0  0
    5.5534    1.1293    4.3968 H   0  0  0  0  0  0  0  0  0  0  0  0
    5.6580   -0.3602    3.4855 H   0  0  0  0  0  0  0  0  0  0  0  0
    6.1272   -0.3372    5.1842 H   0  0  0  0  0  0  0  0  0  0  0  0
    3.7560    1.5234    6.1344 H   0  0  0  0  0  0  0  0  0  0  0  0
    4.3212    0.0994    6.9922 H   0  0  0  0  0  0  0  0  0  0  0  0
    2.6301    0.2326    6.5450 H   0  0  0  0  0  0  0  0  0  0  0  0
    1.9369    0.0036    4.1966 H   0  0  0  0  0  0  0  0  0  0  0  0
    3.0419    1.1602    3.5319 H   0  0  0  0  0  0  0  0  0  0  0  0
    2.0812   -0.8557    2.0619 H   0  0  0  0  0  0  0  0  0  0  0  0
    3.6355   -0.1622    1.7899 H   0  0  0  0  0  0  0  0  0  0  0  0
    5.1949   -1.5607    1.2619 H   0  0  0  0  0  0  0  0  0  0  0  0
    3.5435   -1.2490   -0.2427 H   0  0  0  0  0  0  0  0  0  0  0  0
    1.7012   -2.0228   -0.1651 H   0  0  0  0  0  0  0  0  0  0  0  0
    3.4744   -4.0897   -1.2567 H   0  0  0  0  0  0  0  0  0  0  0  0
    5.6639   -4.1261   -2.1958 H   0  0  0  0  0  0  0  0  0  0  0  0
    7.3578   -2.4587   -1.6287 H   0  0  0  0  0  0  0  0  0  0  0  0
    6.1887   -1.4648   -0.7716 H   0  0  0  0  0  0  0  0  0  0  0  0
    7.2621   -4.1835    0.0642 H   0  0  0  0  0  0  0  0  0  0  0  0
    7.4224   -2.6733    0.9233 H   0  0  0  0  0  0  0  0  0  0  0  0
    5.4755   -5.7569    0.6039 H   0  0  0  0  0  0  0  0  0  0  0  0
    2.9361   -4.9660    0.9946 H   0  0  0  0  0  0  0  0  0  0  0  0
    4.1348   -7.1762    2.1910 H   0  0  0  0  0  0  0  0  0  0  0  0
    2.2054   -5.3044    3.2748 H   0  0  0  0  0  0  0  0  0  0  0  0
    3.8816   -6.4145    4.0585 H   0  0  0  0  0  0  0  0  0  0  0  0
    1.3168   -3.7819    4.6758 H   0  0  0  0  0  0  0  0  0  0  0  0
    0.8906   -3.3324    3.0205 H   0  0  0  0  0  0  0  0  0  0  0  0
    1.3832   -2.1083    4.1759 H   0  0  0  0  0  0  0  0  0  0  0  0
    5.2951   -3.7694    4.9295 H   0  0  0  0  0  0  0  0  0  0  0  0
    4.3750   -2.8550   -4.6653 H   0  0  0  0  0  0  0  0  0  0  0  0
    2.7205   -2.8002   -4.0301 H   0  0  0  0  0  0  0  0  0  0  0  0
    3.7561   -4.2023   -3.7240 H   0  0  0  0  0  0  0  0  0  0  0  0
    4.8656   -0.7082   -3.6122 H   0  0  0  0  0  0  0  0  0  0  0  0
    4.6675   -0.4424   -1.8810 H   0  0  0  0  0  0  0  0  0  0  0  0
    3.2373   -0.6065   -2.9113 H   0  0  0  0  0  0  0  0  0  0  0  0
  1  2  1  0
  1 29  1  0
  1 30  1  0
  1 31  1  0
  2 25  1  0
  2  3  1  0
  2  4  1  0
  3 32  1  0
  3 33  1  0
  3 34  1  0
  4  5  1  0
  4 35  1  0
  4 36  1  0
  6  5  1  1
  5 37  1  0
  5 38  1  0
  6 21  1  0
  6 23  1  0
  6  7  1  0
  7 14  1  0
  7  8  1  0
  7 39  1  6
  8  9  1  0
  8 10  1  0
  8 40  1  6
  9 41  1  0
 10 26  1  0
 10 11  1  0
 10 42  1  6
 11 12  1  0
 11 26  1  0
 11 43  1  6
 12 13  1  0
 12 44  1  0
 12 45  1  0
 13 14  1  0
 13 46  1  0
 13 47  1  0
 14 16  1  0
 14 15  1  1
 15 16  1  0
 16 17  1  0
 16 48  1  6
 17 18  1  0
 17 19  1  0
 17 49  1  6
 18 50  1  0
 19 20  1  0
 19 21  1  0
 19 51  1  1
 20 52  1  0
 21 22  1  1
 21 23  1  0
 22 53  1  0
 22 54  1  0
 22 55  1  0
 23 24  1  6
 23 25  1  0
 24 56  1  0
 26 27  1  0
 26 28  1  0
 27 57  1  0
 27 58  1  0
 27 59  1  0
 28 60  1  0
 28 61  1  0
 28 62  1  0
M  END
>  <i_m_ct_stereo_status>  (147) 
1

>  <s_m_source_file>  (147) 
/var/tmp/pbs.5076255.sched01/tmpaqd8m8vp/41rn73ajce.sdf

>  <i_m_source_file_index>  (147) 
32

>  <i_lp_mmshare_version>  (147) 
48012

>  <i_f3d_flags>  (147) 
0

>  <s_epik_input>  (147) 
W0NIMl0xW0NIMl1DKFtDSDNdKShbQ0gzXSlPW0NAQF0yKFtPSF0pW0NAXTMoW0NIM10pW0NASF0oW09IXSlbQ0BIXShbT0hdKVtDQEhdKE80KVtDQF00KFtDQEBIXTVbQ0BdMTIzKVtDSDJdW0NIMl1bQ0BIXTZbQ0BASF0oW0NIXTVbT0hdKUM2KFtDSDNdKVtDSDNd

>  <s_epik_cmdline>  (147) 
J2VwaWtfcHl0aG9uJywgJy1waHQnLCAnMi4wJywgJy1waCcsICc3LjAnLCAnLXRuJywgJzgnLCAnLW1hJywgJzIwMCcsICctaW1hZScsICc8aW5maWxlLm1hZT4nLCAnLW9tYWUnLCAnPG91dGZpbGUubWFlPic=

>  <r_lp_tautomer_probability>  (147) 
1

>  <r_epik_Ionization_Penalty>  (147) 
9.48597e-07

>  <r_epik_Ionization_Penalty_Charging>  (147) 
0

>  <r_epik_Ionization_Penalty_Neutral>  (147) 
9.48597e-07

>  <r_epik_State_Penalty>  (147) 
-0

>  <r_epik_Charging_Adjusted_Penalty>  (147) 
0

>  <i_epik_Tot_Q>  (147) 
0

>  <i_epik_Tot_abs_Q>  (147) 
0

>  <s_lp_Force_Field>  (147) 
OPLS3e

>  <r_lp_Energy>  (147) 
67.9508

>  <b_lp_Chiralities_Consistent>  (147) 
1

>  <s_lp_Variant>  (147) 
55:0-1

>  <s_i_glide_gridfile>  (147) 
pfpi4k_grid

>  <i_i_glide_lignum>  (147) 
32

>  <i_i_glide_rotatable_bonds>  (147) 
4

>  <r_i_docking_score>  (147) 
-3.61688

>  <r_i_glide_ligand_efficiency>  (147) 
-0.129174

>  <r_i_glide_ligand_efficiency_sa>  (147) 
-0.392249

>  <r_i_glide_ligand_efficiency_ln>  (147) 
-0.834882

>  <r_i_glide_gscore>  (147) 
-3.61688

>  <r_i_glide_lipo>  (147) 
-0.679938

>  <r_i_glide_hbond>  (147) 
-0.181595

>  <r_i_glide_metal>  (147) 
-0

>  <r_i_glide_rewards>  (147) 
-0.72062

>  <r_i_glide_evdw>  (147) 
-24.3851

>  <r_i_glide_ecoul>  (147) 
-5.43647

>  <r_i_glide_erotb>  (147) 
0

>  <r_i_glide_esite>  (147) 
0

>  <r_i_glide_emodel>  (147) 
-35.894

>  <r_i_glide_energy>  (147) 
-29.8216

>  <r_i_glide_einternal>  (147) 
1.3523

>  <r_i_glide_intrahb_reward>  (147) 
-0

>  <i_i_glide_confnum>  (147) 
2

>  <i_i_glide_posenum>  (147) 
1

>  <r_i_glide_eff_state_penalty>  (147) 
0

>  <ligand_id>  (147) 
55

>  <original_smiles>  (147) 
CC1(C)CCC23C4C(O)C5C(CCC46OC6C(O)C(O)C2(C)C3(O)O1)C5(C)C

>  <smiles>  (147) 
[H]OC1([H])C2([H])OC23C([H])([H])C([H])([H])C2([H])C([H])(C([H])(O[H])C3([H])C34C([H])([H])C([H])([H])C(C([H])([H])[H])(C([H])([H])[H])OC3(O[H])C4(C([H])([H])[H])C1([H])O[H])C2(C([H])([H])[H])C([H])([H])[H]

$$$$
55:0:1
     RDKit          3D

 62 67  0  0  1  0  0  0  0  0999 V2000
    2.2253   -3.1613   -2.0793 C   0  0  0  0  0  0  0  0  0  0  0  0
    3.7069   -2.7938   -2.3376 C   0  0  0  0  0  0  0  0  0  0  0  0
    3.9570   -2.7763   -3.8463 C   0  0  0  0  0  0  0  0  0  0  0  0
    4.1015   -1.4683   -1.6752 C   0  0  0  0  0  0  0  0  0  0  0  0
    4.0897   -1.5254   -0.1266 C   0  0  0  0  0  0  0  0  0  0  0  0
    4.2609   -2.9147    0.5621 C   0  0  2  0  0  0  0  0  0  0  0  0
    3.3737   -2.8900    1.8657 C   0  0  2  0  0  0  0  0  0  0  0  0
    3.7667   -1.6941    2.8265 C   0  0  2  0  0  0  0  0  0  0  0  0
    5.1420   -1.3590    2.7417 O   0  0  0  0  0  0  0  0  0  0  0  0
    3.5229   -1.8709    4.3371 C   0  0  2  0  0  0  0  0  0  0  0  0
    2.2245   -2.3798    4.9122 C   0  0  2  0  0  0  0  0  0  0  0  0
    1.1809   -2.8861    3.9473 C   0  0  0  0  0  0  0  0  0  0  0  0
    1.6494   -4.1923    3.2836 C   0  0  0  0  0  0  0  0  0  0  0  0
    3.0567   -4.1714    2.6872 C   0  0  1  0  0  0  0  0  0  0  0  0
    3.4043   -5.4722    2.2126 O   0  0  0  0  0  0  0  0  0  0  0  0
    4.1685   -4.9688    3.2982 C   0  0  1  0  0  0  0  0  0  0  0  0
    5.6214   -4.6659    3.0193 C   0  0  1  0  0  0  0  0  0  0  0  0
    6.3998   -5.5385    3.8127 O   0  0  0  0  0  0  0  0  0  0  0  0
    6.1142   -4.7434    1.5492 C   0  0  1  0  0  0  0  0  0  0  0  0
    6.0981   -6.0743    1.0699 O   0  0  0  0  0  0  0  0  0  0  0  0
    5.6012   -3.7079    0.5060 C   0  0  2  0  0  0  0  0  0  0  0  0
    6.8297   -2.9905   -0.0546 C   0  0  0  0  0  0  0  0  0  0  0  0
    4.4470   -4.0500   -0.4534 C   0  0  1  0  0  0  0  0  0  0  0  0
    3.6174   -5.1613   -0.3128 O   0  0  0  0  0  0  0  0  0  0  0  0
    4.6671   -3.6954   -1.8085 O   0  0  0  0  0  0  0  0  0  0  0  0
    2.6132   -0.9372    5.1306 C   0  0  0  0  0  0  0  0  0  0  0  0
    3.0485   -0.5116    6.5191 C   0  0  0  0  0  0  0  0  0  0  0  0
    1.8326    0.1895    4.4749 C   0  0  0  0  0  0  0  0  0  0  0  0
    1.5646   -2.4685   -2.5990 H   0  0  0  0  0  0  0  0  0  0  0  0
    1.9702   -3.1061   -1.0202 H   0  0  0  0  0  0  0  0  0  0  0  0
    1.9640   -4.1612   -2.4314 H   0  0  0  0  0  0  0  0  0  0  0  0
    3.3244   -2.0494   -4.3552 H   0  0  0  0  0  0  0  0  0  0  0  0
    3.7547   -3.7539   -4.2852 H   0  0  0  0  0  0  0  0  0  0  0  0
    4.9951   -2.5310   -4.0425 H   0  0  0  0  0  0  0  0  0  0  0  0
    5.0960   -1.1894   -2.0237 H   0  0  0  0  0  0  0  0  0  0  0  0
    3.4423   -0.6741   -2.0246 H   0  0  0  0  0  0  0  0  0  0  0  0
    4.8512   -0.8442    0.2481 H   0  0  0  0  0  0  0  0  0  0  0  0
    3.1412   -1.0836    0.1781 H   0  0  0  0  0  0  0  0  0  0  0  0
    2.3872   -2.6323    1.4759 H   0  0  0  0  0  0  0  0  0  0  0  0
    3.2374   -0.8092    2.4845 H   0  0  0  0  0  0  0  0  0  0  0  0
    5.2741   -0.5398    3.1952 H   0  0  0  0  0  0  0  0  0  0  0  0
    4.3910   -2.2592    4.8676 H   0  0  0  0  0  0  0  0  0  0  0  0
    2.3243   -3.0210    5.7875 H   0  0  0  0  0  0  0  0  0  0  0  0
    0.2487   -3.0462    4.4919 H   0  0  0  0  0  0  0  0  0  0  0  0
    0.9696   -2.1436    3.1821 H   0  0  0  0  0  0  0  0  0  0  0  0
    1.5973   -5.0007    4.0148 H   0  0  0  0  0  0  0  0  0  0  0  0
    0.9648   -4.4737    2.4868 H   0  0  0  0  0  0  0  0  0  0  0  0
    3.9542   -5.4015    4.2751 H   0  0  0  0  0  0  0  0  0  0  0  0
    5.8137   -3.6701    3.4055 H   0  0  0  0  0  0  0  0  0  0  0  0
    6.1442   -5.4261    4.7166 H   0  0  0  0  0  0  0  0  0  0  0  0
    7.1875   -4.5685    1.6529 H   0  0  0  0  0  0  0  0  0  0  0  0
    6.4668   -6.6110    1.7579 H   0  0  0  0  0  0  0  0  0  0  0  0
    7.5650   -3.7110   -0.4188 H   0  0  0  0  0  0  0  0  0  0  0  0
    7.2895   -2.3751    0.7181 H   0  0  0  0  0  0  0  0  0  0  0  0
    6.5753   -2.3484   -0.8888 H   0  0  0  0  0  0  0  0  0  0  0  0
    3.4100   -5.4422   -1.2069 H   0  0  0  0  0  0  0  0  0  0  0  0
    2.1793   -0.2653    7.1295 H   0  0  0  0  0  0  0  0  0  0  0  0
    3.7002    0.3613    6.4662 H   0  0  0  0  0  0  0  0  0  0  0  0
    3.5936   -1.3168    7.0152 H   0  0  0  0  0  0  0  0  0  0  0  0
    0.9689    0.4478    5.0875 H   0  0  0  0  0  0  0  0  0  0  0  0
    1.4695   -0.0847    3.4872 H   0  0  0  0  0  0  0  0  0  0  0  0
    2.4704    1.0685    4.3683 H   0  0  0  0  0  0  0  0  0  0  0  0
  1  2  1  0
  1 29  1  0
  1 30  1  0
  1 31  1  0
  2 25  1  0
  2  3  1  0
  2  4  1  0
  3 32  1  0
  3 33  1  0
  3 34  1  0
  4  5  1  0
  4 35  1  0
  4 36  1  0
  6  5  1  6
  5 37  1  0
  5 38  1  0
  6 21  1  0
  6 23  1  0
  6  7  1  0
  7 14  1  0
  7  8  1  0
  7 39  1  6
  8  9  1  0
  8 10  1  0
  8 40  1  6
  9 41  1  0
 10 26  1  0
 10 11  1  0
 10 42  1  1
 11 12  1  0
 11 26  1  0
 11 43  1  1
 12 13  1  0
 12 44  1  0
 12 45  1  0
 13 14  1  0
 13 46  1  0
 13 47  1  0
 14 16  1  0
 14 15  1  6
 15 16  1  0
 16 17  1  0
 16 48  1  1
 17 18  1  0
 17 19  1  0
 17 49  1  1
 18 50  1  0
 19 20  1  0
 19 21  1  0
 19 51  1  1
 20 52  1  0
 21 22  1  6
 21 23  1  0
 22 53  1  0
 22 54  1  0
 22 55  1  0
 23 24  1  6
 23 25  1  0
 24 56  1  0
 26 27  1  0
 26 28  1  0
 27 57  1  0
 27 58  1  0
 27 59  1  0
 28 60  1  0
 28 61  1  0
 28 62  1  0
M  END
>  <i_m_ct_stereo_status>  (148) 
1

>  <s_m_source_file>  (148) 
/var/tmp/pbs.5076255.sched01/tmpaqd8m8vp/41rn73ajce.sdf

>  <i_m_source_file_index>  (148) 
32

>  <i_lp_mmshare_version>  (148) 
48012

>  <i_f3d_flags>  (148) 
0

>  <s_epik_input>  (148) 
W0NIMl0xW0NIMl1DKFtDSDNdKShbQ0gzXSlPW0NAQF0yKFtPSF0pW0NAXTMoW0NIM10pW0NASF0oW09IXSlbQ0BIXShbT0hdKVtDQEhdKE80KVtDQF00KFtDQEBIXTVbQ0BdMTIzKVtDSDJdW0NIMl1bQ0BIXTZbQ0BASF0oW0NIXTVbT0hdKUM2KFtDSDNdKVtDSDNd

>  <s_epik_cmdline>  (148) 
J2VwaWtfcHl0aG9uJywgJy1waHQnLCAnMi4wJywgJy1waCcsICc3LjAnLCAnLXRuJywgJzgnLCAnLW1hJywgJzIwMCcsICctaW1hZScsICc8aW5maWxlLm1hZT4nLCAnLW9tYWUnLCAnPG91dGZpbGUubWFlPic=

>  <r_lp_tautomer_probability>  (148) 
1

>  <r_epik_Ionization_Penalty>  (148) 
9.48597e-07

>  <r_epik_Ionization_Penalty_Charging>  (148) 
0

>  <r_epik_Ionization_Penalty_Neutral>  (148) 
9.48597e-07

>  <r_epik_State_Penalty>  (148) 
-0

>  <r_epik_Charging_Adjusted_Penalty>  (148) 
0

>  <i_epik_Tot_Q>  (148) 
0

>  <i_epik_Tot_abs_Q>  (148) 
0

>  <s_lp_Force_Field>  (148) 
OPLS3e

>  <r_lp_Energy>  (148) 
67.9508

>  <b_lp_Chiralities_Consistent>  (148) 
1

>  <s_lp_Variant>  (148) 
55:0-1

>  <s_i_glide_gridfile>  (148) 
pfpi4k_grid

>  <i_i_glide_lignum>  (148) 
32

>  <i_i_glide_rotatable_bonds>  (148) 
4

>  <r_i_docking_score>  (148) 
-3.25594

>  <r_i_glide_ligand_efficiency>  (148) 
-0.116284

>  <r_i_glide_ligand_efficiency_sa>  (148) 
-0.353106

>  <r_i_glide_ligand_efficiency_ln>  (148) 
-0.751567

>  <r_i_glide_gscore>  (148) 
-3.25594

>  <r_i_glide_lipo>  (148) 
-0.473041

>  <r_i_glide_hbond>  (148) 
0

>  <r_i_glide_metal>  (148) 
-0

>  <r_i_glide_rewards>  (148) 
-0.719306

>  <r_i_glide_evdw>  (148) 
-23.9431

>  <r_i_glide_ecoul>  (148) 
-5.75977

>  <r_i_glide_erotb>  (148) 
0

>  <r_i_glide_esite>  (148) 
-0.00247502

>  <r_i_glide_emodel>  (148) 
-34.4428

>  <r_i_glide_energy>  (148) 
-29.7029

>  <r_i_glide_einternal>  (148) 
2.82661

>  <r_i_glide_intrahb_reward>  (148) 
-0

>  <i_i_glide_confnum>  (148) 
2

>  <i_i_glide_posenum>  (148) 
4

>  <r_i_glide_eff_state_penalty>  (148) 
0

>  <ligand_id>  (148) 
55

>  <original_smiles>  (148) 
CC1(C)CCC23C4C(O)C5C(CCC46OC6C(O)C(O)C2(C)C3(O)O1)C5(C)C

>  <smiles>  (148) 
[H]OC1([H])C2([H])OC23C([H])([H])C([H])([H])C2([H])C([H])(C([H])(O[H])C3([H])C34C([H])([H])C([H])([H])C(C([H])([H])[H])(C([H])([H])[H])OC3(O[H])C4(C([H])([H])[H])C1([H])O[H])C2(C([H])([H])[H])C([H])([H])[H]

$$$$
55:0:2
     RDKit          3D

 62 67  0  0  1  0  0  0  0  0999 V2000
    2.6532   -2.8462   -2.3449 C   0  0  0  0  0  0  0  0  0  0  0  0
    4.1950   -2.9295   -2.4147 C   0  0  0  0  0  0  0  0  0  0  0  0
    4.5958   -3.4539   -3.7972 C   0  0  0  0  0  0  0  0  0  0  0  0
    4.8682   -1.5938   -2.0756 C   0  0  0  0  0  0  0  0  0  0  0  0
    4.6853   -1.1541   -0.6035 C   0  0  0  0  0  0  0  0  0  0  0  0
    4.3908   -2.2582    0.4573 C   0  0  2  0  0  0  0  0  0  0  0  0
    3.4369   -1.5994    1.5214 C   0  0  2  0  0  0  0  0  0  0  0  0
    4.0506   -0.2833    2.1574 C   0  0  2  0  0  0  0  0  0  0  0  0
    5.4696   -0.3132    2.1975 O   0  0  0  0  0  0  0  0  0  0  0  0
    3.6275    0.0927    3.5895 C   0  0  2  0  0  0  0  0  0  0  0  0
    2.1922    0.1113    4.0476 C   0  0  2  0  0  0  0  0  0  0  0  0
    1.1567   -0.4152    3.0955 C   0  0  0  0  0  0  0  0  0  0  0  0
    1.3222   -1.9284    2.9184 C   0  0  0  0  0  0  0  0  0  0  0  0
    2.7193   -2.4345    2.6096 C   0  0  1  0  0  0  0  0  0  0  0  0
    2.7281   -3.8542    2.5863 O   0  0  0  0  0  0  0  0  0  0  0  0
    3.5013   -3.2444    3.6035 C   0  0  1  0  0  0  0  0  0  0  0  0
    4.9938   -3.4007    3.5070 C   0  0  1  0  0  0  0  0  0  0  0  0
    5.4278   -4.1261    4.6385 O   0  0  0  0  0  0  0  0  0  0  0  0
    5.5488   -4.0673    2.2184 C   0  0  1  0  0  0  0  0  0  0  0  0
    5.1839   -5.4312    2.1266 O   0  0  0  0  0  0  0  0  0  0  0  0
    5.4503   -3.3234    0.8575 C   0  0  2  0  0  0  0  0  0  0  0  0
    6.8837   -3.1238    0.3500 C   0  0  0  0  0  0  0  0  0  0  0  0
    4.3361   -3.6711   -0.1492 C   0  0  1  0  0  0  0  0  0  0  0  0
    3.2258   -4.4799    0.1576 O   0  0  0  0  0  0  0  0  0  0  0  0
    4.7895   -3.8236   -1.4864 O   0  0  0  0  0  0  0  0  0  0  0  0
    2.9375    1.4112    3.9188 C   0  0  0  0  0  0  0  0  0  0  0  0
    3.3372    2.1395    5.1784 C   0  0  0  0  0  0  0  0  0  0  0  0
    2.5499    2.4259    2.8581 C   0  0  0  0  0  0  0  0  0  0  0  0
    2.2568   -2.1998   -3.1298 H   0  0  0  0  0  0  0  0  0  0  0  0
    2.3253   -2.4214   -1.3983 H   0  0  0  0  0  0  0  0  0  0  0  0
    2.1827   -3.8259   -2.4477 H   0  0  0  0  0  0  0  0  0  0  0  0
    4.2262   -2.7994   -4.5808 H   0  0  0  0  0  0  0  0  0  0  0  0
    4.1728   -4.4424   -3.9715 H   0  0  0  0  0  0  0  0  0  0  0  0
    5.6745   -3.5398   -3.8913 H   0  0  0  0  0  0  0  0  0  0  0  0
    5.9311   -1.6970   -2.2874 H   0  0  0  0  0  0  0  0  0  0  0  0
    4.5111   -0.8135   -2.7452 H   0  0  0  0  0  0  0  0  0  0  0  0
    5.5645   -0.5889   -0.3021 H   0  0  0  0  0  0  0  0  0  0  0  0
    3.8783   -0.4274   -0.5994 H   0  0  0  0  0  0  0  0  0  0  0  0
    2.5986   -1.2656    0.9075 H   0  0  0  0  0  0  0  0  0  0  0  0
    3.8155    0.5467    1.4935 H   0  0  0  0  0  0  0  0  0  0  0  0
    5.7551   -1.0008    2.7743 H   0  0  0  0  0  0  0  0  0  0  0  0
    4.2946   -0.3088    4.3497 H   0  0  0  0  0  0  0  0  0  0  0  0
    2.0263   -0.2335    5.0700 H   0  0  0  0  0  0  0  0  0  0  0  0
    0.1633   -0.1779    3.4822 H   0  0  0  0  0  0  0  0  0  0  0  0
    1.2323    0.0737    2.1241 H   0  0  0  0  0  0  0  0  0  0  0  0
    0.9562   -2.4431    3.8111 H   0  0  0  0  0  0  0  0  0  0  0  0
    0.7089   -2.2458    2.0854 H   0  0  0  0  0  0  0  0  0  0  0  0
    3.0845   -3.2747    4.6099 H   0  0  0  0  0  0  0  0  0  0  0  0
    5.4247   -2.4120    3.6258 H   0  0  0  0  0  0  0  0  0  0  0  0
    4.9780   -4.9519    4.6649 H   0  0  0  0  0  0  0  0  0  0  0  0
    6.6154   -4.1469    2.4432 H   0  0  0  0  0  0  0  0  0  0  0  0
    5.4756   -5.8618    2.9127 H   0  0  0  0  0  0  0  0  0  0  0  0
    7.4296   -4.0710    0.3444 H   0  0  0  0  0  0  0  0  0  0  0  0
    7.4205   -2.4162    0.9850 H   0  0  0  0  0  0  0  0  0  0  0  0
    6.9129   -2.7405   -0.6647 H   0  0  0  0  0  0  0  0  0  0  0  0
    3.3539   -5.2985   -0.2993 H   0  0  0  0  0  0  0  0  0  0  0  0
    2.5115    2.7633    5.5273 H   0  0  0  0  0  0  0  0  0  0  0  0
    4.2082    2.7712    4.9911 H   0  0  0  0  0  0  0  0  0  0  0  0
    3.5870    1.4257    5.9697 H   0  0  0  0  0  0  0  0  0  0  0  0
    1.7286    3.0494    3.2111 H   0  0  0  0  0  0  0  0  0  0  0  0
    2.2369    1.9492    1.9319 H   0  0  0  0  0  0  0  0  0  0  0  0
    3.4054    3.0659    2.6397 H   0  0  0  0  0  0  0  0  0  0  0  0
  1  2  1  0
  1 29  1  0
  1 30  1  0
  1 31  1  0
  2 25  1  0
  2  3  1  0
  2  4  1  0
  3 32  1  0
  3 33  1  0
  3 34  1  0
  4  5  1  0
  4 35  1  0
  4 36  1  0
  6  5  1  6
  5 37  1  0
  5 38  1  0
  6 21  1  0
  6 23  1  0
  6  7  1  0
  7 14  1  0
  7  8  1  0
  7 39  1  6
  8  9  1  0
  8 10  1  0
  8 40  1  6
  9 41  1  0
 10 26  1  0
 10 11  1  0
 10 42  1  1
 11 12  1  0
 11 26  1  0
 11 43  1  1
 12 13  1  0
 12 44  1  0
 12 45  1  0
 13 14  1  0
 13 46  1  0
 13 47  1  0
 14 16  1  0
 14 15  1  6
 15 16  1  0
 16 17  1  0
 16 48  1  1
 17 18  1  0
 17 19  1  0
 17 49  1  1
 18 50  1  0
 19 20  1  0
 19 21  1  0
 19 51  1  1
 20 52  1  0
 21 22  1  6
 21 23  1  0
 22 53  1  0
 22 54  1  0
 22 55  1  0
 23 24  1  1
 23 25  1  0
 24 56  1  0
 26 27  1  0
 26 28  1  0
 27 57  1  0
 27 58  1  0
 27 59  1  0
 28 60  1  0
 28 61  1  0
 28 62  1  0
M  END
>  <i_m_ct_stereo_status>  (149) 
1

>  <s_m_source_file>  (149) 
/var/tmp/pbs.5076255.sched01/tmpaqd8m8vp/41rn73ajce.sdf

>  <i_m_source_file_index>  (149) 
32

>  <i_lp_mmshare_version>  (149) 
48012

>  <i_f3d_flags>  (149) 
0

>  <s_epik_input>  (149) 
W0NIMl0xW0NIMl1DKFtDSDNdKShbQ0gzXSlPW0NAQF0yKFtPSF0pW0NAXTMoW0NIM10pW0NASF0oW09IXSlbQ0BIXShbT0hdKVtDQEhdKE80KVtDQF00KFtDQEBIXTVbQ0BdMTIzKVtDSDJdW0NIMl1bQ0BIXTZbQ0BASF0oW0NIXTVbT0hdKUM2KFtDSDNdKVtDSDNd

>  <s_epik_cmdline>  (149) 
J2VwaWtfcHl0aG9uJywgJy1waHQnLCAnMi4wJywgJy1waCcsICc3LjAnLCAnLXRuJywgJzgnLCAnLW1hJywgJzIwMCcsICctaW1hZScsICc8aW5maWxlLm1hZT4nLCAnLW9tYWUnLCAnPG91dGZpbGUubWFlPic=

>  <r_lp_tautomer_probability>  (149) 
1

>  <r_epik_Ionization_Penalty>  (149) 
9.48597e-07

>  <r_epik_Ionization_Penalty_Charging>  (149) 
0

>  <r_epik_Ionization_Penalty_Neutral>  (149) 
9.48597e-07

>  <r_epik_State_Penalty>  (149) 
-0

>  <r_epik_Charging_Adjusted_Penalty>  (149) 
0

>  <i_epik_Tot_Q>  (149) 
0

>  <i_epik_Tot_abs_Q>  (149) 
0

>  <s_lp_Force_Field>  (149) 
OPLS3e

>  <r_lp_Energy>  (149) 
67.9508

>  <b_lp_Chiralities_Consistent>  (149) 
1

>  <s_lp_Variant>  (149) 
55:0-1

>  <s_i_glide_gridfile>  (149) 
pfpi4k_grid

>  <i_i_glide_lignum>  (149) 
32

>  <i_i_glide_rotatable_bonds>  (149) 
4

>  <r_i_docking_score>  (149) 
-3.07619

>  <r_i_glide_ligand_efficiency>  (149) 
-0.109864

>  <r_i_glide_ligand_efficiency_sa>  (149) 
-0.333612

>  <r_i_glide_ligand_efficiency_ln>  (149) 
-0.710075

>  <r_i_glide_gscore>  (149) 
-3.07619

>  <r_i_glide_lipo>  (149) 
-0.448092

>  <r_i_glide_hbond>  (149) 
-0.173373

>  <r_i_glide_metal>  (149) 
-0

>  <r_i_glide_rewards>  (149) 
-0.746436

>  <r_i_glide_evdw>  (149) 
-29.3955

>  <r_i_glide_ecoul>  (149) 
-1.59009

>  <r_i_glide_erotb>  (149) 
0

>  <r_i_glide_esite>  (149) 
0

>  <r_i_glide_emodel>  (149) 
-35.743

>  <r_i_glide_energy>  (149) 
-30.9856

>  <r_i_glide_einternal>  (149) 
1.4973

>  <r_i_glide_intrahb_reward>  (149) 
-0

>  <i_i_glide_confnum>  (149) 
2

>  <i_i_glide_posenum>  (149) 
29

>  <r_i_glide_eff_state_penalty>  (149) 
0

>  <ligand_id>  (149) 
55

>  <original_smiles>  (149) 
CC1(C)CCC23C4C(O)C5C(CCC46OC6C(O)C(O)C2(C)C3(O)O1)C5(C)C

>  <smiles>  (149) 
[H]OC1([H])C2([H])OC23C([H])([H])C([H])([H])C2([H])C([H])(C([H])(O[H])C3([H])C34C([H])([H])C([H])([H])C(C([H])([H])[H])(C([H])([H])[H])OC3(O[H])C4(C([H])([H])[H])C1([H])O[H])C2(C([H])([H])[H])C([H])([H])[H]

$$$$
57:0:0
     RDKit          3D

 74 81  0  0  1  0  0  0  0  0999 V2000
    2.0474  -11.8530    3.1655 C   0  0  0  0  0  0  0  0  0  0  0  0
    2.2846  -10.9102    4.1059 C   0  0  0  0  0  0  0  0  0  0  0  0
    1.1363  -10.4263    4.9701 C   0  0  0  0  0  0  0  0  0  0  0  0
    3.6782  -10.3295    4.3538 C   0  0  1  0  0  0  0  0  0  0  0  0
    3.6485   -9.4588    5.4774 O   0  0  0  0  0  0  0  0  0  0  0  0
    4.7603  -11.4228    4.6083 C   0  0  0  0  0  0  0  0  0  0  0  0
    5.9135  -11.1914    3.5805 C   0  0  1  0  0  0  0  0  0  0  0  0
    5.8236  -12.0991    2.4998 O   0  0  0  0  0  0  0  0  0  0  0  0
    5.8087   -9.6855    3.1815 C   0  0  1  0  0  0  0  0  0  0  0  0
    6.1892   -9.2422    1.7580 C   0  0  0  0  0  0  0  0  0  0  0  0
    4.9259   -8.5404    1.1883 C   0  0  0  0  0  0  0  0  0  0  0  0
    3.8720   -8.4056    2.3205 C   0  0  1  0  0  0  0  0  0  0  0  0
    2.4658   -8.7100    1.7109 C   0  0  0  0  0  0  0  0  0  0  0  0
    4.3040   -9.6329    3.1256 C   0  0  2  0  0  0  0  0  0  0  0  0
    3.8833   -7.0426    3.1301 C   0  0  2  0  0  0  0  0  0  0  0  0
    2.8823   -5.9873    2.5440 C   0  0  2  0  0  0  0  0  0  0  0  0
    3.1823   -5.4277    1.1174 C   0  0  0  0  0  0  0  0  0  0  0  0
    4.4188   -4.5069    0.9612 C   0  0  1  0  0  0  0  0  0  0  0  0
    4.9571   -4.2443    2.2482 O   0  0  0  0  0  0  0  0  0  0  0  0
    5.8755   -5.2671    2.6815 C   0  0  2  0  0  0  0  0  0  0  0  0
    6.4480   -5.6793    1.3583 C   0  0  2  0  0  0  0  0  0  0  0  0
    6.8858   -4.5930    0.4792 O   0  0  0  0  0  0  0  0  0  0  0  0
    5.5574   -5.1676    0.2855 C   0  0  2  0  0  0  0  0  0  0  0  0
    5.2008   -6.3247    3.6837 C   0  0  1  0  0  0  0  0  0  0  0  0
    4.5780   -5.3454    4.7503 C   0  0  0  0  0  0  0  0  0  0  0  0
    3.4786   -4.5094    4.3794 O   0  0  0  0  0  0  0  0  0  0  0  0
    2.5188   -4.8684    3.5452 C   0  0  0  0  0  0  0  0  0  0  0  0
    1.4299   -4.2989    3.4094 O   0  0  0  0  0  0  0  0  0  0  0  0
    6.3275   -7.2258    4.5007 C   0  0  2  0  0  0  0  0  0  0  0  0
    6.1328   -7.1355    6.0635 C   0  0  0  0  0  0  0  0  0  0  0  0
    7.7949   -6.7404    4.2417 C   0  0  1  0  0  0  0  0  0  0  0  0
    8.1489   -5.5535    4.9374 O   0  0  0  0  0  0  0  0  0  0  0  0
    8.7605   -7.8143    4.6966 C   0  0  0  0  0  0  0  0  0  0  0  0
    8.0370   -9.1079    4.3434 C   0  0  1  0  0  0  0  0  0  0  0  0
    8.3763  -10.0412    5.3605 O   0  0  0  0  0  0  0  0  0  0  0  0
    6.5016   -8.8099    4.2972 C   0  0  2  0  0  0  0  0  0  0  0  0
    1.0599  -12.2458    3.0076 H   0  0  0  0  0  0  0  0  0  0  0  0
    2.8376  -12.2441    2.5359 H   0  0  0  0  0  0  0  0  0  0  0  0
    1.0481   -9.3389    4.9278 H   0  0  0  0  0  0  0  0  0  0  0  0
    1.2716  -10.7254    6.0044 H   0  0  0  0  0  0  0  0  0  0  0  0
    0.1934  -10.8496    4.6279 H   0  0  0  0  0  0  0  0  0  0  0  0
    3.2873   -9.9467    6.1947 H   0  0  0  0  0  0  0  0  0  0  0  0
    5.1609  -11.3347    5.6181 H   0  0  0  0  0  0  0  0  0  0  0  0
    4.3716  -12.4399    4.5466 H   0  0  0  0  0  0  0  0  0  0  0  0
    6.8688  -11.4583    4.0265 H   0  0  0  0  0  0  0  0  0  0  0  0
    5.0824  -11.9118    1.9302 H   0  0  0  0  0  0  0  0  0  0  0  0
    7.0583   -8.5900    1.7624 H   0  0  0  0  0  0  0  0  0  0  0  0
    6.4573  -10.0787    1.1287 H   0  0  0  0  0  0  0  0  0  0  0  0
    5.1226   -7.6298    0.6571 H   0  0  0  0  0  0  0  0  0  0  0  0
    4.5335   -9.2047    0.4229 H   0  0  0  0  0  0  0  0  0  0  0  0
    1.6729   -8.6606    2.4726 H   0  0  0  0  0  0  0  0  0  0  0  0
    2.3981   -9.6971    1.2652 H   0  0  0  0  0  0  0  0  0  0  0  0
    2.1849   -8.0311    0.9101 H   0  0  0  0  0  0  0  0  0  0  0  0
    4.0721  -10.3919    2.3721 H   0  0  0  0  0  0  0  0  0  0  0  0
    3.3811   -7.3622    4.0483 H   0  0  0  0  0  0  0  0  0  0  0  0
    1.9182   -6.4798    2.4623 H   0  0  0  0  0  0  0  0  0  0  0  0
    3.2313   -6.2182    0.3870 H   0  0  0  0  0  0  0  0  0  0  0  0
    2.3145   -4.8360    0.8122 H   0  0  0  0  0  0  0  0  0  0  0  0
    4.1664   -3.5817    0.4497 H   0  0  0  0  0  0  0  0  0  0  0  0
    6.6167   -4.6837    3.1978 H   0  0  0  0  0  0  0  0  0  0  0  0
    7.0734   -6.5616    1.2280 H   0  0  0  0  0  0  0  0  0  0  0  0
    5.4290   -5.6894   -0.6627 H   0  0  0  0  0  0  0  0  0  0  0  0
    4.1674   -5.8862    5.5906 H   0  0  0  0  0  0  0  0  0  0  0  0
    5.3518   -4.6877    5.1345 H   0  0  0  0  0  0  0  0  0  0  0  0
    6.8722   -7.7209    6.6204 H   0  0  0  0  0  0  0  0  0  0  0  0
    5.1676   -7.5253    6.3885 H   0  0  0  0  0  0  0  0  0  0  0  0
    6.2403   -6.1316    6.4753 H   0  0  0  0  0  0  0  0  0  0  0  0
    7.9940   -6.6096    3.1876 H   0  0  0  0  0  0  0  0  0  0  0  0
    8.9339   -5.2041    4.5443 H   0  0  0  0  0  0  0  0  0  0  0  0
    9.7184   -7.7357    4.1689 H   0  0  0  0  0  0  0  0  0  0  0  0
    8.9686   -7.7393    5.7541 H   0  0  0  0  0  0  0  0  0  0  0  0
    8.4081   -9.4621    3.3910 H   0  0  0  0  0  0  0  0  0  0  0  0
    7.9958  -10.8673    5.1530 H   0  0  0  0  0  0  0  0  0  0  0  0
    6.1295   -9.2521    5.2120 H   0  0  0  0  0  0  0  0  0  0  0  0
  1  2  2  0
  1 37  1  0
  1 38  1  0
  2  3  1  0
  2  4  1  0
  3 39  1  0
  3 40  1  0
  3 41  1  0
  4 14  1  0
  4  5  1  1
  4  6  1  0
  5 42  1  0
  6  7  1  0
  6 43  1  0
  6 44  1  0
  7  8  1  0
  7  9  1  0
  7 45  1  1
  8 46  1  0
  9 14  1  0
  9 36  1  0
  9 10  1  6
 10 11  1  0
 10 47  1  0
 10 48  1  0
 11 12  1  0
 11 49  1  0
 11 50  1  0
 12 13  1  6
 12 14  1  0
 12 15  1  0
 13 51  1  0
 13 52  1  0
 13 53  1  0
 14 54  1  6
 15 24  1  0
 15 16  1  0
 15 55  1  1
 16 27  1  0
 16 17  1  0
 16 56  1  6
 17 18  1  0
 17 57  1  0
 17 58  1  0
 18 23  1  0
 18 19  1  0
 18 59  1  6
 19 20  1  0
 20 21  1  0
 20 24  1  0
 20 60  1  1
 21 23  1  0
 21 22  1  0
 21 61  1  1
 22 23  1  0
 23 62  1  6
 24 25  1  1
 24 29  1  0
 25 26  1  0
 25 63  1  0
 25 64  1  0
 26 27  1  0
 27 28  2  0
 29 36  1  0
 29 30  1  1
 29 31  1  0
 30 65  1  0
 30 66  1  0
 30 67  1  0
 31 32  1  0
 31 33  1  0
 31 68  1  6
 32 69  1  0
 33 34  1  0
 33 70  1  0
 33 71  1  0
 34 35  1  0
 34 36  1  0
 34 72  1  6
 35 73  1  0
 36 74  1  1
M  END
>  <i_m_ct_stereo_status>  (150) 
1

>  <s_m_source_file>  (150) 
/var/tmp/pbs.5076255.sched01/tmpaqd8m8vp/41rn73ajce.sdf

>  <i_m_source_file_index>  (150) 
34

>  <i_lp_mmshare_version>  (150) 
48012

>  <i_f3d_flags>  (150) 
0

>  <s_epik_input>  (150) 
W09IXVtDQEBIXTFbQ0gyXVtDQF0oW09IXSkoQyg9W0NIMl0pW0NIM10pW0NASF0oW0NAQF0xMjMpW0NAXShbQ0gzXSkoW0NIMl1bQ0gyXTIpW0NASF00W0NAQF01KFtDQEBdNihbQ0gzXSlbQ0BASF0zW0NASF0oW09IXSlbQ0gyXVtDQEBIXTZbT0hdKVtDQEhdN1tDQEhdOFtDQEhdKE84KVtDQEhdKE83KVtDSDJdW0NAQEhdNEMoPU8pT1tDSDJdNQ==

>  <s_epik_cmdline>  (150) 
J2VwaWtfcHl0aG9uJywgJy1waHQnLCAnMi4wJywgJy1waCcsICc3LjAnLCAnLXRuJywgJzgnLCAnLW1hJywgJzIwMCcsICctaW1hZScsICc8aW5maWxlLm1hZT4nLCAnLW9tYWUnLCAnPG91dGZpbGUubWFlPic=

>  <r_lp_tautomer_probability>  (150) 
1

>  <r_epik_Ionization_Penalty>  (150) 
9.37625e-07

>  <r_epik_Ionization_Penalty_Charging>  (150) 
0

>  <r_epik_Ionization_Penalty_Neutral>  (150) 
9.37625e-07

>  <r_epik_State_Penalty>  (150) 
-0

>  <r_epik_Charging_Adjusted_Penalty>  (150) 
0

>  <i_epik_Tot_Q>  (150) 
0

>  <i_epik_Tot_abs_Q>  (150) 
0

>  <s_epik_Chemistry_Notes>  (150) 
This compound has an ester and may undergo hydrolysis at high or low pH.

>  <s_lp_Force_Field>  (150) 
OPLS3e

>  <r_lp_Energy>  (150) 
143.892

>  <b_lp_Chiralities_Consistent>  (150) 
1

>  <s_lp_Variant>  (150) 
57:0-1

>  <s_i_glide_gridfile>  (150) 
pfpi4k_grid

>  <i_i_glide_lignum>  (150) 
34

>  <i_i_glide_rotatable_bonds>  (150) 
5

>  <r_i_docking_score>  (150) 
-2.68275

>  <r_i_glide_ligand_efficiency>  (150) 
-0.0745208

>  <r_i_glide_ligand_efficiency_sa>  (150) 
-0.246062

>  <r_i_glide_ligand_efficiency_ln>  (150) 
-0.585303

>  <r_i_glide_gscore>  (150) 
-2.68275

>  <r_i_glide_lipo>  (150) 
-0.325345

>  <r_i_glide_hbond>  (150) 
-0.264461

>  <r_i_glide_metal>  (150) 
-0

>  <r_i_glide_rewards>  (150) 
0

>  <r_i_glide_evdw>  (150) 
-27.4179

>  <r_i_glide_ecoul>  (150) 
-5.35295

>  <r_i_glide_erotb>  (150) 
0.0808947

>  <r_i_glide_esite>  (150) 
0

>  <r_i_glide_emodel>  (150) 
-37.8058

>  <r_i_glide_energy>  (150) 
-32.7708

>  <r_i_glide_einternal>  (150) 
1.97715

>  <r_i_glide_intrahb_reward>  (150) 
-0

>  <i_i_glide_confnum>  (150) 
3

>  <i_i_glide_posenum>  (150) 
35

>  <r_i_glide_eff_state_penalty>  (150) 
0

>  <ligand_id>  (150) 
57

>  <original_smiles>  (150) 
C=C(C)C1(O)CC(O)C23CCC(C)(C12)C1C2CC4OC(C5OC45)C1(COC2=O)C1(C)C(O)CC(O)C31

>  <smiles>  (150) 
[H]OC1([H])C([H])([H])C([H])(O[H])C2(C([H])([H])[H])C1([H])C13C([H])([H])C([H])([H])C(C([H])([H])[H])(C1([H])C(O[H])(C(=C([H])[H])C([H])([H])[H])C([H])([H])C3([H])O[H])C1([H])C3([H])C(=O)OC([H])([H])C12C1([H])OC([H])(C3([H])[H])C2([H])OC21[H]

$$$$
57:0:1
     RDKit          3D

 74 81  0  0  1  0  0  0  0  0999 V2000
    0.6916   -7.0770    7.0045 C   0  0  0  0  0  0  0  0  0  0  0  0
    0.9030   -8.2882    6.4501 C   0  0  0  0  0  0  0  0  0  0  0  0
   -0.0036   -9.4482    6.8707 C   0  0  0  0  0  0  0  0  0  0  0  0
    2.0323   -8.5666    5.4372 C   0  0  1  0  0  0  0  0  0  0  0  0
    3.2652   -8.2103    6.0411 O   0  0  0  0  0  0  0  0  0  0  0  0
    2.1257  -10.0646    4.9246 C   0  0  0  0  0  0  0  0  0  0  0  0
    2.0733  -10.0641    3.3690 C   0  0  1  0  0  0  0  0  0  0  0  0
    0.7290  -10.2913    2.9452 O   0  0  0  0  0  0  0  0  0  0  0  0
    2.6248   -8.6550    2.9786 C   0  0  1  0  0  0  0  0  0  0  0  0
    2.1158   -7.9851    1.6762 C   0  0  0  0  0  0  0  0  0  0  0  0
    1.5652   -6.6027    2.1135 C   0  0  0  0  0  0  0  0  0  0  0  0
    1.8858   -6.3623    3.6200 C   0  0  1  0  0  0  0  0  0  0  0  0
    0.6433   -5.6175    4.2668 C   0  0  0  0  0  0  0  0  0  0  0  0
    1.8894   -7.8551    4.0545 C   0  0  2  0  0  0  0  0  0  0  0  0
    3.2554   -5.6038    3.9050 C   0  0  2  0  0  0  0  0  0  0  0  0
    3.0216   -4.0562    4.0950 C   0  0  2  0  0  0  0  0  0  0  0  0
    2.5470   -3.2346    2.8616 C   0  0  0  0  0  0  0  0  0  0  0  0
    3.5370   -3.0692    1.6825 C   0  0  1  0  0  0  0  0  0  0  0  0
    4.7956   -3.5834    2.0886 O   0  0  0  0  0  0  0  0  0  0  0  0
    4.9048   -4.9919    1.8414 C   0  0  2  0  0  0  0  0  0  0  0  0
    4.0408   -5.1336    0.6114 C   0  0  2  0  0  0  0  0  0  0  0  0
    4.2844   -4.1718   -0.4333 O   0  0  0  0  0  0  0  0  0  0  0  0
    3.2137   -3.9173    0.4889 C   0  0  2  0  0  0  0  0  0  0  0  0
    4.6503   -5.8733    3.1675 C   0  0  1  0  0  0  0  0  0  0  0  0
    5.6500   -5.1626    4.1764 C   0  0  0  0  0  0  0  0  0  0  0  0
    5.4111   -3.8288    4.6343 O   0  0  0  0  0  0  0  0  0  0  0  0
    4.1716   -3.3304    4.8263 C   0  0  0  0  0  0  0  0  0  0  0  0
    3.9663   -2.3012    5.4489 O   0  0  0  0  0  0  0  0  0  0  0  0
    5.1847   -7.4383    3.0316 C   0  0  2  0  0  0  0  0  0  0  0  0
    6.2007   -7.8243    4.1788 C   0  0  0  0  0  0  0  0  0  0  0  0
    5.9838   -7.6651    1.7014 C   0  0  1  0  0  0  0  0  0  0  0  0
    7.2834   -7.0802    1.6434 O   0  0  0  0  0  0  0  0  0  0  0  0
    6.0917   -9.1598    1.4590 C   0  0  0  0  0  0  0  0  0  0  0  0
    4.7733   -9.7013    1.9795 C   0  0  1  0  0  0  0  0  0  0  0  0
    5.0134  -10.9993    2.4948 O   0  0  0  0  0  0  0  0  0  0  0  0
    4.2026   -8.7037    3.0348 C   0  0  2  0  0  0  0  0  0  0  0  0
   -0.1674   -6.9314    7.6493 H   0  0  0  0  0  0  0  0  0  0  0  0
    1.3767   -6.2682    6.8372 H   0  0  0  0  0  0  0  0  0  0  0  0
    0.6226  -10.2299    7.3063 H   0  0  0  0  0  0  0  0  0  0  0  0
   -0.5670   -9.8435    6.0195 H   0  0  0  0  0  0  0  0  0  0  0  0
   -0.7008   -9.1423    7.6439 H   0  0  0  0  0  0  0  0  0  0  0  0
    3.4680   -8.8742    6.6791 H   0  0  0  0  0  0  0  0  0  0  0  0
    3.0573  -10.5238    5.2682 H   0  0  0  0  0  0  0  0  0  0  0  0
    1.3557  -10.7545    5.2674 H   0  0  0  0  0  0  0  0  0  0  0  0
    2.6315  -10.9096    2.9816 H   0  0  0  0  0  0  0  0  0  0  0  0
    0.4037  -11.0665    3.3704 H   0  0  0  0  0  0  0  0  0  0  0  0
    2.8939   -7.9012    0.9321 H   0  0  0  0  0  0  0  0  0  0  0  0
    1.3090   -8.5584    1.2222 H   0  0  0  0  0  0  0  0  0  0  0  0
    1.8324   -5.7854    1.4712 H   0  0  0  0  0  0  0  0  0  0  0  0
    0.4824   -6.6704    1.9981 H   0  0  0  0  0  0  0  0  0  0  0  0
    0.8162   -5.3179    5.2377 H   0  0  0  0  0  0  0  0  0  0  0  0
   -0.2436   -6.2794    4.2267 H   0  0  0  0  0  0  0  0  0  0  0  0
    0.3448   -4.7422    3.6548 H   0  0  0  0  0  0  0  0  0  0  0  0
    0.8395   -8.0856    3.8824 H   0  0  0  0  0  0  0  0  0  0  0  0
    3.4437   -5.9264    4.9305 H   0  0  0  0  0  0  0  0  0  0  0  0
    2.2600   -3.9173    4.8458 H   0  0  0  0  0  0  0  0  0  0  0  0
    1.6099   -3.6259    2.4745 H   0  0  0  0  0  0  0  0  0  0  0  0
    2.2802   -2.2336    3.2085 H   0  0  0  0  0  0  0  0  0  0  0  0
    3.6111   -2.0177    1.3864 H   0  0  0  0  0  0  0  0  0  0  0  0
    5.9421   -5.0844    1.5225 H   0  0  0  0  0  0  0  0  0  0  0  0
    3.7319   -6.0943    0.2277 H   0  0  0  0  0  0  0  0  0  0  0  0
    2.2251   -3.9120    0.0477 H   0  0  0  0  0  0  0  0  0  0  0  0
    5.7214   -5.7086    5.1174 H   0  0  0  0  0  0  0  0  0  0  0  0
    6.6447   -5.1515    3.7326 H   0  0  0  0  0  0  0  0  0  0  0  0
    6.5630   -8.8465    4.0895 H   0  0  0  0  0  0  0  0  0  0  0  0
    5.7468   -7.7746    5.1680 H   0  0  0  0  0  0  0  0  0  0  0  0
    7.1104   -7.2234    4.2008 H   0  0  0  0  0  0  0  0  0  0  0  0
    5.4226   -7.2922    0.8529 H   0  0  0  0  0  0  0  0  0  0  0  0
    7.8760   -7.5416    2.2125 H   0  0  0  0  0  0  0  0  0  0  0  0
    6.2171   -9.3839    0.4045 H   0  0  0  0  0  0  0  0  0  0  0  0
    6.9549   -9.5924    1.9681 H   0  0  0  0  0  0  0  0  0  0  0  0
    4.0860   -9.8241    1.1471 H   0  0  0  0  0  0  0  0  0  0  0  0
    4.7136  -11.6141    1.8114 H   0  0  0  0  0  0  0  0  0  0  0  0
    4.3866   -9.2010    3.9820 H   0  0  0  0  0  0  0  0  0  0  0  0
  1  2  2  0
  1 37  1  0
  1 38  1  0
  2  3  1  0
  2  4  1  0
  3 39  1  0
  3 40  1  0
  3 41  1  0
  4 14  1  0
  4  5  1  1
  4  6  1  0
  5 42  1  0
  6  7  1  0
  6 43  1  0
  6 44  1  0
  7  8  1  0
  7  9  1  0
  7 45  1  6
  8 46  1  0
  9 14  1  0
  9 36  1  0
  9 10  1  6
 10 11  1  0
 10 47  1  0
 10 48  1  0
 11 12  1  0
 11 49  1  0
 11 50  1  0
 12 13  1  1
 12 14  1  0
 12 15  1  0
 13 51  1  0
 13 52  1  0
 13 53  1  0
 14 54  1  6
 15 24  1  0
 15 16  1  0
 15 55  1  1
 16 27  1  0
 16 17  1  0
 16 56  1  1
 17 18  1  0
 17 57  1  0
 17 58  1  0
 18 23  1  0
 18 19  1  0
 18 59  1  6
 19 20  1  0
 20 21  1  0
 20 24  1  0
 20 60  1  6
 21 23  1  0
 21 22  1  0
 21 61  1  6
 22 23  1  0
 23 62  1  6
 24 25  1  1
 24 29  1  0
 25 26  1  0
 25 63  1  0
 25 64  1  0
 26 27  1  0
 27 28  2  0
 29 36  1  0
 29 30  1  1
 29 31  1  0
 30 65  1  0
 30 66  1  0
 30 67  1  0
 31 32  1  0
 31 33  1  0
 31 68  1  6
 32 69  1  0
 33 34  1  0
 33 70  1  0
 33 71  1  0
 34 35  1  0
 34 36  1  0
 34 72  1  6
 35 73  1  0
 36 74  1  1
M  END
>  <i_m_ct_stereo_status>  (151) 
1

>  <s_m_source_file>  (151) 
/var/tmp/pbs.5076255.sched01/tmpaqd8m8vp/41rn73ajce.sdf

>  <i_m_source_file_index>  (151) 
34

>  <i_lp_mmshare_version>  (151) 
48012

>  <i_f3d_flags>  (151) 
0

>  <s_epik_input>  (151) 
W09IXVtDQEBIXTFbQ0gyXVtDQF0oW09IXSkoQyg9W0NIMl0pW0NIM10pW0NASF0oW0NAQF0xMjMpW0NAXShbQ0gzXSkoW0NIMl1bQ0gyXTIpW0NASF00W0NAQF01KFtDQEBdNihbQ0gzXSlbQ0BASF0zW0NASF0oW09IXSlbQ0gyXVtDQEBIXTZbT0hdKVtDQEhdN1tDQEhdOFtDQEhdKE84KVtDQEhdKE83KVtDSDJdW0NAQEhdNEMoPU8pT1tDSDJdNQ==

>  <s_epik_cmdline>  (151) 
J2VwaWtfcHl0aG9uJywgJy1waHQnLCAnMi4wJywgJy1waCcsICc3LjAnLCAnLXRuJywgJzgnLCAnLW1hJywgJzIwMCcsICctaW1hZScsICc8aW5maWxlLm1hZT4nLCAnLW9tYWUnLCAnPG91dGZpbGUubWFlPic=

>  <r_lp_tautomer_probability>  (151) 
1

>  <r_epik_Ionization_Penalty>  (151) 
9.37625e-07

>  <r_epik_Ionization_Penalty_Charging>  (151) 
0

>  <r_epik_Ionization_Penalty_Neutral>  (151) 
9.37625e-07

>  <r_epik_State_Penalty>  (151) 
-0

>  <r_epik_Charging_Adjusted_Penalty>  (151) 
0

>  <i_epik_Tot_Q>  (151) 
0

>  <i_epik_Tot_abs_Q>  (151) 
0

>  <s_epik_Chemistry_Notes>  (151) 
This compound has an ester and may undergo hydrolysis at high or low pH.

>  <s_lp_Force_Field>  (151) 
OPLS3e

>  <r_lp_Energy>  (151) 
143.892

>  <b_lp_Chiralities_Consistent>  (151) 
1

>  <s_lp_Variant>  (151) 
57:0-1

>  <s_i_glide_gridfile>  (151) 
pfpi4k_grid

>  <i_i_glide_lignum>  (151) 
34

>  <i_i_glide_rotatable_bonds>  (151) 
5

>  <r_i_docking_score>  (151) 
-2.50144

>  <r_i_glide_ligand_efficiency>  (151) 
-0.0694843

>  <r_i_glide_ligand_efficiency_sa>  (151) 
-0.229432

>  <r_i_glide_ligand_efficiency_ln>  (151) 
-0.545746

>  <r_i_glide_gscore>  (151) 
-2.50144

>  <r_i_glide_lipo>  (151) 
-0.267355

>  <r_i_glide_hbond>  (151) 
-0.16

>  <r_i_glide_metal>  (151) 
-0

>  <r_i_glide_rewards>  (151) 
-0.00221901

>  <r_i_glide_evdw>  (151) 
-28.5511

>  <r_i_glide_ecoul>  (151) 
-4.83469

>  <r_i_glide_erotb>  (151) 
0.0808947

>  <r_i_glide_esite>  (151) 
0

>  <r_i_glide_emodel>  (151) 
-33.727

>  <r_i_glide_energy>  (151) 
-33.3858

>  <r_i_glide_einternal>  (151) 
7.87643

>  <r_i_glide_intrahb_reward>  (151) 
-0

>  <i_i_glide_confnum>  (151) 
3

>  <i_i_glide_posenum>  (151) 
20

>  <r_i_glide_eff_state_penalty>  (151) 
0

>  <ligand_id>  (151) 
57

>  <original_smiles>  (151) 
C=C(C)C1(O)CC(O)C23CCC(C)(C12)C1C2CC4OC(C5OC45)C1(COC2=O)C1(C)C(O)CC(O)C31

>  <smiles>  (151) 
[H]OC1([H])C([H])([H])C([H])(O[H])C2(C([H])([H])[H])C1([H])C13C([H])([H])C([H])([H])C(C([H])([H])[H])(C1([H])C(O[H])(C(=C([H])[H])C([H])([H])[H])C([H])([H])C3([H])O[H])C1([H])C3([H])C(=O)OC([H])([H])C12C1([H])OC([H])(C3([H])[H])C2([H])OC21[H]

$$$$
57:0:2
     RDKit          3D

 74 81  0  0  1  0  0  0  0  0999 V2000
    0.5477   -9.7890    5.1192 C   0  0  0  0  0  0  0  0  0  0  0  0
    1.3704   -8.7726    5.4364 C   0  0  0  0  0  0  0  0  0  0  0  0
    0.8974   -7.6787    6.3915 C   0  0  0  0  0  0  0  0  0  0  0  0
    2.8110   -8.6714    4.8946 C   0  0  1  0  0  0  0  0  0  0  0  0
    3.5974   -7.8822    5.7613 O   0  0  0  0  0  0  0  0  0  0  0  0
    3.5202  -10.0583    4.7216 C   0  0  0  0  0  0  0  0  0  0  0  0
    3.9956  -10.1795    3.2406 C   0  0  1  0  0  0  0  0  0  0  0  0
    3.0523  -10.9265    2.4891 O   0  0  0  0  0  0  0  0  0  0  0  0
    4.1442   -8.6966    2.7633 C   0  0  1  0  0  0  0  0  0  0  0  0
    3.8709   -8.3403    1.2893 C   0  0  0  0  0  0  0  0  0  0  0  0
    2.7728   -7.2515    1.3184 C   0  0  0  0  0  0  0  0  0  0  0  0
    2.5122   -6.8274    2.7858 C   0  0  1  0  0  0  0  0  0  0  0  0
    0.9671   -6.6277    2.9507 C   0  0  0  0  0  0  0  0  0  0  0  0
    2.8947   -8.1648    3.4362 C   0  0  2  0  0  0  0  0  0  0  0  0
    3.3456   -5.5772    3.3039 C   0  0  2  0  0  0  0  0  0  0  0  0
    2.5587   -4.2318    3.1531 C   0  0  2  0  0  0  0  0  0  0  0  0
    2.2852   -3.7319    1.7095 C   0  0  0  0  0  0  0  0  0  0  0  0
    3.4625   -3.2534    0.8459 C   0  0  1  0  0  0  0  0  0  0  0  0
    4.6261   -3.2235    1.6531 O   0  0  0  0  0  0  0  0  0  0  0  0
    5.2639   -4.5005    1.7090 C   0  0  2  0  0  0  0  0  0  0  0  0
    4.9439   -5.0414    0.3253 C   0  0  2  0  0  0  0  0  0  0  0  0
    5.1667   -4.1233   -0.7706 O   0  0  0  0  0  0  0  0  0  0  0  0
    3.8411   -4.2318   -0.2254 C   0  0  2  0  0  0  0  0  0  0  0  0
    4.9040   -5.3371    3.0385 C   0  0  1  0  0  0  0  0  0  0  0  0
    5.1882   -4.2516    4.1458 C   0  0  0  0  0  0  0  0  0  0  0  0
    4.3812   -3.0847    4.2585 O   0  0  0  0  0  0  0  0  0  0  0  0
    3.0685   -3.0884    4.0269 C   0  0  0  0  0  0  0  0  0  0  0  0
    2.3071   -2.2016    4.3843 O   0  0  0  0  0  0  0  0  0  0  0  0
    5.9549   -6.5778    3.3182 C   0  0  2  0  0  0  0  0  0  0  0  0
    6.6152   -6.4877    4.7509 C   0  0  0  0  0  0  0  0  0  0  0  0
    7.1593   -6.5729    2.3153 C   0  0  1  0  0  0  0  0  0  0  0  0
    8.1307   -5.5631    2.4955 O   0  0  0  0  0  0  0  0  0  0  0  0
    7.8363   -7.9168    2.3861 C   0  0  0  0  0  0  0  0  0  0  0  0
    6.7058   -8.8990    2.6033 C   0  0  1  0  0  0  0  0  0  0  0  0
    7.2184   -9.9261    3.4278 O   0  0  0  0  0  0  0  0  0  0  0  0
    5.5226   -8.1242    3.2650 C   0  0  2  0  0  0  0  0  0  0  0  0
   -0.4493   -9.8455    5.5347 H   0  0  0  0  0  0  0  0  0  0  0  0
    0.8303  -10.5896    4.4455 H   0  0  0  0  0  0  0  0  0  0  0  0
    1.0569   -6.6737    6.0032 H   0  0  0  0  0  0  0  0  0  0  0  0
    1.4325   -7.7455    7.3387 H   0  0  0  0  0  0  0  0  0  0  0  0
   -0.1691   -7.7990    6.5924 H   0  0  0  0  0  0  0  0  0  0  0  0
    3.2333   -7.0113    5.7556 H   0  0  0  0  0  0  0  0  0  0  0  0
    4.3829  -10.1109    5.3874 H   0  0  0  0  0  0  0  0  0  0  0  0
    2.9212  -10.9203    5.0095 H   0  0  0  0  0  0  0  0  0  0  0  0
    4.9083  -10.7615    3.1852 H   0  0  0  0  0  0  0  0  0  0  0  0
    3.4966  -11.3401    1.7485 H   0  0  0  0  0  0  0  0  0  0  0  0
    4.7687   -8.0048    0.7823 H   0  0  0  0  0  0  0  0  0  0  0  0
    3.5212   -9.2008    0.7234 H   0  0  0  0  0  0  0  0  0  0  0  0
    2.9366   -6.4333    0.6397 H   0  0  0  0  0  0  0  0  0  0  0  0
    1.8658   -7.7227    0.9354 H   0  0  0  0  0  0  0  0  0  0  0  0
    0.6955   -6.3101    3.9540 H   0  0  0  0  0  0  0  0  0  0  0  0
    0.4070   -7.5446    2.7524 H   0  0  0  0  0  0  0  0  0  0  0  0
    0.5591   -5.8872    2.2643 H   0  0  0  0  0  0  0  0  0  0  0  0
    2.0995   -8.7802    3.0158 H   0  0  0  0  0  0  0  0  0  0  0  0
    3.2923   -5.7410    4.3823 H   0  0  0  0  0  0  0  0  0  0  0  0
    1.5764   -4.3727    3.6038 H   0  0  0  0  0  0  0  0  0  0  0  0
    1.7787   -4.5158    1.1643 H   0  0  0  0  0  0  0  0  0  0  0  0
    1.5880   -2.8954    1.7900 H   0  0  0  0  0  0  0  0  0  0  0  0
    3.2492   -2.2848    0.3964 H   0  0  0  0  0  0  0  0  0  0  0  0
    6.3081   -4.2149    1.7056 H   0  0  0  0  0  0  0  0  0  0  0  0
    5.1034   -6.0765    0.0505 H   0  0  0  0  0  0  0  0  0  0  0  0
    3.0835   -4.6447   -0.8935 H   0  0  0  0  0  0  0  0  0  0  0  0
    5.1331   -4.6736    5.1466 H   0  0  0  0  0  0  0  0  0  0  0  0
    6.2030   -3.9051    4.0086 H   0  0  0  0  0  0  0  0  0  0  0  0
    7.3140   -7.3008    4.9466 H   0  0  0  0  0  0  0  0  0  0  0  0
    5.8756   -6.5622    5.5505 H   0  0  0  0  0  0  0  0  0  0  0  0
    7.2012   -5.5861    4.9194 H   0  0  0  0  0  0  0  0  0  0  0  0
    6.8113   -6.5108    1.2925 H   0  0  0  0  0  0  0  0  0  0  0  0
    8.5999   -5.7254    3.3025 H   0  0  0  0  0  0  0  0  0  0  0  0
    8.3764   -8.1217    1.4661 H   0  0  0  0  0  0  0  0  0  0  0  0
    8.5713   -7.9595    3.1937 H   0  0  0  0  0  0  0  0  0  0  0  0
    6.4207   -9.3205    1.6351 H   0  0  0  0  0  0  0  0  0  0  0  0
    6.5783  -10.6198    3.4912 H   0  0  0  0  0  0  0  0  0  0  0  0
    5.5510   -8.4589    4.3010 H   0  0  0  0  0  0  0  0  0  0  0  0
  1  2  2  0
  1 37  1  0
  1 38  1  0
  2  3  1  0
  2  4  1  0
  3 39  1  0
  3 40  1  0
  3 41  1  0
  4 14  1  0
  4  5  1  1
  4  6  1  0
  5 42  1  0
  6  7  1  0
  6 43  1  0
  6 44  1  0
  7  8  1  0
  7  9  1  0
  7 45  1  1
  8 46  1  0
  9 14  1  0
  9 36  1  0
  9 10  1  6
 10 11  1  0
 10 47  1  0
 10 48  1  0
 11 12  1  0
 11 49  1  0
 11 50  1  0
 12 13  1  6
 12 14  1  0
 12 15  1  0
 13 51  1  0
 13 52  1  0
 13 53  1  0
 14 54  1  6
 15 24  1  0
 15 16  1  0
 15 55  1  1
 16 27  1  0
 16 17  1  0
 16 56  1  1
 17 18  1  0
 17 57  1  0
 17 58  1  0
 18 23  1  0
 18 19  1  0
 18 59  1  6
 19 20  1  0
 20 21  1  0
 20 24  1  0
 20 60  1  6
 21 23  1  0
 21 22  1  0
 21 61  1  6
 22 23  1  0
 23 62  1  6
 24 25  1  1
 24 29  1  0
 25 26  1  0
 25 63  1  0
 25 64  1  0
 26 27  1  0
 27 28  2  0
 29 36  1  0
 29 30  1  1
 29 31  1  0
 30 65  1  0
 30 66  1  0
 30 67  1  0
 31 32  1  0
 31 33  1  0
 31 68  1  6
 32 69  1  0
 33 34  1  0
 33 70  1  0
 33 71  1  0
 34 35  1  0
 34 36  1  0
 34 72  1  6
 35 73  1  0
 36 74  1  1
M  END
>  <i_m_ct_stereo_status>  (152) 
1

>  <s_m_source_file>  (152) 
/var/tmp/pbs.5076255.sched01/tmpaqd8m8vp/41rn73ajce.sdf

>  <i_m_source_file_index>  (152) 
34

>  <i_lp_mmshare_version>  (152) 
48012

>  <i_f3d_flags>  (152) 
0

>  <s_epik_input>  (152) 
W09IXVtDQEBIXTFbQ0gyXVtDQF0oW09IXSkoQyg9W0NIMl0pW0NIM10pW0NASF0oW0NAQF0xMjMpW0NAXShbQ0gzXSkoW0NIMl1bQ0gyXTIpW0NASF00W0NAQF01KFtDQEBdNihbQ0gzXSlbQ0BASF0zW0NASF0oW09IXSlbQ0gyXVtDQEBIXTZbT0hdKVtDQEhdN1tDQEhdOFtDQEhdKE84KVtDQEhdKE83KVtDSDJdW0NAQEhdNEMoPU8pT1tDSDJdNQ==

>  <s_epik_cmdline>  (152) 
J2VwaWtfcHl0aG9uJywgJy1waHQnLCAnMi4wJywgJy1waCcsICc3LjAnLCAnLXRuJywgJzgnLCAnLW1hJywgJzIwMCcsICctaW1hZScsICc8aW5maWxlLm1hZT4nLCAnLW9tYWUnLCAnPG91dGZpbGUubWFlPic=

>  <r_lp_tautomer_probability>  (152) 
1

>  <r_epik_Ionization_Penalty>  (152) 
9.37625e-07

>  <r_epik_Ionization_Penalty_Charging>  (152) 
0

>  <r_epik_Ionization_Penalty_Neutral>  (152) 
9.37625e-07

>  <r_epik_State_Penalty>  (152) 
-0

>  <r_epik_Charging_Adjusted_Penalty>  (152) 
0

>  <i_epik_Tot_Q>  (152) 
0

>  <i_epik_Tot_abs_Q>  (152) 
0

>  <s_epik_Chemistry_Notes>  (152) 
This compound has an ester and may undergo hydrolysis at high or low pH.

>  <s_lp_Force_Field>  (152) 
OPLS3e

>  <r_lp_Energy>  (152) 
143.892

>  <b_lp_Chiralities_Consistent>  (152) 
1

>  <s_lp_Variant>  (152) 
57:0-1

>  <s_i_glide_gridfile>  (152) 
pfpi4k_grid

>  <i_i_glide_lignum>  (152) 
34

>  <i_i_glide_rotatable_bonds>  (152) 
5

>  <r_i_docking_score>  (152) 
-2.05764

>  <r_i_glide_ligand_efficiency>  (152) 
-0.0571567

>  <r_i_glide_ligand_efficiency_sa>  (152) 
-0.188727

>  <r_i_glide_ligand_efficiency_ln>  (152) 
-0.448922

>  <r_i_glide_gscore>  (152) 
-2.05764

>  <r_i_glide_lipo>  (152) 
-0.206273

>  <r_i_glide_hbond>  (152) 
-0.16

>  <r_i_glide_metal>  (152) 
-0

>  <r_i_glide_rewards>  (152) 
-6.79233e-05

>  <r_i_glide_evdw>  (152) 
-22.7606

>  <r_i_glide_ecoul>  (152) 
-4.22776

>  <r_i_glide_erotb>  (152) 
0.0808947

>  <r_i_glide_esite>  (152) 
0

>  <r_i_glide_emodel>  (152) 
-30.7365

>  <r_i_glide_energy>  (152) 
-26.9884

>  <r_i_glide_einternal>  (152) 
1.32565

>  <r_i_glide_intrahb_reward>  (152) 
-0

>  <i_i_glide_confnum>  (152) 
3

>  <i_i_glide_posenum>  (152) 
1

>  <r_i_glide_eff_state_penalty>  (152) 
0

>  <ligand_id>  (152) 
57

>  <original_smiles>  (152) 
C=C(C)C1(O)CC(O)C23CCC(C)(C12)C1C2CC4OC(C5OC45)C1(COC2=O)C1(C)C(O)CC(O)C31

>  <smiles>  (152) 
[H]OC1([H])C([H])([H])C([H])(O[H])C2(C([H])([H])[H])C1([H])C13C([H])([H])C([H])([H])C(C([H])([H])[H])(C1([H])C(O[H])(C(=C([H])[H])C([H])([H])[H])C([H])([H])C3([H])O[H])C1([H])C3([H])C(=O)OC([H])([H])C12C1([H])OC([H])(C3([H])[H])C2([H])OC21[H]

$$$$
59:0:0
     RDKit          3D

 66 71  0  0  1  0  0  0  0  0999 V2000
    8.9652   -4.2114    0.6391 O   0  0  0  0  0  0  0  0  0  0  0  0
    7.9498   -3.7553    0.1032 C   0  0  0  0  0  0  0  0  0  0  0  0
    8.0755   -2.8362   -1.1194 C   0  0  0  0  0  0  0  0  0  0  0  0
    7.0204   -1.8686   -1.1697 O   0  0  0  0  0  0  0  0  0  0  0  0
    5.7591   -2.3903   -1.0514 C   0  0  0  0  0  0  0  0  0  0  0  0
    4.7077   -1.7906   -1.7556 C   0  0  0  0  0  0  0  0  0  0  0  0
    3.4146   -2.3243   -1.6473 C   0  0  0  0  0  0  0  0  0  0  0  0
    3.1863   -3.4312   -0.8122 C   0  0  0  0  0  0  0  0  0  0  0  0
    4.2354   -4.0063   -0.0863 C   0  0  0  0  0  0  0  0  0  0  0  0
    5.5626   -3.4893   -0.2028 C   0  0  0  0  0  0  0  0  0  0  0  0
    6.6861   -4.0282    0.5160 N   0  0  0  0  0  0  0  0  0  0  0  0
    6.4424   -4.9338    1.6393 C   0  0  0  0  0  0  0  0  0  0  0  0
    6.1134   -6.3288    1.1008 C   0  0  0  0  0  0  0  0  0  0  0  0
    4.9630   -6.8937    1.8453 N   0  0  1  0  0  0  0  0  0  0  0  0
    4.1735   -7.8428    1.0087 C   0  0  0  0  0  0  0  0  0  0  0  0
    2.9587   -8.3918    1.7763 C   0  0  0  0  0  0  0  0  0  0  0  0
    3.3505   -9.0571    3.1455 C   0  0  2  0  0  0  0  0  0  0  0  0
    4.1505  -10.3620    2.9321 C   0  0  0  0  0  0  0  0  0  0  0  0
    5.1945  -10.4329    2.2484 O   0  0  0  0  0  0  0  0  0  0  0  0
    3.6124  -11.3467    3.6416 N   0  0  0  0  0  0  0  0  0  0  0  0
    2.4157  -10.9187    4.3806 C   0  0  0  0  0  0  0  0  0  0  0  0
    2.1986   -9.5343    3.9179 N   0  0  0  0  0  0  0  0  0  0  0  0
    0.8706   -9.0900    3.7222 C   0  0  0  0  0  0  0  0  0  0  0  0
    0.3833   -7.9592    4.4033 C   0  0  0  0  0  0  0  0  0  0  0  0
   -0.9515   -7.5384    4.2400 C   0  0  0  0  0  0  0  0  0  0  0  0
   -1.8092   -8.2435    3.3814 C   0  0  0  0  0  0  0  0  0  0  0  0
   -1.3336   -9.3700    2.7025 C   0  0  0  0  0  0  0  0  0  0  0  0
   -0.0128   -9.8080    2.8699 C   0  0  0  0  0  0  0  0  0  0  0  0
    4.2437   -8.0463    3.9635 C   0  0  1  0  0  0  0  0  0  0  0  0
    4.7686   -8.6479    5.2833 C   0  0  0  0  0  0  0  0  0  0  0  0
    3.9481   -8.7358    6.4259 C   0  0  0  0  0  0  0  0  0  0  0  0
    4.4166   -9.4177    7.5671 C   0  0  0  0  0  0  0  0  0  0  0  0
    5.7107   -9.9786    7.5391 C   0  0  0  0  0  0  0  0  0  0  0  0
    6.5126   -9.8730    6.4663 N   0  0  0  0  0  0  0  0  0  0  0  0
    6.0653   -9.2280    5.3806 C   0  0  0  0  0  0  0  0  0  0  0  0
    5.4120   -7.4657    3.1325 C   0  0  0  0  0  0  0  0  0  0  0  0
    9.0201   -2.3039   -1.0634 H   0  0  0  0  0  0  0  0  0  0  0  0
    8.0849   -3.4512   -2.0243 H   0  0  0  0  0  0  0  0  0  0  0  0
    4.8934   -0.9399   -2.3888 H   0  0  0  0  0  0  0  0  0  0  0  0
    2.6050   -1.8851   -2.1885 H   0  0  0  0  0  0  0  0  0  0  0  0
    2.1931   -3.8418   -0.7279 H   0  0  0  0  0  0  0  0  0  0  0  0
    4.0035   -4.8412    0.5463 H   0  0  0  0  0  0  0  0  0  0  0  0
    7.2837   -5.0381    2.3281 H   0  0  0  0  0  0  0  0  0  0  0  0
    5.6371   -4.5235    2.2529 H   0  0  0  0  0  0  0  0  0  0  0  0
    5.8791   -6.2662    0.0423 H   0  0  0  0  0  0  0  0  0  0  0  0
    6.9945   -6.9811    1.1419 H   0  0  0  0  0  0  0  0  0  0  0  0
    3.8088   -7.3282    0.1156 H   0  0  0  0  0  0  0  0  0  0  0  0
    4.8077   -8.6505    0.6384 H   0  0  0  0  0  0  0  0  0  0  0  0
    2.2632   -7.5757    1.9548 H   0  0  0  0  0  0  0  0  0  0  0  0
    2.4087   -9.1047    1.1517 H   0  0  0  0  0  0  0  0  0  0  0  0
    4.1262  -12.1944    3.8584 H   0  0  0  0  0  0  0  0  0  0  0  0
    1.6047  -11.6291    4.1852 H   0  0  0  0  0  0  0  0  0  0  0  0
    2.6382  -10.9068    5.4523 H   0  0  0  0  0  0  0  0  0  0  0  0
    1.0440   -7.3948    5.0436 H   0  0  0  0  0  0  0  0  0  0  0  0
   -1.3303   -6.6938    4.7723 H   0  0  0  0  0  0  0  0  0  0  0  0
   -2.8378   -7.9578    3.3084 H   0  0  0  0  0  0  0  0  0  0  0  0
   -2.0089   -9.9028    2.0590 H   0  0  0  0  0  0  0  0  0  0  0  0
    0.3479  -10.6629    2.3285 H   0  0  0  0  0  0  0  0  0  0  0  0
    3.5949   -7.2204    4.2447 H   0  0  0  0  0  0  0  0  0  0  0  0
    2.9303   -8.3709    6.4050 H   0  0  0  0  0  0  0  0  0  0  0  0
    3.7778   -9.6037    8.4230 H   0  0  0  0  0  0  0  0  0  0  0  0
    6.1285  -10.5306    8.3741 H   0  0  0  0  0  0  0  0  0  0  0  0
    6.7426   -9.2858    4.5449 H   0  0  0  0  0  0  0  0  0  0  0  0
    6.1319   -8.2436    2.8695 H   0  0  0  0  0  0  0  0  0  0  0  0
    5.9368   -6.7022    3.7319 H   0  0  0  0  0  0  0  0  0  0  0  0
    4.3258   -6.1335    2.0649 H   0  0  0  0  0  0  0  0  0  0  0  0
  1  2  2  0
  2 11  1  0
  2  3  1  0
  3  4  1  0
  3 37  1  0
  3 38  1  0
  4  5  1  0
  5 10  2  0
  5  6  1  0
  6  7  2  0
  6 39  1  0
  7  8  1  0
  7 40  1  0
  8  9  2  0
  8 41  1  0
  9 10  1  0
  9 42  1  0
 10 11  1  0
 11 12  1  0
 12 13  1  0
 12 43  1  0
 12 44  1  0
 13 14  1  0
 13 45  1  0
 13 46  1  0
 14 36  1  0
 14 15  1  0
 14 66  1  1
 15 16  1  0
 15 47  1  0
 15 48  1  0
 16 17  1  0
 16 49  1  0
 16 50  1  0
 17 22  1  1
 17 18  1  0
 17 29  1  0
 18 19  2  0
 18 20  1  0
 20 21  1  0
 20 51  1  0
 21 22  1  0
 21 52  1  0
 21 53  1  0
 22 23  1  0
 23 28  1  0
 23 24  2  0
 24 25  1  0
 24 54  1  0
 25 26  2  0
 25 55  1  0
 26 27  1  0
 26 56  1  0
 27 28  2  0
 27 57  1  0
 28 58  1  0
 29 30  1  0
 29 36  1  0
 29 59  1  1
 30 35  1  0
 30 31  2  0
 31 32  1  0
 31 60  1  0
 32 33  2  0
 32 61  1  0
 33 34  1  0
 33 62  1  0
 34 35  2  0
 35 63  1  0
 36 64  1  0
 36 65  1  0
M  CHG  1  14   1
M  END
>  <i_m_ct_stereo_status>  (153) 
1

>  <s_m_source_file>  (153) 
/var/tmp/pbs.5076255.sched01/tmpaqd8m8vp/41rn73ajce.sdf

>  <i_m_source_file_index>  (153) 
36

>  <i_lp_mmshare_version>  (153) 
48012

>  <i_f3d_flags>  (153) 
0

>  <s_epik_input>  (153) 
W2NIXTFbY0hdW2NIXVtjSF1jKGMxMilOKEMoPU8pW0NIMl1PMilbQ0gyXVtDSDJdTihbQ0gyXVtDQEBIXTNjNFtjSF1bY0hdW2NIXW5bY0hdNClbQ0gyXVtDSDJdW0NAQF0zNUMoPU8pW05IXVtDSDJdTjVjNltjSF1bY0hdW2NIXVtjSF1bY0hdNg==

>  <s_epik_cmdline>  (153) 
J2VwaWtfcHl0aG9uJywgJy1waHQnLCAnMi4wJywgJy1waCcsICc3LjAnLCAnLXRuJywgJzgnLCAnLW1hJywgJzIwMCcsICctaW1hZScsICc8aW5maWxlLm1hZT4nLCAnLW9tYWUnLCAnPG91dGZpbGUubWFlPic=

>  <r_lp_tautomer_probability>  (153) 
1

>  <r_epik_Ionization_Penalty>  (153) 
0.169608

>  <r_epik_Ionization_Penalty_Charging>  (153) 
0.168958

>  <r_epik_Ionization_Penalty_Neutral>  (153) 
0.000649438

>  <r_epik_State_Penalty>  (153) 
0.102896

>  <r_epik_Charging_Adjusted_Penalty>  (153) 
0.271855

>  <i_epik_Tot_Q>  (153) 
1

>  <i_epik_Tot_abs_Q>  (153) 
1

>  <s_epik_Chemistry_Notes>  (153) 
This compound contains an acetal/aminal-like group ( X-CH(R)-Y where X, Y are N, S, or O) that may be acid/base labile, releasing an aldehyde.

>  <s_lp_Force_Field>  (153) 
OPLS3e

>  <r_lp_Energy>  (153) 
69.7157

>  <b_lp_Chiralities_Consistent>  (153) 
1

>  <s_lp_Variant>  (153) 
59:0-1

>  <s_i_glide_gridfile>  (153) 
pfpi4k_grid

>  <i_i_glide_lignum>  (153) 
36

>  <i_i_glide_rotatable_bonds>  (153) 
5

>  <r_i_docking_score>  (153) 
-3.24827

>  <r_i_glide_ligand_efficiency>  (153) 
-0.0902298

>  <r_i_glide_ligand_efficiency_sa>  (153) 
-0.297932

>  <r_i_glide_ligand_efficiency_ln>  (153) 
-0.708686

>  <r_i_glide_gscore>  (153) 
-3.24827

>  <r_i_glide_lipo>  (153) 
-0.407978

>  <r_i_glide_hbond>  (153) 
-0.184948

>  <r_i_glide_metal>  (153) 
-0

>  <r_i_glide_rewards>  (153) 
-0.522549

>  <r_i_glide_evdw>  (153) 
-35.6748

>  <r_i_glide_ecoul>  (153) 
-4.42534

>  <r_i_glide_erotb>  (153) 
0.432458

>  <r_i_glide_esite>  (153) 
-0.117717

>  <r_i_glide_emodel>  (153) 
-40.3324

>  <r_i_glide_energy>  (153) 
-40.1001

>  <r_i_glide_einternal>  (153) 
12.339

>  <r_i_glide_intrahb_reward>  (153) 
-0

>  <i_i_glide_confnum>  (153) 
3

>  <i_i_glide_posenum>  (153) 
35

>  <r_i_glide_eff_state_penalty>  (153) 
0

>  <ligand_id>  (153) 
59

>  <original_smiles>  (153) 
O=C1COc2ccccc2N1CCN1CCC2(C(=O)NCN2c2ccccc2)C(c2cccnc2)C1

>  <smiles>  (153) 
[H]c1nc([H])c(C2([H])C3(C(=O)N([H])C([H])([H])N3c3c([H])c([H])c([H])c([H])c3[H])C([H])([H])C([H])([H])[N+]([H])(C([H])([H])C([H])([H])N3C(=O)C([H])([H])Oc4c([H])c([H])c([H])c([H])c43)C2([H])[H])c([H])c1[H]

$$$$
59:0:1
     RDKit          3D

 66 71  0  0  1  0  0  0  0  0999 V2000
    1.7512   -1.3584    7.1561 O   0  0  0  0  0  0  0  0  0  0  0  0
    0.9136   -0.4574    7.0233 C   0  0  0  0  0  0  0  0  0  0  0  0
    0.4491    0.3516    8.2418 C   0  0  0  0  0  0  0  0  0  0  0  0
   -0.9193    0.7605    8.1096 O   0  0  0  0  0  0  0  0  0  0  0  0
   -1.2364    1.3510    6.9055 C   0  0  0  0  0  0  0  0  0  0  0  0
   -2.2203    2.3457    6.8727 C   0  0  0  0  0  0  0  0  0  0  0  0
   -2.5310    2.9589    5.6508 C   0  0  0  0  0  0  0  0  0  0  0  0
   -1.8768    2.5697    4.4678 C   0  0  0  0  0  0  0  0  0  0  0  0
   -0.9096    1.5599    4.4996 C   0  0  0  0  0  0  0  0  0  0  0  0
   -0.5873    0.9271    5.7374 C   0  0  0  0  0  0  0  0  0  0  0  0
    0.3683   -0.1273    5.8307 N   0  0  0  0  0  0  0  0  0  0  0  0
    0.7955   -0.8217    4.6235 C   0  0  0  0  0  0  0  0  0  0  0  0
    2.1017   -0.2009    4.1275 C   0  0  0  0  0  0  0  0  0  0  0  0
    2.4536   -0.7556    2.7991 N   0  0  1  0  0  0  0  0  0  0  0  0
    3.4300    0.1243    2.1102 C   0  0  0  0  0  0  0  0  0  0  0  0
    3.7920   -0.4370    0.7381 C   0  0  0  0  0  0  0  0  0  0  0  0
    4.3346   -1.9175    0.7454 C   0  0  2  0  0  0  0  0  0  0  0  0
    5.7199   -1.9773    1.4034 C   0  0  0  0  0  0  0  0  0  0  0  0
    5.9929   -1.4187    2.4908 O   0  0  0  0  0  0  0  0  0  0  0  0
    6.5553   -2.7021    0.6634 N   0  0  0  0  0  0  0  0  0  0  0  0
    5.9336   -3.1593   -0.5894 C   0  0  0  0  0  0  0  0  0  0  0  0
    4.6239   -2.4762   -0.5782 N   0  0  0  0  0  0  0  0  0  0  0  0
    4.1296   -2.0021   -1.8050 C   0  0  0  0  0  0  0  0  0  0  0  0
    3.3800   -2.8574   -2.6449 C   0  0  0  0  0  0  0  0  0  0  0  0
    2.8829   -2.4089   -3.8798 C   0  0  0  0  0  0  0  0  0  0  0  0
    3.1076   -1.1000   -4.2967 C   0  0  0  0  0  0  0  0  0  0  0  0
    3.8541   -0.2285   -3.4739 C   0  0  0  0  0  0  0  0  0  0  0  0
    4.3987   -0.6896   -2.2764 C   0  0  0  0  0  0  0  0  0  0  0  0
    3.3195   -2.7980    1.5736 C   0  0  1  0  0  0  0  0  0  0  0  0
    3.8132   -4.2457    1.7796 C   0  0  0  0  0  0  0  0  0  0  0  0
    4.5161   -4.6415    2.9444 C   0  0  0  0  0  0  0  0  0  0  0  0
    5.0647   -5.9239    3.0313 C   0  0  0  0  0  0  0  0  0  0  0  0
    4.9012   -6.8039    1.9431 C   0  0  0  0  0  0  0  0  0  0  0  0
    4.1986   -6.4590    0.8463 N   0  0  0  0  0  0  0  0  0  0  0  0
    3.6626   -5.2237    0.7701 C   0  0  0  0  0  0  0  0  0  0  0  0
    2.9385   -2.1573    2.9322 C   0  0  0  0  0  0  0  0  0  0  0  0
    0.5799   -0.2508    9.1436 H   0  0  0  0  0  0  0  0  0  0  0  0
    1.0844    1.2337    8.3486 H   0  0  0  0  0  0  0  0  0  0  0  0
   -2.7057    2.6474    7.7836 H   0  0  0  0  0  0  0  0  0  0  0  0
   -3.2689    3.7257    5.6309 H   0  0  0  0  0  0  0  0  0  0  0  0
   -2.1118    3.0433    3.5265 H   0  0  0  0  0  0  0  0  0  0  0  0
   -0.4222    1.2944    3.5732 H   0  0  0  0  0  0  0  0  0  0  0  0
    0.9169   -1.8792    4.8416 H   0  0  0  0  0  0  0  0  0  0  0  0
    0.0584   -0.8083    3.8201 H   0  0  0  0  0  0  0  0  0  0  0  0
    2.0020    0.8820    4.0667 H   0  0  0  0  0  0  0  0  0  0  0  0
    2.9231   -0.3636    4.8344 H   0  0  0  0  0  0  0  0  0  0  0  0
    3.0167    1.1221    1.9522 H   0  0  0  0  0  0  0  0  0  0  0  0
    4.3220    0.2802    2.7174 H   0  0  0  0  0  0  0  0  0  0  0  0
    2.9124   -0.3962    0.1072 H   0  0  0  0  0  0  0  0  0  0  0  0
    4.5445    0.2408    0.3392 H   0  0  0  0  0  0  0  0  0  0  0  0
    7.4064   -3.1077    1.0550 H   0  0  0  0  0  0  0  0  0  0  0  0
    6.5748   -2.8923   -1.4242 H   0  0  0  0  0  0  0  0  0  0  0  0
    5.7922   -4.2336   -0.5521 H   0  0  0  0  0  0  0  0  0  0  0  0
    3.1352   -3.8410   -2.2903 H   0  0  0  0  0  0  0  0  0  0  0  0
    2.2856   -3.0704   -4.4876 H   0  0  0  0  0  0  0  0  0  0  0  0
    2.7391   -0.6880   -5.2202 H   0  0  0  0  0  0  0  0  0  0  0  0
    3.9984    0.7809   -3.7708 H   0  0  0  0  0  0  0  0  0  0  0  0
    4.9723    0.0015   -1.6747 H   0  0  0  0  0  0  0  0  0  0  0  0
    2.4100   -2.8635    0.9856 H   0  0  0  0  0  0  0  0  0  0  0  0
    4.7285   -3.9617    3.7548 H   0  0  0  0  0  0  0  0  0  0  0  0
    5.6598   -6.2029    3.8929 H   0  0  0  0  0  0  0  0  0  0  0  0
    5.3404   -7.7950    1.9706 H   0  0  0  0  0  0  0  0  0  0  0  0
    3.1955   -4.9796   -0.1685 H   0  0  0  0  0  0  0  0  0  0  0  0
    3.7962   -2.1145    3.6098 H   0  0  0  0  0  0  0  0  0  0  0  0
    2.1862   -2.8134    3.3946 H   0  0  0  0  0  0  0  0  0  0  0  0
    1.6286   -0.7551    2.2066 H   0  0  0  0  0  0  0  0  0  0  0  0
  1  2  2  0
  2 11  1  0
  2  3  1  0
  3  4  1  0
  3 37  1  0
  3 38  1  0
  4  5  1  0
  5 10  2  0
  5  6  1  0
  6  7  2  0
  6 39  1  0
  7  8  1  0
  7 40  1  0
  8  9  2  0
  8 41  1  0
  9 10  1  0
  9 42  1  0
 10 11  1  0
 11 12  1  0
 12 13  1  0
 12 43  1  0
 12 44  1  0
 13 14  1  0
 13 45  1  0
 13 46  1  0
 14 36  1  0
 14 15  1  0
 14 66  1  6
 15 16  1  0
 15 47  1  0
 15 48  1  0
 16 17  1  0
 16 49  1  0
 16 50  1  0
 17 22  1  6
 17 18  1  0
 17 29  1  0
 18 19  2  0
 18 20  1  0
 20 21  1  0
 20 51  1  0
 21 22  1  0
 21 52  1  0
 21 53  1  0
 22 23  1  0
 23 28  1  0
 23 24  2  0
 24 25  1  0
 24 54  1  0
 25 26  2  0
 25 55  1  0
 26 27  1  0
 26 56  1  0
 27 28  2  0
 27 57  1  0
 28 58  1  0
 29 30  1  0
 29 36  1  0
 29 59  1  6
 30 35  1  0
 30 31  2  0
 31 32  1  0
 31 60  1  0
 32 33  2  0
 32 61  1  0
 33 34  1  0
 33 62  1  0
 34 35  2  0
 35 63  1  0
 36 64  1  0
 36 65  1  0
M  CHG  1  14   1
M  END
>  <i_m_ct_stereo_status>  (154) 
1

>  <s_m_source_file>  (154) 
/var/tmp/pbs.5076255.sched01/tmpaqd8m8vp/41rn73ajce.sdf

>  <i_m_source_file_index>  (154) 
36

>  <i_lp_mmshare_version>  (154) 
48012

>  <i_f3d_flags>  (154) 
0

>  <s_epik_input>  (154) 
W2NIXTFbY0hdW2NIXVtjSF1jKGMxMilOKEMoPU8pW0NIMl1PMilbQ0gyXVtDSDJdTihbQ0gyXVtDQEBIXTNjNFtjSF1bY0hdW2NIXW5bY0hdNClbQ0gyXVtDSDJdW0NAQF0zNUMoPU8pW05IXVtDSDJdTjVjNltjSF1bY0hdW2NIXVtjSF1bY0hdNg==

>  <s_epik_cmdline>  (154) 
J2VwaWtfcHl0aG9uJywgJy1waHQnLCAnMi4wJywgJy1waCcsICc3LjAnLCAnLXRuJywgJzgnLCAnLW1hJywgJzIwMCcsICctaW1hZScsICc8aW5maWxlLm1hZT4nLCAnLW9tYWUnLCAnPG91dGZpbGUubWFlPic=

>  <r_lp_tautomer_probability>  (154) 
1

>  <r_epik_Ionization_Penalty>  (154) 
0.169608

>  <r_epik_Ionization_Penalty_Charging>  (154) 
0.168958

>  <r_epik_Ionization_Penalty_Neutral>  (154) 
0.000649438

>  <r_epik_State_Penalty>  (154) 
0.102896

>  <r_epik_Charging_Adjusted_Penalty>  (154) 
0.271855

>  <i_epik_Tot_Q>  (154) 
1

>  <i_epik_Tot_abs_Q>  (154) 
1

>  <s_epik_Chemistry_Notes>  (154) 
This compound contains an acetal/aminal-like group ( X-CH(R)-Y where X, Y are N, S, or O) that may be acid/base labile, releasing an aldehyde.

>  <s_lp_Force_Field>  (154) 
OPLS3e

>  <r_lp_Energy>  (154) 
69.7157

>  <b_lp_Chiralities_Consistent>  (154) 
1

>  <s_lp_Variant>  (154) 
59:0-1

>  <s_i_glide_gridfile>  (154) 
pfpi4k_grid

>  <i_i_glide_lignum>  (154) 
36

>  <i_i_glide_rotatable_bonds>  (154) 
5

>  <r_i_docking_score>  (154) 
-3.174

>  <r_i_glide_ligand_efficiency>  (154) 
-0.0881666

>  <r_i_glide_ligand_efficiency_sa>  (154) 
-0.29112

>  <r_i_glide_ligand_efficiency_ln>  (154) 
-0.69248

>  <r_i_glide_gscore>  (154) 
-3.174

>  <r_i_glide_lipo>  (154) 
-0.530519

>  <r_i_glide_hbond>  (154) 
-0.0492468

>  <r_i_glide_metal>  (154) 
-0

>  <r_i_glide_rewards>  (154) 
-0.340141

>  <r_i_glide_evdw>  (154) 
-34.9381

>  <r_i_glide_ecoul>  (154) 
-5.9728

>  <r_i_glide_erotb>  (154) 
0.432458

>  <r_i_glide_esite>  (154) 
-0.04372

>  <r_i_glide_emodel>  (154) 
-44.221

>  <r_i_glide_energy>  (154) 
-40.9109

>  <r_i_glide_einternal>  (154) 
5.12517

>  <r_i_glide_intrahb_reward>  (154) 
-0

>  <i_i_glide_confnum>  (154) 
3

>  <i_i_glide_posenum>  (154) 
17

>  <r_i_glide_eff_state_penalty>  (154) 
0

>  <ligand_id>  (154) 
59

>  <original_smiles>  (154) 
O=C1COc2ccccc2N1CCN1CCC2(C(=O)NCN2c2ccccc2)C(c2cccnc2)C1

>  <smiles>  (154) 
[H]c1nc([H])c(C2([H])C3(C(=O)N([H])C([H])([H])N3c3c([H])c([H])c([H])c([H])c3[H])C([H])([H])C([H])([H])[N+]([H])(C([H])([H])C([H])([H])N3C(=O)C([H])([H])Oc4c([H])c([H])c([H])c([H])c43)C2([H])[H])c([H])c1[H]

$$$$
59:0:2
     RDKit          3D

 66 71  0  0  1  0  0  0  0  0999 V2000
    3.0556    4.8057    2.6422 O   0  0  0  0  0  0  0  0  0  0  0  0
    2.0201    4.6122    3.2877 C   0  0  0  0  0  0  0  0  0  0  0  0
    1.4300    5.7635    4.1262 C   0  0  0  0  0  0  0  0  0  0  0  0
    0.8058    5.2785    5.3308 O   0  0  0  0  0  0  0  0  0  0  0  0
   -0.0495    4.2282    5.1438 C   0  0  0  0  0  0  0  0  0  0  0  0
   -1.1550    4.0932    5.9918 C   0  0  0  0  0  0  0  0  0  0  0  0
   -2.0786    3.0638    5.7797 C   0  0  0  0  0  0  0  0  0  0  0  0
   -1.8794    2.1456    4.7321 C   0  0  0  0  0  0  0  0  0  0  0  0
   -0.7741    2.2752    3.8846 C   0  0  0  0  0  0  0  0  0  0  0  0
    0.1647    3.2980    4.0970 C   0  0  0  0  0  0  0  0  0  0  0  0
    1.3388    3.4464    3.2973 N   0  0  0  0  0  0  0  0  0  0  0  0
    1.7190    2.3489    2.3887 C   0  0  0  0  0  0  0  0  0  0  0  0
    2.0924    1.0854    3.1650 C   0  0  0  0  0  0  0  0  0  0  0  0
    2.3891   -0.0238    2.2324 N   0  0  1  0  0  0  0  0  0  0  0  0
    3.7244    0.1563    1.5830 C   0  0  0  0  0  0  0  0  0  0  0  0
    4.0261   -0.9870    0.6166 C   0  0  0  0  0  0  0  0  0  0  0  0
    3.9641   -2.3814    1.2938 C   0  0  2  0  0  0  0  0  0  0  0  0
    5.1285   -2.5913    2.2922 C   0  0  0  0  0  0  0  0  0  0  0  0
    5.4342   -1.7792    3.1651 O   0  0  0  0  0  0  0  0  0  0  0  0
    5.7629   -3.7387    2.0279 N   0  0  0  0  0  0  0  0  0  0  0  0
    5.1788   -4.4511    0.9075 C   0  0  0  0  0  0  0  0  0  0  0  0
    4.1823   -3.4807    0.3376 N   0  0  0  0  0  0  0  0  0  0  0  0
    4.0406   -3.3963   -1.0651 C   0  0  0  0  0  0  0  0  0  0  0  0
    2.7845   -3.1215   -1.6260 C   0  0  0  0  0  0  0  0  0  0  0  0
    2.6488   -3.0286   -3.0179 C   0  0  0  0  0  0  0  0  0  0  0  0
    3.7439   -3.2436   -3.8548 C   0  0  0  0  0  0  0  0  0  0  0  0
    4.9927   -3.5353   -3.2893 C   0  0  0  0  0  0  0  0  0  0  0  0
    5.1456   -3.6187   -1.9036 C   0  0  0  0  0  0  0  0  0  0  0  0
    2.5908   -2.5279    2.0523 C   0  0  1  0  0  0  0  0  0  0  0  0
    2.4714   -3.8539    2.8328 C   0  0  0  0  0  0  0  0  0  0  0  0
    2.7980   -3.9463    4.2061 C   0  0  0  0  0  0  0  0  0  0  0  0
    2.8251   -5.2023    4.8367 C   0  0  0  0  0  0  0  0  0  0  0  0
    2.5040   -6.3469    4.0828 C   0  0  0  0  0  0  0  0  0  0  0  0
    2.1344   -6.2724    2.7850 N   0  0  0  0  0  0  0  0  0  0  0  0
    2.1179   -5.0593    2.1861 C   0  0  0  0  0  0  0  0  0  0  0  0
    2.2732   -1.3118    2.9632 C   0  0  0  0  0  0  0  0  0  0  0  0
    2.2419    6.4547    4.3509 H   0  0  0  0  0  0  0  0  0  0  0  0
    0.7044    6.3049    3.5077 H   0  0  0  0  0  0  0  0  0  0  0  0
   -1.2914    4.8188    6.7843 H   0  0  0  0  0  0  0  0  0  0  0  0
   -2.9432    2.9824    6.4110 H   0  0  0  0  0  0  0  0  0  0  0  0
   -2.5401    1.3183    4.5529 H   0  0  0  0  0  0  0  0  0  0  0  0
   -0.6879    1.5576    3.0787 H   0  0  0  0  0  0  0  0  0  0  0  0
    0.9237    2.1503    1.6607 H   0  0  0  0  0  0  0  0  0  0  0  0
    2.5814    2.6099    1.7778 H   0  0  0  0  0  0  0  0  0  0  0  0
    2.9189    1.2921    3.8481 H   0  0  0  0  0  0  0  0  0  0  0  0
    1.2930    0.7834    3.8428 H   0  0  0  0  0  0  0  0  0  0  0  0
    3.7957    1.0552    0.9621 H   0  0  0  0  0  0  0  0  0  0  0  0
    4.5149    0.2723    2.3283 H   0  0  0  0  0  0  0  0  0  0  0  0
    3.2961   -0.9010   -0.1919 H   0  0  0  0  0  0  0  0  0  0  0  0
    5.0017   -0.8241    0.1417 H   0  0  0  0  0  0  0  0  0  0  0  0
    6.2778   -4.2136    2.7408 H   0  0  0  0  0  0  0  0  0  0  0  0
    6.0131   -4.7655    0.2472 H   0  0  0  0  0  0  0  0  0  0  0  0
    4.6281   -5.3514    1.2244 H   0  0  0  0  0  0  0  0  0  0  0  0
    1.9302   -2.9327   -0.9995 H   0  0  0  0  0  0  0  0  0  0  0  0
    1.6977   -2.8032   -3.4670 H   0  0  0  0  0  0  0  0  0  0  0  0
    3.5850   -3.2442   -4.9157 H   0  0  0  0  0  0  0  0  0  0  0  0
    5.8359   -3.7246   -3.9243 H   0  0  0  0  0  0  0  0  0  0  0  0
    6.1343   -3.8070   -1.5136 H   0  0  0  0  0  0  0  0  0  0  0  0
    1.8158   -2.5431    1.2807 H   0  0  0  0  0  0  0  0  0  0  0  0
    3.1457   -3.1027    4.7822 H   0  0  0  0  0  0  0  0  0  0  0  0
    3.1619   -5.2800    5.8640 H   0  0  0  0  0  0  0  0  0  0  0  0
    2.5443   -7.3318    4.5362 H   0  0  0  0  0  0  0  0  0  0  0  0
    1.9224   -5.0840    1.1237 H   0  0  0  0  0  0  0  0  0  0  0  0
    2.9912   -1.2314    3.7899 H   0  0  0  0  0  0  0  0  0  0  0  0
    1.2529   -1.4387    3.3834 H   0  0  0  0  0  0  0  0  0  0  0  0
    1.6869   -0.0273    1.4973 H   0  0  0  0  0  0  0  0  0  0  0  0
  1  2  2  0
  2 11  1  0
  2  3  1  0
  3  4  1  0
  3 37  1  0
  3 38  1  0
  4  5  1  0
  5 10  2  0
  5  6  1  0
  6  7  2  0
  6 39  1  0
  7  8  1  0
  7 40  1  0
  8  9  2  0
  8 41  1  0
  9 10  1  0
  9 42  1  0
 10 11  1  0
 11 12  1  0
 12 13  1  0
 12 43  1  0
 12 44  1  0
 13 14  1  0
 13 45  1  0
 13 46  1  0
 14 36  1  0
 14 15  1  0
 14 66  1  6
 15 16  1  0
 15 47  1  0
 15 48  1  0
 16 17  1  0
 16 49  1  0
 16 50  1  0
 17 22  1  6
 17 18  1  0
 17 29  1  0
 18 19  2  0
 18 20  1  0
 20 21  1  0
 20 51  1  0
 21 22  1  0
 21 52  1  0
 21 53  1  0
 22 23  1  0
 23 28  1  0
 23 24  2  0
 24 25  1  0
 24 54  1  0
 25 26  2  0
 25 55  1  0
 26 27  1  0
 26 56  1  0
 27 28  2  0
 27 57  1  0
 28 58  1  0
 29 30  1  0
 29 36  1  0
 29 59  1  6
 30 35  1  0
 30 31  2  0
 31 32  1  0
 31 60  1  0
 32 33  2  0
 32 61  1  0
 33 34  1  0
 33 62  1  0
 34 35  2  0
 35 63  1  0
 36 64  1  0
 36 65  1  0
M  CHG  1  14   1
M  END
>  <i_m_ct_stereo_status>  (155) 
1

>  <s_m_source_file>  (155) 
/var/tmp/pbs.5076255.sched01/tmpaqd8m8vp/41rn73ajce.sdf

>  <i_m_source_file_index>  (155) 
36

>  <i_lp_mmshare_version>  (155) 
48012

>  <i_f3d_flags>  (155) 
0

>  <s_epik_input>  (155) 
W2NIXTFbY0hdW2NIXVtjSF1jKGMxMilOKEMoPU8pW0NIMl1PMilbQ0gyXVtDSDJdTihbQ0gyXVtDQEBIXTNjNFtjSF1bY0hdW2NIXW5bY0hdNClbQ0gyXVtDSDJdW0NAQF0zNUMoPU8pW05IXVtDSDJdTjVjNltjSF1bY0hdW2NIXVtjSF1bY0hdNg==

>  <s_epik_cmdline>  (155) 
J2VwaWtfcHl0aG9uJywgJy1waHQnLCAnMi4wJywgJy1waCcsICc3LjAnLCAnLXRuJywgJzgnLCAnLW1hJywgJzIwMCcsICctaW1hZScsICc8aW5maWxlLm1hZT4nLCAnLW9tYWUnLCAnPG91dGZpbGUubWFlPic=

>  <r_lp_tautomer_probability>  (155) 
1

>  <r_epik_Ionization_Penalty>  (155) 
0.169608

>  <r_epik_Ionization_Penalty_Charging>  (155) 
0.168958

>  <r_epik_Ionization_Penalty_Neutral>  (155) 
0.000649438

>  <r_epik_State_Penalty>  (155) 
0.102896

>  <r_epik_Charging_Adjusted_Penalty>  (155) 
0.271855

>  <i_epik_Tot_Q>  (155) 
1

>  <i_epik_Tot_abs_Q>  (155) 
1

>  <s_epik_Chemistry_Notes>  (155) 
This compound contains an acetal/aminal-like group ( X-CH(R)-Y where X, Y are N, S, or O) that may be acid/base labile, releasing an aldehyde.

>  <s_lp_Force_Field>  (155) 
OPLS3e

>  <r_lp_Energy>  (155) 
69.7157

>  <b_lp_Chiralities_Consistent>  (155) 
1

>  <s_lp_Variant>  (155) 
59:0-1

>  <s_i_glide_gridfile>  (155) 
pfpi4k_grid

>  <i_i_glide_lignum>  (155) 
36

>  <i_i_glide_rotatable_bonds>  (155) 
5

>  <r_i_docking_score>  (155) 
-2.74753

>  <r_i_glide_ligand_efficiency>  (155) 
-0.0763201

>  <r_i_glide_ligand_efficiency_sa>  (155) 
-0.252004

>  <r_i_glide_ligand_efficiency_ln>  (155) 
-0.599436

>  <r_i_glide_gscore>  (155) 
-2.74753

>  <r_i_glide_lipo>  (155) 
-0.554237

>  <r_i_glide_hbond>  (155) 
0

>  <r_i_glide_metal>  (155) 
-0

>  <r_i_glide_rewards>  (155) 
-0.281833

>  <r_i_glide_evdw>  (155) 
-35.4724

>  <r_i_glide_ecoul>  (155) 
-2.73314

>  <r_i_glide_erotb>  (155) 
0.432458

>  <r_i_glide_esite>  (155) 
-0.160324

>  <r_i_glide_emodel>  (155) 
-40.5864

>  <r_i_glide_energy>  (155) 
-38.2055

>  <r_i_glide_einternal>  (155) 
2.62304

>  <r_i_glide_intrahb_reward>  (155) 
-0

>  <i_i_glide_confnum>  (155) 
6

>  <i_i_glide_posenum>  (155) 
24

>  <r_i_glide_eff_state_penalty>  (155) 
0

>  <ligand_id>  (155) 
59

>  <original_smiles>  (155) 
O=C1COc2ccccc2N1CCN1CCC2(C(=O)NCN2c2ccccc2)C(c2cccnc2)C1

>  <smiles>  (155) 
[H]c1nc([H])c(C2([H])C3(C(=O)N([H])C([H])([H])N3c3c([H])c([H])c([H])c([H])c3[H])C([H])([H])C([H])([H])[N+]([H])(C([H])([H])C([H])([H])N3C(=O)C([H])([H])Oc4c([H])c([H])c([H])c([H])c43)C2([H])[H])c([H])c1[H]

$$$$
59:1:0
     RDKit          3D

 65 70  0  0  1  0  0  0  0  0999 V2000
    9.0917   -4.2761    0.8527 O   0  0  0  0  0  0  0  0  0  0  0  0
    8.1424   -3.6163    0.4471 C   0  0  0  0  0  0  0  0  0  0  0  0
    8.3967   -2.3967   -0.4464 C   0  0  0  0  0  0  0  0  0  0  0  0
    7.3818   -2.2648   -1.4550 O   0  0  0  0  0  0  0  0  0  0  0  0
    6.0962   -2.2849   -0.9530 C   0  0  0  0  0  0  0  0  0  0  0  0
    5.1213   -1.4884   -1.5575 C   0  0  0  0  0  0  0  0  0  0  0  0
    3.8121   -1.4880   -1.0436 C   0  0  0  0  0  0  0  0  0  0  0  0
    3.4981   -2.2918    0.0644 C   0  0  0  0  0  0  0  0  0  0  0  0
    4.4653   -3.1046    0.6597 C   0  0  0  0  0  0  0  0  0  0  0  0
    5.8023   -3.1071    0.1612 C   0  0  0  0  0  0  0  0  0  0  0  0
    6.8469   -3.8780    0.7626 N   0  0  0  0  0  0  0  0  0  0  0  0
    6.5471   -4.9176    1.7748 C   0  0  0  0  0  0  0  0  0  0  0  0
    6.0730   -6.2289    1.1070 C   0  0  0  0  0  0  0  0  0  0  0  0
    4.8959   -6.7246    1.8187 N   0  0  0  0  0  0  0  0  0  0  0  0
    4.1985   -7.7013    0.9741 C   0  0  0  0  0  0  0  0  0  0  0  0
    2.9676   -8.2605    1.7131 C   0  0  0  0  0  0  0  0  0  0  0  0
    3.3229   -8.9439    3.0710 C   0  0  2  0  0  0  0  0  0  0  0  0
    4.1061  -10.2729    2.8746 C   0  0  0  0  0  0  0  0  0  0  0  0
    5.1266  -10.3796    2.1839 O   0  0  0  0  0  0  0  0  0  0  0  0
    3.5418  -11.2447    3.5673 N   0  0  0  0  0  0  0  0  0  0  0  0
    2.3586  -10.8097    4.2926 C   0  0  0  0  0  0  0  0  0  0  0  0
    2.1411   -9.4237    3.8247 N   0  0  0  0  0  0  0  0  0  0  0  0
    0.8202   -8.9905    3.6213 C   0  0  0  0  0  0  0  0  0  0  0  0
    0.3596   -7.7953    4.2135 C   0  0  0  0  0  0  0  0  0  0  0  0
   -0.9699   -7.3795    4.0326 C   0  0  0  0  0  0  0  0  0  0  0  0
   -1.8559   -8.1450    3.2556 C   0  0  0  0  0  0  0  0  0  0  0  0
   -1.3947   -9.3231    2.6566 C   0  0  0  0  0  0  0  0  0  0  0  0
   -0.0856   -9.7681    2.8510 C   0  0  0  0  0  0  0  0  0  0  0  0
    4.1936   -7.9269    3.9036 C   0  0  1  0  0  0  0  0  0  0  0  0
    4.6953   -8.5267    5.2382 C   0  0  0  0  0  0  0  0  0  0  0  0
    5.9496   -9.1747    5.3320 C   0  0  0  0  0  0  0  0  0  0  0  0
    6.2997   -9.8597    6.5045 C   0  0  0  0  0  0  0  0  0  0  0  0
    5.3822   -9.8795    7.5742 C   0  0  0  0  0  0  0  0  0  0  0  0
    4.1977   -9.2376    7.5151 N   0  0  0  0  0  0  0  0  0  0  0  0
    3.8713   -8.5738    6.3856 C   0  0  0  0  0  0  0  0  0  0  0  0
    5.3584   -7.3268    3.0739 C   0  0  0  0  0  0  0  0  0  0  0  0
    8.4497   -1.4846    0.1638 H   0  0  0  0  0  0  0  0  0  0  0  0
    9.3766   -2.5054   -0.8969 H   0  0  0  0  0  0  0  0  0  0  0  0
    5.3622   -0.8544   -2.4015 H   0  0  0  0  0  0  0  0  0  0  0  0
    3.0477   -0.8909   -1.4931 H   0  0  0  0  0  0  0  0  0  0  0  0
    2.4878   -2.2905    0.4508 H   0  0  0  0  0  0  0  0  0  0  0  0
    4.1646   -3.7002    1.5020 H   0  0  0  0  0  0  0  0  0  0  0  0
    7.3898   -5.1609    2.4361 H   0  0  0  0  0  0  0  0  0  0  0  0
    5.8253   -4.5327    2.5054 H   0  0  0  0  0  0  0  0  0  0  0  0
    5.8269   -6.0420    0.0628 H   0  0  0  0  0  0  0  0  0  0  0  0
    6.8774   -6.9737    1.0960 H   0  0  0  0  0  0  0  0  0  0  0  0
    3.8680   -7.1977    0.0597 H   0  0  0  0  0  0  0  0  0  0  0  0
    4.8675   -8.4990    0.6453 H   0  0  0  0  0  0  0  0  0  0  0  0
    2.2667   -7.4391    1.8732 H   0  0  0  0  0  0  0  0  0  0  0  0
    2.4370   -8.9683    1.0709 H   0  0  0  0  0  0  0  0  0  0  0  0
    4.0536  -12.0651    3.8148 H   0  0  0  0  0  0  0  0  0  0  0  0
    1.5288  -11.5290    4.0845 H   0  0  0  0  0  0  0  0  0  0  0  0
    2.5522  -10.8025    5.3781 H   0  0  0  0  0  0  0  0  0  0  0  0
    1.0383   -7.1889    4.7836 H   0  0  0  0  0  0  0  0  0  0  0  0
   -1.3387   -6.4844    4.4952 H   0  0  0  0  0  0  0  0  0  0  0  0
   -2.8930   -7.8532    3.1758 H   0  0  0  0  0  0  0  0  0  0  0  0
   -2.0896   -9.8945    2.0613 H   0  0  0  0  0  0  0  0  0  0  0  0
    0.2613  -10.6656    2.3719 H   0  0  0  0  0  0  0  0  0  0  0  0
    3.5415   -7.0920    4.1675 H   0  0  0  0  0  0  0  0  0  0  0  0
    6.6196   -9.2609    4.4934 H   0  0  0  0  0  0  0  0  0  0  0  0
    7.2309  -10.4122    6.5540 H   0  0  0  0  0  0  0  0  0  0  0  0
    5.6200  -10.4105    8.4877 H   0  0  0  0  0  0  0  0  0  0  0  0
    2.8567   -8.2014    6.3590 H   0  0  0  0  0  0  0  0  0  0  0  0
    6.0848   -8.0845    2.7797 H   0  0  0  0  0  0  0  0  0  0  0  0
    5.9011   -6.5898    3.6839 H   0  0  0  0  0  0  0  0  0  0  0  0
  1  2  2  0
  2 11  1  0
  2  3  1  0
  3  4  1  0
  3 37  1  0
  3 38  1  0
  4  5  1  0
  5 10  2  0
  5  6  1  0
  6  7  2  0
  6 39  1  0
  7  8  1  0
  7 40  1  0
  8  9  2  0
  8 41  1  0
  9 10  1  0
  9 42  1  0
 10 11  1  0
 11 12  1  0
 12 13  1  0
 12 43  1  0
 12 44  1  0
 13 14  1  0
 13 45  1  0
 13 46  1  0
 14 36  1  0
 14 15  1  0
 15 16  1  0
 15 47  1  0
 15 48  1  0
 16 17  1  0
 16 49  1  0
 16 50  1  0
 17 22  1  1
 17 18  1  0
 17 29  1  0
 18 19  2  0
 18 20  1  0
 20 21  1  0
 20 51  1  0
 21 22  1  0
 21 52  1  0
 21 53  1  0
 22 23  1  0
 23 28  1  0
 23 24  2  0
 24 25  1  0
 24 54  1  0
 25 26  2  0
 25 55  1  0
 26 27  1  0
 26 56  1  0
 27 28  2  0
 27 57  1  0
 28 58  1  0
 29 30  1  0
 29 36  1  0
 29 59  1  1
 30 35  1  0
 30 31  2  0
 31 32  1  0
 31 60  1  0
 32 33  2  0
 32 61  1  0
 33 34  1  0
 33 62  1  0
 34 35  2  0
 35 63  1  0
 36 64  1  0
 36 65  1  0
M  END
>  <i_m_ct_stereo_status>  (156) 
1

>  <s_m_source_file>  (156) 
/var/tmp/pbs.5076255.sched01/tmpaqd8m8vp/41rn73ajce.sdf

>  <i_m_source_file_index>  (156) 
37

>  <i_lp_mmshare_version>  (156) 
48012

>  <i_f3d_flags>  (156) 
0

>  <s_epik_input>  (156) 
W2NIXTFbY0hdW2NIXVtjSF1jKGMxMilOKEMoPU8pW0NIMl1PMilbQ0gyXVtDSDJdTihbQ0gyXVtDQEBIXTNjNFtjSF1bY0hdW2NIXW5bY0hdNClbQ0gyXVtDSDJdW0NAQF0zNUMoPU8pW05IXVtDSDJdTjVjNltjSF1bY0hdW2NIXVtjSF1bY0hdNg==

>  <s_epik_cmdline>  (156) 
J2VwaWtfcHl0aG9uJywgJy1waHQnLCAnMi4wJywgJy1waCcsICc3LjAnLCAnLXRuJywgJzgnLCAnLW1hJywgJzIwMCcsICctaW1hZScsICc8aW5maWxlLm1hZT4nLCAnLW9tYWUnLCAnPG91dGZpbGUubWFlPic=

>  <r_lp_tautomer_probability>  (156) 
1

>  <r_epik_Ionization_Penalty>  (156) 
0.843003

>  <r_epik_Ionization_Penalty_Charging>  (156) 
0

>  <r_epik_Ionization_Penalty_Neutral>  (156) 
0.843003

>  <r_epik_State_Penalty>  (156) 
1.09976

>  <r_epik_Charging_Adjusted_Penalty>  (156) 
1.09976

>  <i_epik_Tot_Q>  (156) 
0

>  <i_epik_Tot_abs_Q>  (156) 
0

>  <s_epik_Chemistry_Notes>  (156) 
This compound contains an acetal/aminal-like group ( X-CH(R)-Y where X, Y are N, S, or O) that may be acid/base labile, releasing an aldehyde.

>  <s_lp_Force_Field>  (156) 
OPLS3e

>  <r_lp_Energy>  (156) 
60.3746

>  <b_lp_Chiralities_Consistent>  (156) 
1

>  <s_lp_Variant>  (156) 
59:0-2

>  <s_i_glide_gridfile>  (156) 
pfpi4k_grid

>  <i_i_glide_lignum>  (156) 
37

>  <i_i_glide_rotatable_bonds>  (156) 
5

>  <r_i_docking_score>  (156) 
-2.86324

>  <r_i_glide_ligand_efficiency>  (156) 
-0.0795344

>  <r_i_glide_ligand_efficiency_sa>  (156) 
-0.262617

>  <r_i_glide_ligand_efficiency_ln>  (156) 
-0.624682

>  <r_i_glide_gscore>  (156) 
-2.86324

>  <r_i_glide_lipo>  (156) 
-0.40064

>  <r_i_glide_hbond>  (156) 
-0.180917

>  <r_i_glide_metal>  (156) 
-0

>  <r_i_glide_rewards>  (156) 
-0.556508

>  <r_i_glide_evdw>  (156) 
-35.6102

>  <r_i_glide_ecoul>  (156) 
-1.76127

>  <r_i_glide_erotb>  (156) 
0.434108

>  <r_i_glide_esite>  (156) 
-0.11458

>  <r_i_glide_emodel>  (156) 
-36.8253

>  <r_i_glide_energy>  (156) 
-37.3715

>  <r_i_glide_einternal>  (156) 
8.22242

>  <r_i_glide_intrahb_reward>  (156) 
-0

>  <i_i_glide_confnum>  (156) 
2

>  <i_i_glide_posenum>  (156) 
18

>  <r_i_glide_eff_state_penalty>  (156) 
0

>  <ligand_id>  (156) 
59

>  <original_smiles>  (156) 
O=C1COc2ccccc2N1CCN1CCC2(C(=O)NCN2c2ccccc2)C(c2cccnc2)C1

>  <smiles>  (156) 
[H]c1nc([H])c(C2([H])C([H])([H])N(C([H])([H])C([H])([H])N3C(=O)C([H])([H])Oc4c([H])c([H])c([H])c([H])c43)C([H])([H])C([H])([H])C23C(=O)N([H])C([H])([H])N3c2c([H])c([H])c([H])c([H])c2[H])c([H])c1[H]

$$$$
59:1:1
     RDKit          3D

 65 70  0  0  1  0  0  0  0  0999 V2000
    9.3764   -3.7812    0.5116 O   0  0  0  0  0  0  0  0  0  0  0  0
    8.2457   -3.4601    0.1253 C   0  0  0  0  0  0  0  0  0  0  0  0
    8.1134   -2.3077   -0.8790 C   0  0  0  0  0  0  0  0  0  0  0  0
    6.9826   -2.4719   -1.7461 O   0  0  0  0  0  0  0  0  0  0  0  0
    5.8128   -2.7960   -1.1079 C   0  0  0  0  0  0  0  0  0  0  0  0
    4.6024   -2.3467   -1.6617 C   0  0  0  0  0  0  0  0  0  0  0  0
    3.3975   -2.6385   -1.0114 C   0  0  0  0  0  0  0  0  0  0  0  0
    3.3981   -3.3872    0.1765 C   0  0  0  0  0  0  0  0  0  0  0  0
    4.6064   -3.8571    0.7182 C   0  0  0  0  0  0  0  0  0  0  0  0
    5.8366   -3.5638    0.0789 C   0  0  0  0  0  0  0  0  0  0  0  0
    7.1011   -4.0138    0.5984 N   0  0  0  0  0  0  0  0  0  0  0  0
    7.1489   -4.9940    1.7061 C   0  0  0  0  0  0  0  0  0  0  0  0
    6.8688   -6.4291    1.2244 C   0  0  0  0  0  0  0  0  0  0  0  0
    5.6180   -6.9260    1.7937 N   0  0  0  0  0  0  0  0  0  0  0  0
    5.0530   -7.9426    0.8968 C   0  0  0  0  0  0  0  0  0  0  0  0
    3.7351   -8.4670    1.4754 C   0  0  0  0  0  0  0  0  0  0  0  0
    3.8961   -9.0567    2.9001 C   0  0  2  0  0  0  0  0  0  0  0  0
    4.7300  -10.3723    2.8791 C   0  0  0  0  0  0  0  0  0  0  0  0
    5.8311  -10.5164    2.3242 O   0  0  0  0  0  0  0  0  0  0  0  0
    4.1256  -11.3016    3.6024 N   0  0  0  0  0  0  0  0  0  0  0  0
    2.8362  -10.8671    4.1167 C   0  0  0  0  0  0  0  0  0  0  0  0
    2.6273   -9.5446    3.5014 N   0  0  0  0  0  0  0  0  0  0  0  0
    1.3161   -9.0531    3.1803 C   0  0  0  0  0  0  0  0  0  0  0  0
    1.0445   -7.7015    2.8924 C   0  0  0  0  0  0  0  0  0  0  0  0
   -0.2475   -7.2812    2.4964 C   0  0  0  0  0  0  0  0  0  0  0  0
   -1.3150   -8.1882    2.4612 C   0  0  0  0  0  0  0  0  0  0  0  0
   -1.0649   -9.5105    2.8068 C   0  0  0  0  0  0  0  0  0  0  0  0
    0.2192   -9.9510    3.1633 C   0  0  0  0  0  0  0  0  0  0  0  0
    4.6429   -8.0303    3.8217 C   0  0  1  0  0  0  0  0  0  0  0  0
    4.9747   -8.6025    5.2132 C   0  0  0  0  0  0  0  0  0  0  0  0
    6.2171   -9.2262    5.4786 C   0  0  0  0  0  0  0  0  0  0  0  0
    6.4341   -9.8589    6.7119 C   0  0  0  0  0  0  0  0  0  0  0  0
    5.3922   -9.8536    7.6583 C   0  0  0  0  0  0  0  0  0  0  0  0
    4.2073   -9.2492    7.4311 N   0  0  0  0  0  0  0  0  0  0  0  0
    4.0109   -8.6363    6.2431 C   0  0  0  0  0  0  0  0  0  0  0  0
    5.9119   -7.4823    3.1198 C   0  0  0  0  0  0  0  0  0  0  0  0
    7.9740   -1.3933   -0.2932 H   0  0  0  0  0  0  0  0  0  0  0  0
    9.0034   -2.2027   -1.4612 H   0  0  0  0  0  0  0  0  0  0  0  0
    4.6033   -1.7615   -2.5679 H   0  0  0  0  0  0  0  0  0  0  0  0
    2.4750   -2.2829   -1.4226 H   0  0  0  0  0  0  0  0  0  0  0  0
    2.4690   -3.6099    0.6792 H   0  0  0  0  0  0  0  0  0  0  0  0
    4.5547   -4.4290    1.6293 H   0  0  0  0  0  0  0  0  0  0  0  0
    8.1183   -5.0093    2.2046 H   0  0  0  0  0  0  0  0  0  0  0  0
    6.4761   -4.6873    2.5074 H   0  0  0  0  0  0  0  0  0  0  0  0
    6.8395   -6.4458    0.1366 H   0  0  0  0  0  0  0  0  0  0  0  0
    7.6940   -7.0904    1.5012 H   0  0  0  0  0  0  0  0  0  0  0  0
    4.8158   -7.4773   -0.0623 H   0  0  0  0  0  0  0  0  0  0  0  0
    5.7526   -8.7555    0.7034 H   0  0  0  0  0  0  0  0  0  0  0  0
    3.0772   -7.5993    1.4461 H   0  0  0  0  0  0  0  0  0  0  0  0
    3.2786   -9.2166    0.8176 H   0  0  0  0  0  0  0  0  0  0  0  0
    4.5736  -12.1669    3.8618 H   0  0  0  0  0  0  0  0  0  0  0  0
    2.1437  -11.6723    3.8477 H   0  0  0  0  0  0  0  0  0  0  0  0
    2.8770  -10.8049    5.2053 H   0  0  0  0  0  0  0  0  0  0  0  0
    1.8122   -6.9415    2.9375 H   0  0  0  0  0  0  0  0  0  0  0  0
   -0.4072   -6.2607    2.1989 H   0  0  0  0  0  0  0  0  0  0  0  0
   -2.3059   -7.8731    2.1780 H   0  0  0  0  0  0  0  0  0  0  0  0
   -1.8709  -10.2288    2.7810 H   0  0  0  0  0  0  0  0  0  0  0  0
    0.3111  -10.9983    3.3842 H   0  0  0  0  0  0  0  0  0  0  0  0
    3.9736   -7.1859    3.9922 H   0  0  0  0  0  0  0  0  0  0  0  0
    6.9908   -9.3087    4.7318 H   0  0  0  0  0  0  0  0  0  0  0  0
    7.3673  -10.3691    6.9044 H   0  0  0  0  0  0  0  0  0  0  0  0
    5.5286  -10.3346    8.6164 H   0  0  0  0  0  0  0  0  0  0  0  0
    3.0115   -8.2613    6.0770 H   0  0  0  0  0  0  0  0  0  0  0  0
    6.6418   -8.2765    2.9625 H   0  0  0  0  0  0  0  0  0  0  0  0
    6.3942   -6.7383    3.7648 H   0  0  0  0  0  0  0  0  0  0  0  0
  1  2  2  0
  2 11  1  0
  2  3  1  0
  3  4  1  0
  3 37  1  0
  3 38  1  0
  4  5  1  0
  5 10  2  0
  5  6  1  0
  6  7  2  0
  6 39  1  0
  7  8  1  0
  7 40  1  0
  8  9  2  0
  8 41  1  0
  9 10  1  0
  9 42  1  0
 10 11  1  0
 11 12  1  0
 12 13  1  0
 12 43  1  0
 12 44  1  0
 13 14  1  0
 13 45  1  0
 13 46  1  0
 14 36  1  0
 14 15  1  0
 15 16  1  0
 15 47  1  0
 15 48  1  0
 16 17  1  0
 16 49  1  0
 16 50  1  0
 17 22  1  1
 17 18  1  0
 17 29  1  0
 18 19  2  0
 18 20  1  0
 20 21  1  0
 20 51  1  0
 21 22  1  0
 21 52  1  0
 21 53  1  0
 22 23  1  0
 23 28  1  0
 23 24  2  0
 24 25  1  0
 24 54  1  0
 25 26  2  0
 25 55  1  0
 26 27  1  0
 26 56  1  0
 27 28  2  0
 27 57  1  0
 28 58  1  0
 29 30  1  0
 29 36  1  0
 29 59  1  1
 30 35  1  0
 30 31  2  0
 31 32  1  0
 31 60  1  0
 32 33  2  0
 32 61  1  0
 33 34  1  0
 33 62  1  0
 34 35  2  0
 35 63  1  0
 36 64  1  0
 36 65  1  0
M  END
>  <i_m_ct_stereo_status>  (157) 
1

>  <s_m_source_file>  (157) 
/var/tmp/pbs.5076255.sched01/tmpaqd8m8vp/41rn73ajce.sdf

>  <i_m_source_file_index>  (157) 
37

>  <i_lp_mmshare_version>  (157) 
48012

>  <i_f3d_flags>  (157) 
0

>  <s_epik_input>  (157) 
W2NIXTFbY0hdW2NIXVtjSF1jKGMxMilOKEMoPU8pW0NIMl1PMilbQ0gyXVtDSDJdTihbQ0gyXVtDQEBIXTNjNFtjSF1bY0hdW2NIXW5bY0hdNClbQ0gyXVtDSDJdW0NAQF0zNUMoPU8pW05IXVtDSDJdTjVjNltjSF1bY0hdW2NIXVtjSF1bY0hdNg==

>  <s_epik_cmdline>  (157) 
J2VwaWtfcHl0aG9uJywgJy1waHQnLCAnMi4wJywgJy1waCcsICc3LjAnLCAnLXRuJywgJzgnLCAnLW1hJywgJzIwMCcsICctaW1hZScsICc8aW5maWxlLm1hZT4nLCAnLW9tYWUnLCAnPG91dGZpbGUubWFlPic=

>  <r_lp_tautomer_probability>  (157) 
1

>  <r_epik_Ionization_Penalty>  (157) 
0.843003

>  <r_epik_Ionization_Penalty_Charging>  (157) 
0

>  <r_epik_Ionization_Penalty_Neutral>  (157) 
0.843003

>  <r_epik_State_Penalty>  (157) 
1.09976

>  <r_epik_Charging_Adjusted_Penalty>  (157) 
1.09976

>  <i_epik_Tot_Q>  (157) 
0

>  <i_epik_Tot_abs_Q>  (157) 
0

>  <s_epik_Chemistry_Notes>  (157) 
This compound contains an acetal/aminal-like group ( X-CH(R)-Y where X, Y are N, S, or O) that may be acid/base labile, releasing an aldehyde.

>  <s_lp_Force_Field>  (157) 
OPLS3e

>  <r_lp_Energy>  (157) 
60.3746

>  <b_lp_Chiralities_Consistent>  (157) 
1

>  <s_lp_Variant>  (157) 
59:0-2

>  <s_i_glide_gridfile>  (157) 
pfpi4k_grid

>  <i_i_glide_lignum>  (157) 
37

>  <i_i_glide_rotatable_bonds>  (157) 
5

>  <r_i_docking_score>  (157) 
-2.70125

>  <r_i_glide_ligand_efficiency>  (157) 
-0.0750348

>  <r_i_glide_ligand_efficiency_sa>  (157) 
-0.24776

>  <r_i_glide_ligand_efficiency_ln>  (157) 
-0.589341

>  <r_i_glide_gscore>  (157) 
-2.70125

>  <r_i_glide_lipo>  (157) 
-0.301332

>  <r_i_glide_hbond>  (157) 
-0.253132

>  <r_i_glide_metal>  (157) 
-0

>  <r_i_glide_rewards>  (157) 
-0.576642

>  <r_i_glide_evdw>  (157) 
-34.9796

>  <r_i_glide_ecoul>  (157) 
-0.979011

>  <r_i_glide_erotb>  (157) 
0.434108

>  <r_i_glide_esite>  (157) 
-0.108426

>  <r_i_glide_emodel>  (157) 
-36.525

>  <r_i_glide_energy>  (157) 
-35.9586

>  <r_i_glide_einternal>  (157) 
8.97581

>  <r_i_glide_intrahb_reward>  (157) 
-0

>  <i_i_glide_confnum>  (157) 
2

>  <i_i_glide_posenum>  (157) 
23

>  <r_i_glide_eff_state_penalty>  (157) 
0

>  <ligand_id>  (157) 
59

>  <original_smiles>  (157) 
O=C1COc2ccccc2N1CCN1CCC2(C(=O)NCN2c2ccccc2)C(c2cccnc2)C1

>  <smiles>  (157) 
[H]c1nc([H])c(C2([H])C([H])([H])N(C([H])([H])C([H])([H])N3C(=O)C([H])([H])Oc4c([H])c([H])c([H])c([H])c43)C([H])([H])C([H])([H])C23C(=O)N([H])C([H])([H])N3c2c([H])c([H])c([H])c([H])c2[H])c([H])c1[H]

$$$$
59:1:2
     RDKit          3D

 65 70  0  0  1  0  0  0  0  0999 V2000
    4.2895   -0.6193    1.3777 O   0  0  0  0  0  0  0  0  0  0  0  0
    3.2784   -0.3802    2.0604 C   0  0  0  0  0  0  0  0  0  0  0  0
    2.9171    1.0692    2.4126 C   0  0  0  0  0  0  0  0  0  0  0  0
    1.4989    1.2673    2.4764 O   0  0  0  0  0  0  0  0  0  0  0  0
    0.8207    0.3536    3.2361 C   0  0  0  0  0  0  0  0  0  0  0  0
   -0.3363    0.7576    3.9260 C   0  0  0  0  0  0  0  0  0  0  0  0
   -1.0291   -0.1577    4.7230 C   0  0  0  0  0  0  0  0  0  0  0  0
   -0.5896   -1.4944    4.8012 C   0  0  0  0  0  0  0  0  0  0  0  0
    0.5420   -1.9077    4.0786 C   0  0  0  0  0  0  0  0  0  0  0  0
    1.2800   -0.9815    3.2990 C   0  0  0  0  0  0  0  0  0  0  0  0
    2.4621   -1.3336    2.5454 N   0  0  0  0  0  0  0  0  0  0  0  0
    2.7616   -2.7510    2.3022 C   0  0  0  0  0  0  0  0  0  0  0  0
    3.4411   -3.4399    3.5137 C   0  0  0  0  0  0  0  0  0  0  0  0
    3.5714   -4.8809    3.3076 N   0  0  0  0  0  0  0  0  0  0  0  0
    4.3616   -5.4188    4.4285 C   0  0  0  0  0  0  0  0  0  0  0  0
    4.5130   -6.9328    4.2658 C   0  0  0  0  0  0  0  0  0  0  0  0
    3.1348   -7.7010    4.1834 C   0  0  2  0  0  0  0  0  0  0  0  0
    2.3755   -7.6511    5.5328 C   0  0  0  0  0  0  0  0  0  0  0  0
    2.1898   -6.6306    6.2235 O   0  0  0  0  0  0  0  0  0  0  0  0
    1.9112   -8.8615    5.8331 N   0  0  0  0  0  0  0  0  0  0  0  0
    2.3478   -9.8775    4.8747 C   0  0  0  0  0  0  0  0  0  0  0  0
    3.2643   -9.1499    3.9735 N   0  0  0  0  0  0  0  0  0  0  0  0
    4.3579   -9.8132    3.3467 C   0  0  0  0  0  0  0  0  0  0  0  0
    5.0169   -9.3116    2.2068 C   0  0  0  0  0  0  0  0  0  0  0  0
    6.1459   -9.9648    1.6621 C   0  0  0  0  0  0  0  0  0  0  0  0
    6.5998  -11.1707    2.2268 C   0  0  0  0  0  0  0  0  0  0  0  0
    5.9142  -11.7211    3.3199 C   0  0  0  0  0  0  0  0  0  0  0  0
    4.8214  -11.0665    3.8715 C   0  0  0  0  0  0  0  0  0  0  0  0
    2.2537   -6.9904    3.1000 C   0  0  1  0  0  0  0  0  0  0  0  0
    0.8184   -7.5507    3.0423 C   0  0  0  0  0  0  0  0  0  0  0  0
    0.5334   -8.7615    2.3835 C   0  0  0  0  0  0  0  0  0  0  0  0
   -0.7559   -9.3165    2.4849 C   0  0  0  0  0  0  0  0  0  0  0  0
   -1.7566   -8.6058    3.1658 C   0  0  0  0  0  0  0  0  0  0  0  0
   -1.5096   -7.4337    3.7564 N   0  0  0  0  0  0  0  0  0  0  0  0
   -0.2645   -6.9265    3.7118 C   0  0  0  0  0  0  0  0  0  0  0  0
    2.2282   -5.4681    3.2974 C   0  0  0  0  0  0  0  0  0  0  0  0
    3.3673    1.3060    3.3770 H   0  0  0  0  0  0  0  0  0  0  0  0
    3.3579    1.7348    1.6733 H   0  0  0  0  0  0  0  0  0  0  0  0
   -0.6503    1.7871    3.8558 H   0  0  0  0  0  0  0  0  0  0  0  0
   -1.8925    0.1651    5.2658 H   0  0  0  0  0  0  0  0  0  0  0  0
   -1.1287   -2.2050    5.4021 H   0  0  0  0  0  0  0  0  0  0  0  0
    0.8189   -2.9484    4.1418 H   0  0  0  0  0  0  0  0  0  0  0  0
    1.8166   -3.1872    2.0116 H   0  0  0  0  0  0  0  0  0  0  0  0
    3.4007   -2.9227    1.4355 H   0  0  0  0  0  0  0  0  0  0  0  0
    4.4238   -3.0020    3.6626 H   0  0  0  0  0  0  0  0  0  0  0  0
    2.9156   -3.2612    4.4474 H   0  0  0  0  0  0  0  0  0  0  0  0
    5.3678   -4.9836    4.4198 H   0  0  0  0  0  0  0  0  0  0  0  0
    3.9201   -5.1634    5.3946 H   0  0  0  0  0  0  0  0  0  0  0  0
    5.0945   -7.0510    3.3604 H   0  0  0  0  0  0  0  0  0  0  0  0
    5.1031   -7.3664    5.0752 H   0  0  0  0  0  0  0  0  0  0  0  0
    1.2276   -9.0411    6.5584 H   0  0  0  0  0  0  0  0  0  0  0  0
    2.7382  -10.6893    5.4878 H   0  0  0  0  0  0  0  0  0  0  0  0
    1.4737  -10.2523    4.3396 H   0  0  0  0  0  0  0  0  0  0  0  0
    4.6809   -8.3970    1.7366 H   0  0  0  0  0  0  0  0  0  0  0  0
    6.6702   -9.5323    0.8472 H   0  0  0  0  0  0  0  0  0  0  0  0
    7.4404  -11.6723    1.8048 H   0  0  0  0  0  0  0  0  0  0  0  0
    6.2677  -12.6363    3.7505 H   0  0  0  0  0  0  0  0  0  0  0  0
    4.3856  -11.5246    4.7336 H   0  0  0  0  0  0  0  0  0  0  0  0
    2.6937   -7.1814    2.1263 H   0  0  0  0  0  0  0  0  0  0  0  0
    1.3112   -9.3156    1.8709 H   0  0  0  0  0  0  0  0  0  0  0  0
   -0.9936  -10.2648    2.0203 H   0  0  0  0  0  0  0  0  0  0  0  0
   -2.7541   -9.0022    3.2555 H   0  0  0  0  0  0  0  0  0  0  0  0
   -0.1433   -6.0338    4.3030 H   0  0  0  0  0  0  0  0  0  0  0  0
    1.7711   -5.1964    4.2531 H   0  0  0  0  0  0  0  0  0  0  0  0
    1.6055   -5.0752    2.4862 H   0  0  0  0  0  0  0  0  0  0  0  0
  1  2  2  0
  2 11  1  0
  2  3  1  0
  3  4  1  0
  3 37  1  0
  3 38  1  0
  4  5  1  0
  5 10  2  0
  5  6  1  0
  6  7  2  0
  6 39  1  0
  7  8  1  0
  7 40  1  0
  8  9  2  0
  8 41  1  0
  9 10  1  0
  9 42  1  0
 10 11  1  0
 11 12  1  0
 12 13  1  0
 12 43  1  0
 12 44  1  0
 13 14  1  0
 13 45  1  0
 13 46  1  0
 14 36  1  0
 14 15  1  0
 15 16  1  0
 15 47  1  0
 15 48  1  0
 16 17  1  0
 16 49  1  0
 16 50  1  0
 17 22  1  6
 17 18  1  0
 17 29  1  0
 18 19  2  0
 18 20  1  0
 20 21  1  0
 20 51  1  0
 21 22  1  0
 21 52  1  0
 21 53  1  0
 22 23  1  0
 23 28  1  0
 23 24  2  0
 24 25  1  0
 24 54  1  0
 25 26  2  0
 25 55  1  0
 26 27  1  0
 26 56  1  0
 27 28  2  0
 27 57  1  0
 28 58  1  0
 29 30  1  0
 29 36  1  0
 29 59  1  6
 30 35  1  0
 30 31  2  0
 31 32  1  0
 31 60  1  0
 32 33  2  0
 32 61  1  0
 33 34  1  0
 33 62  1  0
 34 35  2  0
 35 63  1  0
 36 64  1  0
 36 65  1  0
M  END
>  <i_m_ct_stereo_status>  (158) 
1

>  <s_m_source_file>  (158) 
/var/tmp/pbs.5076255.sched01/tmpaqd8m8vp/41rn73ajce.sdf

>  <i_m_source_file_index>  (158) 
37

>  <i_lp_mmshare_version>  (158) 
48012

>  <i_f3d_flags>  (158) 
0

>  <s_epik_input>  (158) 
W2NIXTFbY0hdW2NIXVtjSF1jKGMxMilOKEMoPU8pW0NIMl1PMilbQ0gyXVtDSDJdTihbQ0gyXVtDQEBIXTNjNFtjSF1bY0hdW2NIXW5bY0hdNClbQ0gyXVtDSDJdW0NAQF0zNUMoPU8pW05IXVtDSDJdTjVjNltjSF1bY0hdW2NIXVtjSF1bY0hdNg==

>  <s_epik_cmdline>  (158) 
J2VwaWtfcHl0aG9uJywgJy1waHQnLCAnMi4wJywgJy1waCcsICc3LjAnLCAnLXRuJywgJzgnLCAnLW1hJywgJzIwMCcsICctaW1hZScsICc8aW5maWxlLm1hZT4nLCAnLW9tYWUnLCAnPG91dGZpbGUubWFlPic=

>  <r_lp_tautomer_probability>  (158) 
1

>  <r_epik_Ionization_Penalty>  (158) 
0.843003

>  <r_epik_Ionization_Penalty_Charging>  (158) 
0

>  <r_epik_Ionization_Penalty_Neutral>  (158) 
0.843003

>  <r_epik_State_Penalty>  (158) 
1.09976

>  <r_epik_Charging_Adjusted_Penalty>  (158) 
1.09976

>  <i_epik_Tot_Q>  (158) 
0

>  <i_epik_Tot_abs_Q>  (158) 
0

>  <s_epik_Chemistry_Notes>  (158) 
This compound contains an acetal/aminal-like group ( X-CH(R)-Y where X, Y are N, S, or O) that may be acid/base labile, releasing an aldehyde.

>  <s_lp_Force_Field>  (158) 
OPLS3e

>  <r_lp_Energy>  (158) 
60.3746

>  <b_lp_Chiralities_Consistent>  (158) 
1

>  <s_lp_Variant>  (158) 
59:0-2

>  <s_i_glide_gridfile>  (158) 
pfpi4k_grid

>  <i_i_glide_lignum>  (158) 
37

>  <i_i_glide_rotatable_bonds>  (158) 
5

>  <r_i_docking_score>  (158) 
-1.73379

>  <r_i_glide_ligand_efficiency>  (158) 
-0.0481609

>  <r_i_glide_ligand_efficiency_sa>  (158) 
-0.159024

>  <r_i_glide_ligand_efficiency_ln>  (158) 
-0.378267

>  <r_i_glide_gscore>  (158) 
-1.73379

>  <r_i_glide_lipo>  (158) 
-0.190538

>  <r_i_glide_hbond>  (158) 
0

>  <r_i_glide_metal>  (158) 
-0

>  <r_i_glide_rewards>  (158) 
-0.11208

>  <r_i_glide_evdw>  (158) 
-33.3567

>  <r_i_glide_ecoul>  (158) 
-0.745068

>  <r_i_glide_erotb>  (158) 
0.434108

>  <r_i_glide_esite>  (158) 
-0.08569

>  <r_i_glide_emodel>  (158) 
-36.3545

>  <r_i_glide_energy>  (158) 
-34.1017

>  <r_i_glide_einternal>  (158) 
0.980639

>  <r_i_glide_intrahb_reward>  (158) 
-0

>  <i_i_glide_confnum>  (158) 
1

>  <i_i_glide_posenum>  (158) 
2

>  <r_i_glide_eff_state_penalty>  (158) 
0

>  <ligand_id>  (158) 
59

>  <original_smiles>  (158) 
O=C1COc2ccccc2N1CCN1CCC2(C(=O)NCN2c2ccccc2)C(c2cccnc2)C1

>  <smiles>  (158) 
[H]c1nc([H])c(C2([H])C([H])([H])N(C([H])([H])C([H])([H])N3C(=O)C([H])([H])Oc4c([H])c([H])c([H])c([H])c43)C([H])([H])C([H])([H])C23C(=O)N([H])C([H])([H])N3c2c([H])c([H])c([H])c([H])c2[H])c([H])c1[H]

$$$$
60:0:0
     RDKit          3D

 47 51  0  0  1  0  0  0  0  0999 V2000
    5.3628   -1.3678    2.7377 C   0  0  0  0  0  0  0  0  0  0  0  0
    5.1287   -2.4173    1.9460 C   0  0  0  0  0  0  0  0  0  0  0  0
    6.2352   -3.4097    1.5919 C   0  0  1  0  0  0  0  0  0  0  0  0
    6.1276   -4.7784    2.3179 C   0  0  0  0  0  0  0  0  0  0  0  0
    4.7773   -5.0849    2.9754 C   0  0  0  0  0  0  0  0  0  0  0  0
    3.6034   -5.2098    2.0130 C   0  0  0  0  0  0  0  0  0  0  0  0
    3.4653   -4.0967    1.0395 N   0  0  1  0  0  0  0  0  0  0  0  0
    3.7111   -2.7046    1.4755 C   0  0  2  0  0  0  0  0  0  0  0  0
    3.2294   -1.7526    0.3772 C   0  0  1  0  0  0  0  0  0  0  0  0
    3.0966   -0.4426    0.8853 O   0  0  0  0  0  0  0  0  0  0  0  0
    4.1325   -1.8087   -0.8610 C   0  0  2  0  0  0  0  0  0  0  0  0
    3.5599   -1.1010   -2.1037 C   0  0  1  0  0  0  0  0  0  0  0  0
    4.6099   -0.3716   -2.7243 O   0  0  0  0  0  0  0  0  0  0  0  0
    3.0363   -2.1723   -3.0155 C   0  0  0  0  0  0  0  0  0  0  0  0
    4.0079   -3.3005   -2.7576 C   0  0  0  0  0  0  0  0  0  0  0  0
    4.3760   -3.2717   -1.2456 C   0  0  1  0  0  0  0  0  0  0  0  0
    5.7412   -3.9253   -0.9258 C   0  0  2  0  0  0  0  0  0  0  0  0
    5.0086   -5.2305   -0.6498 C   0  0  0  0  0  0  0  0  0  0  0  0
    3.7598   -4.4047   -0.3812 C   0  0  1  0  0  0  0  0  0  0  0  0
    6.7360   -3.4587    0.1334 C   0  0  1  0  0  0  0  0  0  0  0  0
    7.3304   -2.2456   -0.2814 O   0  0  0  0  0  0  0  0  0  0  0  0
    4.5701   -0.6892    3.0410 H   0  0  0  0  0  0  0  0  0  0  0  0
    6.3528   -1.1327    3.1132 H   0  0  0  0  0  0  0  0  0  0  0  0
    7.0796   -2.9714    2.0795 H   0  0  0  0  0  0  0  0  0  0  0  0
    6.5266   -5.6100    1.7339 H   0  0  0  0  0  0  0  0  0  0  0  0
    6.8149   -4.7825    3.1561 H   0  0  0  0  0  0  0  0  0  0  0  0
    4.8767   -6.0268    3.5238 H   0  0  0  0  0  0  0  0  0  0  0  0
    4.5664   -4.3303    3.7440 H   0  0  0  0  0  0  0  0  0  0  0  0
    3.6276   -6.1711    1.5076 H   0  0  0  0  0  0  0  0  0  0  0  0
    2.7013   -5.2269    2.6114 H   0  0  0  0  0  0  0  0  0  0  0  0
    3.0726   -2.5497    2.3347 H   0  0  0  0  0  0  0  0  0  0  0  0
    2.2126   -2.0767    0.1071 H   0  0  0  0  0  0  0  0  0  0  0  0
    2.3993   -0.0232    0.3968 H   0  0  0  0  0  0  0  0  0  0  0  0
    5.0665   -1.3148   -0.5905 H   0  0  0  0  0  0  0  0  0  0  0  0
    2.7327   -0.4341   -1.9228 H   0  0  0  0  0  0  0  0  0  0  0  0
    4.8205    0.3591   -2.1541 H   0  0  0  0  0  0  0  0  0  0  0  0
    2.0407   -2.4522   -2.6741 H   0  0  0  0  0  0  0  0  0  0  0  0
    2.9614   -1.8517   -4.0542 H   0  0  0  0  0  0  0  0  0  0  0  0
    3.5826   -4.2412   -3.1001 H   0  0  0  0  0  0  0  0  0  0  0  0
    4.8891   -3.1313   -3.3833 H   0  0  0  0  0  0  0  0  0  0  0  0
    6.2382   -4.0120   -1.8814 H   0  0  0  0  0  0  0  0  0  0  0  0
    4.9468   -5.7982   -1.5748 H   0  0  0  0  0  0  0  0  0  0  0  0
    5.3754   -5.8948    0.1233 H   0  0  0  0  0  0  0  0  0  0  0  0
    2.8650   -4.8256   -0.8064 H   0  0  0  0  0  0  0  0  0  0  0  0
    7.5639   -4.1698    0.1145 H   0  0  0  0  0  0  0  0  0  0  0  0
    8.1026   -2.1057    0.2481 H   0  0  0  0  0  0  0  0  0  0  0  0
    2.4741   -4.0533    0.9650 H   0  0  0  0  0  0  0  0  0  0  0  0
  1  2  2  0
  1 22  1  0
  1 23  1  0
  2  8  1  0
  2  3  1  0
  3 20  1  0
  3  4  1  0
  3 24  1  1
  4  5  1  0
  4 25  1  0
  4 26  1  0
  5  6  1  0
  5 27  1  0
  5 28  1  0
  6  7  1  0
  6 29  1  0
  6 30  1  0
  7 19  1  0
  7  8  1  0
  7 47  1  6
  8  9  1  0
  8 31  1  1
  9 10  1  0
  9 11  1  0
  9 32  1  6
 10 33  1  0
 11 16  1  0
 11 12  1  0
 11 34  1  1
 12 13  1  0
 12 14  1  0
 12 35  1  1
 13 36  1  0
 14 15  1  0
 14 37  1  0
 14 38  1  0
 16 15  1  6
 15 39  1  0
 15 40  1  0
 16 19  1  0
 16 17  1  0
 17 18  1  0
 17 20  1  0
 17 41  1  6
 18 19  1  0
 18 42  1  0
 18 43  1  0
 19 44  1  6
 20 21  1  0
 20 45  1  1
 21 46  1  0
M  CHG  1   7   1
M  END
>  <i_m_ct_stereo_status>  (159) 
1

>  <s_m_source_file>  (159) 
/var/tmp/pbs.5076255.sched01/tmpaqd8m8vp/41rn73ajce.sdf

>  <i_m_source_file_index>  (159) 
38

>  <i_lp_mmshare_version>  (159) 
48012

>  <i_f3d_flags>  (159) 
0

>  <s_epik_input>  (159) 
W0NIMl0xW0NIMl1bQ0gyXVtDQEhdKEMyPVtDSDJdKVtDQEhdKFtPSF0pW0NASF0zW0NIMl1bQ0BIXTROMVtDSF0yW0NAQEhdKFtPSF0pW0NAQEhdKFtDQEBdMzQ1KVtDQEBIXShbT0hdKVtDSDJdW0NIMl01

>  <s_epik_cmdline>  (159) 
J2VwaWtfcHl0aG9uJywgJy1waHQnLCAnMi4wJywgJy1waCcsICc3LjAnLCAnLXRuJywgJzgnLCAnLW1hJywgJzIwMCcsICctaW1hZScsICc8aW5maWxlLm1hZT4nLCAnLW9tYWUnLCAnPG91dGZpbGUubWFlPic=

>  <r_epik_Ionization_Penalty>  (159) 
0.287928

>  <r_epik_Ionization_Penalty_Charging>  (159) 
0.287927

>  <r_epik_Ionization_Penalty_Neutral>  (159) 
1.73213e-07

>  <r_epik_State_Penalty>  (159) 
0.280825

>  <r_epik_Charging_Adjusted_Penalty>  (159) 
0.568752

>  <i_epik_Tot_Q>  (159) 
1

>  <i_epik_Tot_abs_Q>  (159) 
1

>  <s_lp_Force_Field>  (159) 
OPLS3e

>  <r_lp_Energy>  (159) 
71.3971

>  <b_lp_Chiralities_Consistent>  (159) 
1

>  <s_lp_Variant>  (159) 
60:0-1

>  <s_i_glide_gridfile>  (159) 
pfpi4k_grid

>  <i_i_glide_lignum>  (159) 
38

>  <i_i_glide_rotatable_bonds>  (159) 
3

>  <r_i_docking_score>  (159) 
-4.06935

>  <r_i_glide_ligand_efficiency>  (159) 
-0.193779

>  <r_i_glide_ligand_efficiency_sa>  (159) 
-0.53462

>  <r_i_glide_ligand_efficiency_ln>  (159) 
-1.00614

>  <r_i_glide_gscore>  (159) 
-4.06935

>  <r_i_glide_lipo>  (159) 
-0.422483

>  <r_i_glide_hbond>  (159) 
-0.452994

>  <r_i_glide_metal>  (159) 
-0

>  <r_i_glide_rewards>  (159) 
-1.4155

>  <r_i_glide_evdw>  (159) 
-11.2605

>  <r_i_glide_ecoul>  (159) 
-8.09825

>  <r_i_glide_erotb>  (159) 
0

>  <r_i_glide_esite>  (159) 
-0.000606738

>  <r_i_glide_emodel>  (159) 
-20.3162

>  <r_i_glide_energy>  (159) 
-19.3588

>  <r_i_glide_einternal>  (159) 
1.69944

>  <r_i_glide_intrahb_reward>  (159) 
-0

>  <i_i_glide_confnum>  (159) 
2

>  <i_i_glide_posenum>  (159) 
5

>  <r_i_glide_eff_state_penalty>  (159) 
0

>  <ligand_id>  (159) 
60

>  <original_smiles>  (159) 
C=C1C2CCCN3C1C(O)C1C(O)CCC14C(CC34)C2O

>  <smiles>  (159) 
[H]OC1([H])C2([H])C(=C([H])[H])C3([H])C([H])(O[H])C4([H])C([H])(O[H])C([H])([H])C([H])([H])C45C1([H])C([H])([H])C5([H])[N+]3([H])C([H])([H])C([H])([H])C2([H])[H]

$$$$
60:0:1
     RDKit          3D

 47 51  0  0  1  0  0  0  0  0999 V2000
    5.9752   -1.1897    2.1640 C   0  0  0  0  0  0  0  0  0  0  0  0
    5.6231   -2.2809    1.4530 C   0  0  0  0  0  0  0  0  0  0  0  0
    6.6849   -3.2855    0.9854 C   0  0  1  0  0  0  0  0  0  0  0  0
    6.6684   -4.6447    1.7478 C   0  0  0  0  0  0  0  0  0  0  0  0
    5.4266   -4.8935    2.6268 C   0  0  0  0  0  0  0  0  0  0  0  0
    4.0965   -5.0364    1.8815 C   0  0  0  0  0  0  0  0  0  0  0  0
    3.7860   -3.9466    0.9005 N   0  0  1  0  0  0  0  0  0  0  0  0
    4.1464   -2.5489    1.2328 C   0  0  2  0  0  0  0  0  0  0  0  0
    3.4922   -1.5996    0.2122 C   0  0  1  0  0  0  0  0  0  0  0  0
    3.5181   -0.2883    0.7143 O   0  0  0  0  0  0  0  0  0  0  0  0
    4.1720   -1.7237   -1.1623 C   0  0  2  0  0  0  0  0  0  0  0  0
    3.4072   -1.0554   -2.3107 C   0  0  1  0  0  0  0  0  0  0  0  0
    4.3016   -0.3816   -3.1502 O   0  0  0  0  0  0  0  0  0  0  0  0
    2.7207   -2.1610   -3.0910 C   0  0  0  0  0  0  0  0  0  0  0  0
    3.7084   -3.2936   -2.9620 C   0  0  0  0  0  0  0  0  0  0  0  0
    4.3223   -3.2096   -1.5374 C   0  0  1  0  0  0  0  0  0  0  0  0
    5.7140   -3.8642   -1.3985 C   0  0  2  0  0  0  0  0  0  0  0  0
    5.0217   -5.1235   -0.9460 C   0  0  0  0  0  0  0  0  0  0  0  0
    3.8286   -4.2912   -0.5405 C   0  0  1  0  0  0  0  0  0  0  0  0
    6.8904   -3.4001   -0.5403 C   0  0  1  0  0  0  0  0  0  0  0  0
    7.4658   -2.2546   -1.1252 O   0  0  0  0  0  0  0  0  0  0  0  0
    5.2410   -0.5059    2.5677 H   0  0  0  0  0  0  0  0  0  0  0  0
    7.0084   -0.9746    2.3545 H   0  0  0  0  0  0  0  0  0  0  0  0
    7.6283   -2.8420    1.2846 H   0  0  0  0  0  0  0  0  0  0  0  0
    6.9071   -5.5004    1.1112 H   0  0  0  0  0  0  0  0  0  0  0  0
    7.5038   -4.6844    2.4266 H   0  0  0  0  0  0  0  0  0  0  0  0
    5.5847   -5.8139    3.1835 H   0  0  0  0  0  0  0  0  0  0  0  0
    5.3485   -4.1105    3.3836 H   0  0  0  0  0  0  0  0  0  0  0  0
    4.0165   -6.0155    1.4152 H   0  0  0  0  0  0  0  0  0  0  0  0
    3.3063   -5.0164    2.6244 H   0  0  0  0  0  0  0  0  0  0  0  0
    3.6535   -2.3622    2.1815 H   0  0  0  0  0  0  0  0  0  0  0  0
    2.4540   -1.9083    0.1125 H   0  0  0  0  0  0  0  0  0  0  0  0
    4.3851    0.0661    0.5630 H   0  0  0  0  0  0  0  0  0  0  0  0
    5.1483   -1.2550   -1.0910 H   0  0  0  0  0  0  0  0  0  0  0  0
    2.6495   -0.3683   -1.9806 H   0  0  0  0  0  0  0  0  0  0  0  0
    3.7927    0.2024   -3.6957 H   0  0  0  0  0  0  0  0  0  0  0  0
    1.8012   -2.4224   -2.5768 H   0  0  0  0  0  0  0  0  0  0  0  0
    2.4671   -1.8782   -4.1205 H   0  0  0  0  0  0  0  0  0  0  0  0
    3.2122   -4.2221   -3.1988 H   0  0  0  0  0  0  0  0  0  0  0  0
    4.4778   -3.1612   -3.7243 H   0  0  0  0  0  0  0  0  0  0  0  0
    6.0567   -4.0346   -2.4103 H   0  0  0  0  0  0  0  0  0  0  0  0
    4.8752   -5.7132   -1.8303 H   0  0  0  0  0  0  0  0  0  0  0  0
    5.4807   -5.7648   -0.2144 H   0  0  0  0  0  0  0  0  0  0  0  0
    2.8742   -4.7390   -0.8164 H   0  0  0  0  0  0  0  0  0  0  0  0
    7.6852   -4.1493   -0.6633 H   0  0  0  0  0  0  0  0  0  0  0  0
    7.9892   -2.5786   -1.8451 H   0  0  0  0  0  0  0  0  0  0  0  0
    2.7914   -3.8946    1.0084 H   0  0  0  0  0  0  0  0  0  0  0  0
  1  2  2  0
  1 22  1  0
  1 23  1  0
  2  8  1  0
  2  3  1  0
  3 20  1  0
  3  4  1  0
  3 24  1  1
  4  5  1  0
  4 25  1  0
  4 26  1  0
  5  6  1  0
  5 27  1  0
  5 28  1  0
  6  7  1  0
  6 29  1  0
  6 30  1  0
  7 19  1  0
  7  8  1  0
  7 47  1  1
  8  9  1  0
  8 31  1  1
  9 10  1  0
  9 11  1  0
  9 32  1  6
 10 33  1  0
 11 16  1  0
 11 12  1  0
 11 34  1  1
 12 13  1  0
 12 14  1  0
 12 35  1  1
 13 36  1  0
 14 15  1  0
 14 37  1  0
 14 38  1  0
 16 15  1  6
 15 39  1  0
 15 40  1  0
 16 19  1  0
 16 17  1  0
 17 18  1  0
 17 20  1  0
 17 41  1  6
 18 19  1  0
 18 42  1  0
 18 43  1  0
 19 44  1  6
 20 21  1  0
 20 45  1  1
 21 46  1  0
M  CHG  1   7   1
M  END
>  <i_m_ct_stereo_status>  (160) 
1

>  <s_m_source_file>  (160) 
/var/tmp/pbs.5076255.sched01/tmpaqd8m8vp/41rn73ajce.sdf

>  <i_m_source_file_index>  (160) 
38

>  <i_lp_mmshare_version>  (160) 
48012

>  <i_f3d_flags>  (160) 
0

>  <s_epik_input>  (160) 
W0NIMl0xW0NIMl1bQ0gyXVtDQEhdKEMyPVtDSDJdKVtDQEhdKFtPSF0pW0NASF0zW0NIMl1bQ0BIXTROMVtDSF0yW0NAQEhdKFtPSF0pW0NAQEhdKFtDQEBdMzQ1KVtDQEBIXShbT0hdKVtDSDJdW0NIMl01

>  <s_epik_cmdline>  (160) 
J2VwaWtfcHl0aG9uJywgJy1waHQnLCAnMi4wJywgJy1waCcsICc3LjAnLCAnLXRuJywgJzgnLCAnLW1hJywgJzIwMCcsICctaW1hZScsICc8aW5maWxlLm1hZT4nLCAnLW9tYWUnLCAnPG91dGZpbGUubWFlPic=

>  <r_epik_Ionization_Penalty>  (160) 
0.287928

>  <r_epik_Ionization_Penalty_Charging>  (160) 
0.287927

>  <r_epik_Ionization_Penalty_Neutral>  (160) 
1.73213e-07

>  <r_epik_State_Penalty>  (160) 
0.280825

>  <r_epik_Charging_Adjusted_Penalty>  (160) 
0.568752

>  <i_epik_Tot_Q>  (160) 
1

>  <i_epik_Tot_abs_Q>  (160) 
1

>  <s_lp_Force_Field>  (160) 
OPLS3e

>  <r_lp_Energy>  (160) 
71.3971

>  <b_lp_Chiralities_Consistent>  (160) 
1

>  <s_lp_Variant>  (160) 
60:0-1

>  <s_i_glide_gridfile>  (160) 
pfpi4k_grid

>  <i_i_glide_lignum>  (160) 
38

>  <i_i_glide_rotatable_bonds>  (160) 
3

>  <r_i_docking_score>  (160) 
-3.93951

>  <r_i_glide_ligand_efficiency>  (160) 
-0.187596

>  <r_i_glide_ligand_efficiency_sa>  (160) 
-0.517563

>  <r_i_glide_ligand_efficiency_ln>  (160) 
-0.974037

>  <r_i_glide_gscore>  (160) 
-3.93951

>  <r_i_glide_lipo>  (160) 
-0.592548

>  <r_i_glide_hbond>  (160) 
-0.16

>  <r_i_glide_metal>  (160) 
-0

>  <r_i_glide_rewards>  (160) 
-1.4155

>  <r_i_glide_evdw>  (160) 
-10.3713

>  <r_i_glide_ecoul>  (160) 
-8.35268

>  <r_i_glide_erotb>  (160) 
0

>  <r_i_glide_esite>  (160) 
0

>  <r_i_glide_emodel>  (160) 
-19.7424

>  <r_i_glide_energy>  (160) 
-18.724

>  <r_i_glide_einternal>  (160) 
1.26449

>  <r_i_glide_intrahb_reward>  (160) 
-0

>  <i_i_glide_confnum>  (160) 
1

>  <i_i_glide_posenum>  (160) 
6

>  <r_i_glide_eff_state_penalty>  (160) 
0

>  <ligand_id>  (160) 
60

>  <original_smiles>  (160) 
C=C1C2CCCN3C1C(O)C1C(O)CCC14C(CC34)C2O

>  <smiles>  (160) 
[H]OC1([H])C2([H])C(=C([H])[H])C3([H])C([H])(O[H])C4([H])C([H])(O[H])C([H])([H])C([H])([H])C45C1([H])C([H])([H])C5([H])[N+]3([H])C([H])([H])C([H])([H])C2([H])[H]

$$$$
60:0:2
     RDKit          3D

 47 51  0  0  1  0  0  0  0  0999 V2000
    5.4569   -5.5692    0.1011 C   0  0  0  0  0  0  0  0  0  0  0  0
    5.1414   -4.3764   -0.4143 C   0  0  0  0  0  0  0  0  0  0  0  0
    6.2056   -3.5132   -1.0820 C   0  0  1  0  0  0  0  0  0  0  0  0
    6.0606   -3.4087   -2.6153 C   0  0  0  0  0  0  0  0  0  0  0  0
    4.7500   -3.8820   -3.2345 C   0  0  0  0  0  0  0  0  0  0  0  0
    3.5006   -3.1104   -2.8405 C   0  0  0  0  0  0  0  0  0  0  0  0
    3.3577   -2.8548   -1.3880 N   0  0  1  0  0  0  0  0  0  0  0  0
    3.6887   -3.9033   -0.4050 C   0  0  2  0  0  0  0  0  0  0  0  0
    3.1963   -3.4828    0.9908 C   0  0  1  0  0  0  0  0  0  0  0  0
    3.1590   -4.6110    1.8494 O   0  0  0  0  0  0  0  0  0  0  0  0
    4.0503   -2.3426    1.5450 C   0  0  2  0  0  0  0  0  0  0  0  0
    3.4351   -1.7055    2.8039 C   0  0  1  0  0  0  0  0  0  0  0  0
    4.4777   -1.3989    3.7118 O   0  0  0  0  0  0  0  0  0  0  0  0
    2.8067   -0.4143    2.3264 C   0  0  0  0  0  0  0  0  0  0  0  0
    3.7527   -0.0071    1.2061 C   0  0  0  0  0  0  0  0  0  0  0  0
    4.2184   -1.2649    0.4518 C   0  0  1  0  0  0  0  0  0  0  0  0
    5.5643   -1.1154   -0.3126 C   0  0  2  0  0  0  0  0  0  0  0  0
    4.7675   -0.7803   -1.5709 C   0  0  0  0  0  0  0  0  0  0  0  0
    3.5951   -1.4709   -0.9513 C   0  0  1  0  0  0  0  0  0  0  0  0
    6.6158   -2.2118   -0.4115 C   0  0  1  0  0  0  0  0  0  0  0  0
    7.1974   -2.4457    0.8438 O   0  0  0  0  0  0  0  0  0  0  0  0
    4.7177   -6.2469    0.5212 H   0  0  0  0  0  0  0  0  0  0  0  0
    6.4795   -5.9445    0.0861 H   0  0  0  0  0  0  0  0  0  0  0  0
    7.1204   -4.0747   -0.9454 H   0  0  0  0  0  0  0  0  0  0  0  0
    6.4218   -2.4947   -3.0563 H   0  0  0  0  0  0  0  0  0  0  0  0
    6.8078   -4.0530   -3.0247 H   0  0  0  0  0  0  0  0  0  0  0  0
    4.8454   -3.9090   -4.3246 H   0  0  0  0  0  0  0  0  0  0  0  0
    4.6406   -4.9337   -2.9747 H   0  0  0  0  0  0  0  0  0  0  0  0
    3.4395   -2.2042   -3.4307 H   0  0  0  0  0  0  0  0  0  0  0  0
    2.6571   -3.7087   -3.1548 H   0  0  0  0  0  0  0  0  0  0  0  0
    3.1184   -4.7704   -0.6978 H   0  0  0  0  0  0  0  0  0  0  0  0
    2.1636   -3.1403    0.9106 H   0  0  0  0  0  0  0  0  0  0  0  0
    4.0428   -4.9206    1.9915 H   0  0  0  0  0  0  0  0  0  0  0  0
    5.0067   -2.7663    1.8363 H   0  0  0  0  0  0  0  0  0  0  0  0
    2.7199   -2.3554    3.3031 H   0  0  0  0  0  0  0  0  0  0  0  0
    4.1293   -0.8783    4.4078 H   0  0  0  0  0  0  0  0  0  0  0  0
    1.8164   -0.6109    1.9087 H   0  0  0  0  0  0  0  0  0  0  0  0
    2.7065    0.3432    3.1056 H   0  0  0  0  0  0  0  0  0  0  0  0
    3.2750    0.7304    0.5736 H   0  0  0  0  0  0  0  0  0  0  0  0
    4.6132    0.4878    1.6582 H   0  0  0  0  0  0  0  0  0  0  0  0
    6.0209   -0.2004    0.0428 H   0  0  0  0  0  0  0  0  0  0  0  0
    4.4989    0.2435   -1.6871 H   0  0  0  0  0  0  0  0  0  0  0  0
    5.1387   -1.0926   -2.5304 H   0  0  0  0  0  0  0  0  0  0  0  0
    2.7301   -0.8564   -1.1028 H   0  0  0  0  0  0  0  0  0  0  0  0
    7.4495   -1.8633   -1.0216 H   0  0  0  0  0  0  0  0  0  0  0  0
    7.8622   -3.0970    0.7404 H   0  0  0  0  0  0  0  0  0  0  0  0
    2.3648   -2.8477   -1.3190 H   0  0  0  0  0  0  0  0  0  0  0  0
  1  2  2  0
  1 22  1  0
  1 23  1  0
  2  8  1  0
  2  3  1  0
  3 20  1  0
  3  4  1  0
  3 24  1  6
  4  5  1  0
  4 25  1  0
  4 26  1  0
  5  6  1  0
  5 27  1  0
  5 28  1  0
  6  7  1  0
  6 29  1  0
  6 30  1  0
  7 19  1  0
  7  8  1  0
  7 47  1  6
  8  9  1  0
  8 31  1  6
  9 10  1  0
  9 11  1  0
  9 32  1  6
 10 33  1  0
 11 16  1  0
 11 12  1  0
 11 34  1  1
 12 13  1  0
 12 14  1  0
 12 35  1  1
 13 36  1  0
 14 15  1  0
 14 37  1  0
 14 38  1  0
 16 15  1  1
 15 39  1  0
 15 40  1  0
 16 19  1  0
 16 17  1  0
 17 18  1  0
 17 20  1  0
 17 41  1  1
 18 19  1  0
 18 42  1  0
 18 43  1  0
 19 44  1  1
 20 21  1  0
 20 45  1  6
 21 46  1  0
M  CHG  1   7   1
M  END
>  <i_m_ct_stereo_status>  (161) 
1

>  <s_m_source_file>  (161) 
/var/tmp/pbs.5076255.sched01/tmpaqd8m8vp/41rn73ajce.sdf

>  <i_m_source_file_index>  (161) 
38

>  <i_lp_mmshare_version>  (161) 
48012

>  <i_f3d_flags>  (161) 
0

>  <s_epik_input>  (161) 
W0NIMl0xW0NIMl1bQ0gyXVtDQEhdKEMyPVtDSDJdKVtDQEhdKFtPSF0pW0NASF0zW0NIMl1bQ0BIXTROMVtDSF0yW0NAQEhdKFtPSF0pW0NAQEhdKFtDQEBdMzQ1KVtDQEBIXShbT0hdKVtDSDJdW0NIMl01

>  <s_epik_cmdline>  (161) 
J2VwaWtfcHl0aG9uJywgJy1waHQnLCAnMi4wJywgJy1waCcsICc3LjAnLCAnLXRuJywgJzgnLCAnLW1hJywgJzIwMCcsICctaW1hZScsICc8aW5maWxlLm1hZT4nLCAnLW9tYWUnLCAnPG91dGZpbGUubWFlPic=

>  <r_epik_Ionization_Penalty>  (161) 
0.287928

>  <r_epik_Ionization_Penalty_Charging>  (161) 
0.287927

>  <r_epik_Ionization_Penalty_Neutral>  (161) 
1.73213e-07

>  <r_epik_State_Penalty>  (161) 
0.280825

>  <r_epik_Charging_Adjusted_Penalty>  (161) 
0.568752

>  <i_epik_Tot_Q>  (161) 
1

>  <i_epik_Tot_abs_Q>  (161) 
1

>  <s_lp_Force_Field>  (161) 
OPLS3e

>  <r_lp_Energy>  (161) 
71.3971

>  <b_lp_Chiralities_Consistent>  (161) 
1

>  <s_lp_Variant>  (161) 
60:0-1

>  <s_i_glide_gridfile>  (161) 
pfpi4k_grid

>  <i_i_glide_lignum>  (161) 
38

>  <i_i_glide_rotatable_bonds>  (161) 
3

>  <r_i_docking_score>  (161) 
-3.22956

>  <r_i_glide_ligand_efficiency>  (161) 
-0.153789

>  <r_i_glide_ligand_efficiency_sa>  (161) 
-0.424291

>  <r_i_glide_ligand_efficiency_ln>  (161) 
-0.798503

>  <r_i_glide_gscore>  (161) 
-3.22956

>  <r_i_glide_lipo>  (161) 
-0.597907

>  <r_i_glide_hbond>  (161) 
0

>  <r_i_glide_metal>  (161) 
-0

>  <r_i_glide_rewards>  (161) 
-1.4155

>  <r_i_glide_evdw>  (161) 
-13.1207

>  <r_i_glide_ecoul>  (161) 
-3.61591

>  <r_i_glide_erotb>  (161) 
0

>  <r_i_glide_esite>  (161) 
-0.0177331

>  <r_i_glide_emodel>  (161) 
-17.9976

>  <r_i_glide_energy>  (161) 
-16.7366

>  <r_i_glide_einternal>  (161) 
0.865553

>  <r_i_glide_intrahb_reward>  (161) 
-0

>  <i_i_glide_confnum>  (161) 
2

>  <i_i_glide_posenum>  (161) 
12

>  <r_i_glide_eff_state_penalty>  (161) 
0

>  <ligand_id>  (161) 
60

>  <original_smiles>  (161) 
C=C1C2CCCN3C1C(O)C1C(O)CCC14C(CC34)C2O

>  <smiles>  (161) 
[H]OC1([H])C2([H])C(=C([H])[H])C3([H])C([H])(O[H])C4([H])C([H])(O[H])C([H])([H])C([H])([H])C45C1([H])C([H])([H])C5([H])[N+]3([H])C([H])([H])C([H])([H])C2([H])[H]

$$$$
60:1:0
     RDKit          3D

 46 50  0  0  1  0  0  0  0  0999 V2000
    7.7136   -1.6709    0.4724 C   0  0  0  0  0  0  0  0  0  0  0  0
    6.5746   -2.3628    0.2957 C   0  0  0  0  0  0  0  0  0  0  0  0
    5.2197   -1.7152    0.6018 C   0  0  1  0  0  0  0  0  0  0  0  0
    4.3995   -1.3358   -0.6659 C   0  0  0  0  0  0  0  0  0  0  0  0
    4.8297   -1.9741   -2.0030 C   0  0  0  0  0  0  0  0  0  0  0  0
    4.8240   -3.5101   -2.0717 C   0  0  0  0  0  0  0  0  0  0  0  0
    5.3710   -4.2095   -0.9086 N   0  0  0  0  0  0  0  0  0  0  0  0
    6.6359   -3.7637   -0.3259 C   0  0  2  0  0  0  0  0  0  0  0  0
    7.1855   -4.8512    0.6253 C   0  0  1  0  0  0  0  0  0  0  0  0
    8.5471   -4.6246    0.9488 O   0  0  0  0  0  0  0  0  0  0  0  0
    6.3004   -4.9548    1.8833 C   0  0  2  0  0  0  0  0  0  0  0  0
    6.6520   -6.1867    2.7404 C   0  0  1  0  0  0  0  0  0  0  0  0
    6.5865   -5.8486    4.1121 O   0  0  0  0  0  0  0  0  0  0  0  0
    5.5642   -7.1968    2.4228 C   0  0  0  0  0  0  0  0  0  0  0  0
    4.3306   -6.3320    2.1817 C   0  0  0  0  0  0  0  0  0  0  0  0
    4.7977   -5.0321    1.4967 C   0  0  1  0  0  0  0  0  0  0  0  0
    3.8719   -3.7909    1.7017 C   0  0  2  0  0  0  0  0  0  0  0  0
    3.1248   -4.2332    0.4432 C   0  0  0  0  0  0  0  0  0  0  0  0
    4.4309   -4.8812   -0.0060 C   0  0  1  0  0  0  0  0  0  0  0  0
    4.3785   -2.3272    1.7668 C   0  0  1  0  0  0  0  0  0  0  0  0
    5.0382   -2.1375    3.0016 O   0  0  0  0  0  0  0  0  0  0  0  0
    8.6763   -2.0935    0.2257 H   0  0  0  0  0  0  0  0  0  0  0  0
    7.7107   -0.6667    0.8796 H   0  0  0  0  0  0  0  0  0  0  0  0
    5.4833   -0.7326    1.0042 H   0  0  0  0  0  0  0  0  0  0  0  0
    3.3280   -1.4551   -0.4989 H   0  0  0  0  0  0  0  0  0  0  0  0
    4.5120   -0.2596   -0.8065 H   0  0  0  0  0  0  0  0  0  0  0  0
    4.1747   -1.5990   -2.7899 H   0  0  0  0  0  0  0  0  0  0  0  0
    5.8257   -1.6178   -2.2558 H   0  0  0  0  0  0  0  0  0  0  0  0
    3.8089   -3.8595   -2.2649 H   0  0  0  0  0  0  0  0  0  0  0  0
    5.3952   -3.8074   -2.9505 H   0  0  0  0  0  0  0  0  0  0  0  0
    7.3464   -3.6837   -1.1521 H   0  0  0  0  0  0  0  0  0  0  0  0
    7.1523   -5.8102    0.0970 H   0  0  0  0  0  0  0  0  0  0  0  0
    8.8227   -5.3062    1.5415 H   0  0  0  0  0  0  0  0  0  0  0  0
    6.4972   -4.0664    2.4782 H   0  0  0  0  0  0  0  0  0  0  0  0
    7.6449   -6.5884    2.5363 H   0  0  0  0  0  0  0  0  0  0  0  0
    6.7470   -6.6234    4.6280 H   0  0  0  0  0  0  0  0  0  0  0  0
    5.8153   -7.7269    1.5042 H   0  0  0  0  0  0  0  0  0  0  0  0
    5.4181   -7.9434    3.2038 H   0  0  0  0  0  0  0  0  0  0  0  0
    3.5771   -6.8710    1.6075 H   0  0  0  0  0  0  0  0  0  0  0  0
    3.8820   -6.0951    3.1477 H   0  0  0  0  0  0  0  0  0  0  0  0
    3.2210   -3.9748    2.5583 H   0  0  0  0  0  0  0  0  0  0  0  0
    2.3513   -4.9705    0.6541 H   0  0  0  0  0  0  0  0  0  0  0  0
    2.7301   -3.4563   -0.2050 H   0  0  0  0  0  0  0  0  0  0  0  0
    4.2046   -5.8592   -0.4342 H   0  0  0  0  0  0  0  0  0  0  0  0
    3.4916   -1.6961    1.8480 H   0  0  0  0  0  0  0  0  0  0  0  0
    5.1716   -1.2126    3.1309 H   0  0  0  0  0  0  0  0  0  0  0  0
  1  2  2  0
  1 22  1  0
  1 23  1  0
  2  8  1  0
  2  3  1  0
  3 20  1  0
  3  4  1  0
  3 24  1  1
  4  5  1  0
  4 25  1  0
  4 26  1  0
  5  6  1  0
  5 27  1  0
  5 28  1  0
  6  7  1  0
  6 29  1  0
  6 30  1  0
  7 19  1  0
  7  8  1  0
  8  9  1  0
  8 31  1  6
  9 10  1  0
  9 11  1  0
  9 32  1  6
 10 33  1  0
 11 16  1  0
 11 12  1  0
 11 34  1  1
 12 13  1  0
 12 14  1  0
 12 35  1  6
 13 36  1  0
 14 15  1  0
 14 37  1  0
 14 38  1  0
 16 15  1  1
 15 39  1  0
 15 40  1  0
 16 19  1  0
 16 17  1  0
 17 18  1  0
 17 20  1  0
 17 41  1  1
 18 19  1  0
 18 42  1  0
 18 43  1  0
 19 44  1  6
 20 21  1  0
 20 45  1  1
 21 46  1  0
M  END
>  <i_m_ct_stereo_status>  (162) 
1

>  <s_m_source_file>  (162) 
/var/tmp/pbs.5076255.sched01/tmpaqd8m8vp/41rn73ajce.sdf

>  <i_m_source_file_index>  (162) 
39

>  <i_lp_mmshare_version>  (162) 
48012

>  <i_f3d_flags>  (162) 
0

>  <s_epik_input>  (162) 
W0NIMl0xW0NIMl1bQ0gyXVtDQEhdKEMyPVtDSDJdKVtDQEhdKFtPSF0pW0NASF0zW0NIMl1bQ0BIXTROMVtDSF0yW0NAQEhdKFtPSF0pW0NAQEhdKFtDQEBdMzQ1KVtDQEBIXShbT0hdKVtDSDJdW0NIMl01

>  <s_epik_cmdline>  (162) 
J2VwaWtfcHl0aG9uJywgJy1waHQnLCAnMi4wJywgJy1waCcsICc3LjAnLCAnLXRuJywgJzgnLCAnLW1hJywgJzIwMCcsICctaW1hZScsICc8aW5maWxlLm1hZT4nLCAnLW9tYWUnLCAnPG91dGZpbGUubWFlPic=

>  <r_epik_Ionization_Penalty>  (162) 
0.565695

>  <r_epik_Ionization_Penalty_Charging>  (162) 
0

>  <r_epik_Ionization_Penalty_Neutral>  (162) 
0.565695

>  <r_epik_State_Penalty>  (162) 
0.577224

>  <r_epik_Charging_Adjusted_Penalty>  (162) 
0.577224

>  <i_epik_Tot_Q>  (162) 
0

>  <i_epik_Tot_abs_Q>  (162) 
0

>  <s_lp_Force_Field>  (162) 
OPLS3e

>  <r_lp_Energy>  (162) 
65.7313

>  <b_lp_Chiralities_Consistent>  (162) 
1

>  <s_lp_Variant>  (162) 
60:0-2

>  <s_i_glide_gridfile>  (162) 
pfpi4k_grid

>  <i_i_glide_lignum>  (162) 
39

>  <i_i_glide_rotatable_bonds>  (162) 
3

>  <r_i_docking_score>  (162) 
-3.3822

>  <r_i_glide_ligand_efficiency>  (162) 
-0.161057

>  <r_i_glide_ligand_efficiency_sa>  (162) 
-0.444345

>  <r_i_glide_ligand_efficiency_ln>  (162) 
-0.836242

>  <r_i_glide_gscore>  (162) 
-3.3822

>  <r_i_glide_lipo>  (162) 
-0.531358

>  <r_i_glide_hbond>  (162) 
0

>  <r_i_glide_metal>  (162) 
-0

>  <r_i_glide_rewards>  (162) 
-1.42237

>  <r_i_glide_evdw>  (162) 
-22.9652

>  <r_i_glide_ecoul>  (162) 
-1.86807

>  <r_i_glide_erotb>  (162) 
0

>  <r_i_glide_esite>  (162) 
0

>  <r_i_glide_emodel>  (162) 
-29.6649

>  <r_i_glide_energy>  (162) 
-24.8333

>  <r_i_glide_einternal>  (162) 
0.997331

>  <r_i_glide_intrahb_reward>  (162) 
-0

>  <i_i_glide_confnum>  (162) 
2

>  <i_i_glide_posenum>  (162) 
22

>  <r_i_glide_eff_state_penalty>  (162) 
0

>  <ligand_id>  (162) 
60

>  <original_smiles>  (162) 
C=C1C2CCCN3C1C(O)C1C(O)CCC14C(CC34)C2O

>  <smiles>  (162) 
[H]OC1([H])C2([H])C(=C([H])[H])C3([H])N(C([H])([H])C([H])([H])C2([H])[H])C2([H])C([H])([H])C1([H])C21C([H])([H])C([H])([H])C([H])(O[H])C1([H])C3([H])O[H]

$$$$
60:1:1
     RDKit          3D

 46 50  0  0  1  0  0  0  0  0999 V2000
    7.7520   -1.6613    0.4723 C   0  0  0  0  0  0  0  0  0  0  0  0
    6.6110   -2.3566    0.3148 C   0  0  0  0  0  0  0  0  0  0  0  0
    5.2606   -1.7109    0.6454 C   0  0  1  0  0  0  0  0  0  0  0  0
    4.4194   -1.3369   -0.6088 C   0  0  0  0  0  0  0  0  0  0  0  0
    4.8262   -1.9723   -1.9534 C   0  0  0  0  0  0  0  0  0  0  0  0
    4.8187   -3.5071   -2.0216 C   0  0  0  0  0  0  0  0  0  0  0  0
    5.3856   -4.2039   -0.8680 N   0  0  0  0  0  0  0  0  0  0  0  0
    6.6635   -3.7565   -0.3145 C   0  0  2  0  0  0  0  0  0  0  0  0
    7.2341   -4.8388    0.6286 C   0  0  1  0  0  0  0  0  0  0  0  0
    8.6002   -4.6019    0.9239 O   0  0  0  0  0  0  0  0  0  0  0  0
    6.3690   -4.9501    1.9015 C   0  0  2  0  0  0  0  0  0  0  0  0
    6.7361   -6.1751    2.7598 C   0  0  1  0  0  0  0  0  0  0  0  0
    6.6736   -5.8423    4.1337 O   0  0  0  0  0  0  0  0  0  0  0  0
    5.6444   -7.1883    2.4639 C   0  0  0  0  0  0  0  0  0  0  0  0
    4.4041   -6.3241    2.2431 C   0  0  0  0  0  0  0  0  0  0  0  0
    4.8579   -5.0246    1.5494 C   0  0  1  0  0  0  0  0  0  0  0  0
    3.9345   -3.7834    1.7724 C   0  0  2  0  0  0  0  0  0  0  0  0
    3.1654   -4.2282    0.5288 C   0  0  0  0  0  0  0  0  0  0  0  0
    4.4634   -4.8740    0.0541 C   0  0  1  0  0  0  0  0  0  0  0  0
    4.4398   -2.3223    1.8260 C   0  0  1  0  0  0  0  0  0  0  0  0
    5.1142   -2.1246    3.0501 O   0  0  0  0  0  0  0  0  0  0  0  0
    8.7141   -2.0749    0.1972 H   0  0  0  0  0  0  0  0  0  0  0  0
    7.7510   -0.6562    0.8794 H   0  0  0  0  0  0  0  0  0  0  0  0
    5.5296   -0.7270    1.0452 H   0  0  0  0  0  0  0  0  0  0  0  0
    3.3492   -1.4510   -0.4232 H   0  0  0  0  0  0  0  0  0  0  0  0
    4.5280   -0.2589   -0.7516 H   0  0  0  0  0  0  0  0  0  0  0  0
    4.1581   -1.5960   -2.7295 H   0  0  0  0  0  0  0  0  0  0  0  0
    5.8182   -1.6150   -2.2223 H   0  0  0  0  0  0  0  0  0  0  0  0
    3.8001   -3.8557   -2.1940 H   0  0  0  0  0  0  0  0  0  0  0  0
    5.3742   -3.8062   -2.9104 H   0  0  0  0  0  0  0  0  0  0  0  0
    7.3570   -3.6755   -1.1541 H   0  0  0  0  0  0  0  0  0  0  0  0
    7.1984   -5.7967    0.1031 H   0  0  0  0  0  0  0  0  0  0  0  0
    8.6531   -3.8882    1.5387 H   0  0  0  0  0  0  0  0  0  0  0  0
    6.5833   -4.0593    2.4822 H   0  0  0  0  0  0  0  0  0  0  0  0
    7.7311   -6.5658    2.5462 H   0  0  0  0  0  0  0  0  0  0  0  0
    5.7923   -5.5712    4.3423 H   0  0  0  0  0  0  0  0  0  0  0  0
    5.8808   -7.7195    1.5422 H   0  0  0  0  0  0  0  0  0  0  0  0
    5.5159   -7.9326    3.2522 H   0  0  0  0  0  0  0  0  0  0  0  0
    3.6429   -6.8676    1.6803 H   0  0  0  0  0  0  0  0  0  0  0  0
    3.9638   -6.0901    3.2149 H   0  0  0  0  0  0  0  0  0  0  0  0
    3.2956   -3.9673    2.6366 H   0  0  0  0  0  0  0  0  0  0  0  0
    2.3966   -4.9670    0.7525 H   0  0  0  0  0  0  0  0  0  0  0  0
    2.7602   -3.4498   -0.1146 H   0  0  0  0  0  0  0  0  0  0  0  0
    4.2230   -5.8515   -0.3645 H   0  0  0  0  0  0  0  0  0  0  0  0
    3.5594   -1.6851    1.9230 H   0  0  0  0  0  0  0  0  0  0  0  0
    5.8663   -2.6938    3.0705 H   0  0  0  0  0  0  0  0  0  0  0  0
  1  2  2  0
  1 22  1  0
  1 23  1  0
  2  8  1  0
  2  3  1  0
  3 20  1  0
  3  4  1  0
  3 24  1  1
  4  5  1  0
  4 25  1  0
  4 26  1  0
  5  6  1  0
  5 27  1  0
  5 28  1  0
  6  7  1  0
  6 29  1  0
  6 30  1  0
  7 19  1  0
  7  8  1  0
  8  9  1  0
  8 31  1  6
  9 10  1  0
  9 11  1  0
  9 32  1  6
 10 33  1  0
 11 16  1  0
 11 12  1  0
 11 34  1  1
 12 13  1  0
 12 14  1  0
 12 35  1  6
 13 36  1  0
 14 15  1  0
 14 37  1  0
 14 38  1  0
 16 15  1  1
 15 39  1  0
 15 40  1  0
 16 19  1  0
 16 17  1  0
 17 18  1  0
 17 20  1  0
 17 41  1  1
 18 19  1  0
 18 42  1  0
 18 43  1  0
 19 44  1  6
 20 21  1  0
 20 45  1  1
 21 46  1  0
M  END
>  <i_m_ct_stereo_status>  (163) 
1

>  <s_m_source_file>  (163) 
/var/tmp/pbs.5076255.sched01/tmpaqd8m8vp/41rn73ajce.sdf

>  <i_m_source_file_index>  (163) 
39

>  <i_lp_mmshare_version>  (163) 
48012

>  <i_f3d_flags>  (163) 
0

>  <s_epik_input>  (163) 
W0NIMl0xW0NIMl1bQ0gyXVtDQEhdKEMyPVtDSDJdKVtDQEhdKFtPSF0pW0NASF0zW0NIMl1bQ0BIXTROMVtDSF0yW0NAQEhdKFtPSF0pW0NAQEhdKFtDQEBdMzQ1KVtDQEBIXShbT0hdKVtDSDJdW0NIMl01

>  <s_epik_cmdline>  (163) 
J2VwaWtfcHl0aG9uJywgJy1waHQnLCAnMi4wJywgJy1waCcsICc3LjAnLCAnLXRuJywgJzgnLCAnLW1hJywgJzIwMCcsICctaW1hZScsICc8aW5maWxlLm1hZT4nLCAnLW9tYWUnLCAnPG91dGZpbGUubWFlPic=

>  <r_epik_Ionization_Penalty>  (163) 
0.565695

>  <r_epik_Ionization_Penalty_Charging>  (163) 
0

>  <r_epik_Ionization_Penalty_Neutral>  (163) 
0.565695

>  <r_epik_State_Penalty>  (163) 
0.577224

>  <r_epik_Charging_Adjusted_Penalty>  (163) 
0.577224

>  <i_epik_Tot_Q>  (163) 
0

>  <i_epik_Tot_abs_Q>  (163) 
0

>  <s_lp_Force_Field>  (163) 
OPLS3e

>  <r_lp_Energy>  (163) 
65.7313

>  <b_lp_Chiralities_Consistent>  (163) 
1

>  <s_lp_Variant>  (163) 
60:0-2

>  <s_i_glide_gridfile>  (163) 
pfpi4k_grid

>  <i_i_glide_lignum>  (163) 
39

>  <i_i_glide_rotatable_bonds>  (163) 
3

>  <r_i_docking_score>  (163) 
-3.32189

>  <r_i_glide_ligand_efficiency>  (163) 
-0.158185

>  <r_i_glide_ligand_efficiency_sa>  (163) 
-0.436421

>  <r_i_glide_ligand_efficiency_ln>  (163) 
-0.82133

>  <r_i_glide_gscore>  (163) 
-3.32189

>  <r_i_glide_lipo>  (163) 
-0.542901

>  <r_i_glide_hbond>  (163) 
0

>  <r_i_glide_metal>  (163) 
-0

>  <r_i_glide_rewards>  (163) 
-1.42237

>  <r_i_glide_evdw>  (163) 
-22.7604

>  <r_i_glide_ecoul>  (163) 
-1.45731

>  <r_i_glide_erotb>  (163) 
0

>  <r_i_glide_esite>  (163) 
0

>  <r_i_glide_emodel>  (163) 
-29.3477

>  <r_i_glide_energy>  (163) 
-24.2177

>  <r_i_glide_einternal>  (163) 
0.141268

>  <r_i_glide_intrahb_reward>  (163) 
-0

>  <i_i_glide_confnum>  (163) 
1

>  <i_i_glide_posenum>  (163) 
1

>  <r_i_glide_eff_state_penalty>  (163) 
0

>  <ligand_id>  (163) 
60

>  <original_smiles>  (163) 
C=C1C2CCCN3C1C(O)C1C(O)CCC14C(CC34)C2O

>  <smiles>  (163) 
[H]OC1([H])C2([H])C(=C([H])[H])C3([H])N(C([H])([H])C([H])([H])C2([H])[H])C2([H])C([H])([H])C1([H])C21C([H])([H])C([H])([H])C([H])(O[H])C1([H])C3([H])O[H]

$$$$
60:1:2
     RDKit          3D

 46 50  0  0  1  0  0  0  0  0999 V2000
    7.5801   -2.8061    0.2179 C   0  0  0  0  0  0  0  0  0  0  0  0
    6.2466   -2.7696    0.3972 C   0  0  0  0  0  0  0  0  0  0  0  0
    5.5203   -1.4181    0.4855 C   0  0  1  0  0  0  0  0  0  0  0  0
    4.6842   -1.0754   -0.7784 C   0  0  0  0  0  0  0  0  0  0  0  0
    4.3670   -2.2299   -1.7508 C   0  0  0  0  0  0  0  0  0  0  0  0
    3.5877   -3.4266   -1.1754 C   0  0  0  0  0  0  0  0  0  0  0  0
    4.0139   -3.9078    0.1364 N   0  0  0  0  0  0  0  0  0  0  0  0
    5.4396   -4.0814    0.4034 C   0  0  2  0  0  0  0  0  0  0  0  0
    5.6253   -4.9147    1.6940 C   0  0  1  0  0  0  0  0  0  0  0  0
    6.9521   -5.3920    1.8319 O   0  0  0  0  0  0  0  0  0  0  0  0
    5.1810   -4.1033    2.9265 C   0  0  2  0  0  0  0  0  0  0  0  0
    5.1069   -4.9637    4.2015 C   0  0  1  0  0  0  0  0  0  0  0  0
    5.5799   -4.2181    5.3077 O   0  0  0  0  0  0  0  0  0  0  0  0
    3.6257   -5.2375    4.3947 C   0  0  0  0  0  0  0  0  0  0  0  0
    2.9579   -3.9677    3.8802 C   0  0  0  0  0  0  0  0  0  0  0  0
    3.7937   -3.4512    2.6938 C   0  0  1  0  0  0  0  0  0  0  0  0
    3.6912   -1.9151    2.4201 C   0  0  2  0  0  0  0  0  0  0  0  0
    2.5186   -2.2398    1.5014 C   0  0  0  0  0  0  0  0  0  0  0  0
    3.1547   -3.6067    1.2875 C   0  0  1  0  0  0  0  0  0  0  0  0
    4.8361   -1.0486    1.8415 C   0  0  1  0  0  0  0  0  0  0  0  0
    5.8149   -0.8512    2.8374 O   0  0  0  0  0  0  0  0  0  0  0  0
    8.1036   -3.7425    0.0965 H   0  0  0  0  0  0  0  0  0  0  0  0
    8.1752   -1.9058    0.1767 H   0  0  0  0  0  0  0  0  0  0  0  0
    6.3247   -0.6791    0.4409 H   0  0  0  0  0  0  0  0  0  0  0  0
    3.7838   -0.5309   -0.5125 H   0  0  0  0  0  0  0  0  0  0  0  0
    5.2549   -0.3498   -1.3575 H   0  0  0  0  0  0  0  0  0  0  0  0
    3.7924   -1.8293   -2.5862 H   0  0  0  0  0  0  0  0  0  0  0  0
    5.2985   -2.5928   -2.1821 H   0  0  0  0  0  0  0  0  0  0  0  0
    2.5191   -3.2030   -1.1562 H   0  0  0  0  0  0  0  0  0  0  0  0
    3.6926   -4.2466   -1.8856 H   0  0  0  0  0  0  0  0  0  0  0  0
    5.8412   -4.6780   -0.4180 H   0  0  0  0  0  0  0  0  0  0  0  0
    4.9933   -5.8019    1.6110 H   0  0  0  0  0  0  0  0  0  0  0  0
    7.5316   -4.6532    1.9469 H   0  0  0  0  0  0  0  0  0  0  0  0
    5.9282   -3.3340    3.0827 H   0  0  0  0  0  0  0  0  0  0  0  0
    5.6849   -5.8859    4.1343 H   0  0  0  0  0  0  0  0  0  0  0  0
    6.5079   -4.0836    5.2057 H   0  0  0  0  0  0  0  0  0  0  0  0
    3.3287   -6.0801    3.7684 H   0  0  0  0  0  0  0  0  0  0  0  0
    3.3596   -5.4798    5.4247 H   0  0  0  0  0  0  0  0  0  0  0  0
    1.9136   -4.1478    3.6231 H   0  0  0  0  0  0  0  0  0  0  0  0
    2.9591   -3.2289    4.6835 H   0  0  0  0  0  0  0  0  0  0  0  0
    3.2873   -1.4218    3.3069 H   0  0  0  0  0  0  0  0  0  0  0  0
    1.5710   -2.3006    2.0369 H   0  0  0  0  0  0  0  0  0  0  0  0
    2.4035   -1.6307    0.6136 H   0  0  0  0  0  0  0  0  0  0  0  0
    2.3676   -4.3628    1.3194 H   0  0  0  0  0  0  0  0  0  0  0  0
    4.4272   -0.0469    1.6981 H   0  0  0  0  0  0  0  0  0  0  0  0
    6.2169   -1.6841    3.0227 H   0  0  0  0  0  0  0  0  0  0  0  0
  1  2  2  0
  1 22  1  0
  1 23  1  0
  2  8  1  0
  2  3  1  0
  3 20  1  0
  3  4  1  0
  3 24  1  6
  4  5  1  0
  4 25  1  0
  4 26  1  0
  5  6  1  0
  5 27  1  0
  5 28  1  0
  6  7  1  0
  6 29  1  0
  6 30  1  0
  7 19  1  0
  7  8  1  0
  8  9  1  0
  8 31  1  6
  9 10  1  0
  9 11  1  0
  9 32  1  6
 10 33  1  0
 11 16  1  0
 11 12  1  0
 11 34  1  1
 12 13  1  0
 12 14  1  0
 12 35  1  6
 13 36  1  0
 14 15  1  0
 14 37  1  0
 14 38  1  0
 16 15  1  1
 15 39  1  0
 15 40  1  0
 16 19  1  0
 16 17  1  0
 17 18  1  0
 17 20  1  0
 17 41  1  1
 18 19  1  0
 18 42  1  0
 18 43  1  0
 19 44  1  1
 20 21  1  0
 20 45  1  6
 21 46  1  0
M  END
>  <i_m_ct_stereo_status>  (164) 
1

>  <s_m_source_file>  (164) 
/var/tmp/pbs.5076255.sched01/tmpaqd8m8vp/41rn73ajce.sdf

>  <i_m_source_file_index>  (164) 
39

>  <i_lp_mmshare_version>  (164) 
48012

>  <i_f3d_flags>  (164) 
0

>  <s_epik_input>  (164) 
W0NIMl0xW0NIMl1bQ0gyXVtDQEhdKEMyPVtDSDJdKVtDQEhdKFtPSF0pW0NASF0zW0NIMl1bQ0BIXTROMVtDSF0yW0NAQEhdKFtPSF0pW0NAQEhdKFtDQEBdMzQ1KVtDQEBIXShbT0hdKVtDSDJdW0NIMl01

>  <s_epik_cmdline>  (164) 
J2VwaWtfcHl0aG9uJywgJy1waHQnLCAnMi4wJywgJy1waCcsICc3LjAnLCAnLXRuJywgJzgnLCAnLW1hJywgJzIwMCcsICctaW1hZScsICc8aW5maWxlLm1hZT4nLCAnLW9tYWUnLCAnPG91dGZpbGUubWFlPic=

>  <r_epik_Ionization_Penalty>  (164) 
0.565695

>  <r_epik_Ionization_Penalty_Charging>  (164) 
0

>  <r_epik_Ionization_Penalty_Neutral>  (164) 
0.565695

>  <r_epik_State_Penalty>  (164) 
0.577224

>  <r_epik_Charging_Adjusted_Penalty>  (164) 
0.577224

>  <i_epik_Tot_Q>  (164) 
0

>  <i_epik_Tot_abs_Q>  (164) 
0

>  <s_lp_Force_Field>  (164) 
OPLS3e

>  <r_lp_Energy>  (164) 
65.7313

>  <b_lp_Chiralities_Consistent>  (164) 
1

>  <s_lp_Variant>  (164) 
60:0-2

>  <s_i_glide_gridfile>  (164) 
pfpi4k_grid

>  <i_i_glide_lignum>  (164) 
39

>  <i_i_glide_rotatable_bonds>  (164) 
3

>  <r_i_docking_score>  (164) 
-3.08551

>  <r_i_glide_ligand_efficiency>  (164) 
-0.146929

>  <r_i_glide_ligand_efficiency_sa>  (164) 
-0.405366

>  <r_i_glide_ligand_efficiency_ln>  (164) 
-0.762886

>  <r_i_glide_gscore>  (164) 
-3.08551

>  <r_i_glide_lipo>  (164) 
-0.57781

>  <r_i_glide_hbond>  (164) 
0

>  <r_i_glide_metal>  (164) 
-0

>  <r_i_glide_rewards>  (164) 
-1.42237

>  <r_i_glide_evdw>  (164) 
-20.389

>  <r_i_glide_ecoul>  (164) 
-0.439174

>  <r_i_glide_erotb>  (164) 
0

>  <r_i_glide_esite>  (164) 
0

>  <r_i_glide_emodel>  (164) 
-25.5193

>  <r_i_glide_energy>  (164) 
-20.8282

>  <r_i_glide_einternal>  (164) 
0.321762

>  <r_i_glide_intrahb_reward>  (164) 
-0

>  <i_i_glide_confnum>  (164) 
2

>  <i_i_glide_posenum>  (164) 
11

>  <r_i_glide_eff_state_penalty>  (164) 
0

>  <ligand_id>  (164) 
60

>  <original_smiles>  (164) 
C=C1C2CCCN3C1C(O)C1C(O)CCC14C(CC34)C2O

>  <smiles>  (164) 
[H]OC1([H])C2([H])C(=C([H])[H])C3([H])N(C([H])([H])C([H])([H])C2([H])[H])C2([H])C([H])([H])C1([H])C21C([H])([H])C([H])([H])C([H])(O[H])C1([H])C3([H])O[H]

$$$$
63:0:0
     RDKit          3D

 31 33  0  0  1  0  0  0  0  0999 V2000
   -1.8115   -1.9330    5.6775 O   0  0  0  0  0  0  0  0  0  0  0  0
   -1.7137   -0.6921    5.6181 C   0  0  0  0  0  0  0  0  0  0  0  0
   -2.2460    0.0754    6.4647 O   0  0  0  0  0  0  0  0  0  0  0  0
   -0.8877   -0.0729    4.4854 C   0  0  0  0  0  0  0  0  0  0  0  0
   -0.4833    1.4170    4.6997 C   0  0  1  0  0  0  0  0  0  0  0  0
    0.3996    1.5755    5.9835 C   0  0  0  0  0  0  0  0  0  0  0  0
    0.8143    3.0464    6.1672 C   0  0  2  0  0  0  0  0  0  0  0  0
   -0.4507    3.9163    6.2869 C   0  0  0  0  0  0  0  0  0  0  0  0
   -1.2738    3.8226    4.9810 C   0  0  1  0  0  0  0  0  0  0  0  0
   -0.4239    4.2714    3.7848 C   0  0  0  0  0  0  0  0  0  0  0  0
    0.8138    3.3612    3.6772 C   0  0  1  0  0  0  0  0  0  0  0  0
    1.6625    3.4871    4.9621 C   0  0  0  0  0  0  0  0  0  0  0  0
    0.3756    1.8850    3.4959 C   0  0  0  0  0  0  0  0  0  0  0  0
   -1.7238    2.3673    4.7708 C   0  0  0  0  0  0  0  0  0  0  0  0
   -0.0004   -0.6915    4.3521 H   0  0  0  0  0  0  0  0  0  0  0  0
   -1.4647   -0.1748    3.5658 H   0  0  0  0  0  0  0  0  0  0  0  0
   -0.1148    1.2638    6.8918 H   0  0  0  0  0  0  0  0  0  0  0  0
    1.2886    0.9470    5.9119 H   0  0  0  0  0  0  0  0  0  0  0  0
    1.4075    3.1345    7.0802 H   0  0  0  0  0  0  0  0  0  0  0  0
   -1.0531    3.5737    7.1275 H   0  0  0  0  0  0  0  0  0  0  0  0
   -0.1842    4.9482    6.4978 H   0  0  0  0  0  0  0  0  0  0  0  0
   -2.1647    4.4438    5.0563 H   0  0  0  0  0  0  0  0  0  0  0  0
   -1.0186    4.1995    2.8755 H   0  0  0  0  0  0  0  0  0  0  0  0
   -0.1346    5.3157    3.8910 H   0  0  0  0  0  0  0  0  0  0  0  0
    1.4120    3.6764    2.8219 H   0  0  0  0  0  0  0  0  0  0  0  0
    2.0042    4.5145    5.0902 H   0  0  0  0  0  0  0  0  0  0  0  0
    2.5533    2.8625    4.8812 H   0  0  0  0  0  0  0  0  0  0  0  0
    1.2570    1.2544    3.3732 H   0  0  0  0  0  0  0  0  0  0  0  0
   -0.1857    1.7914    2.5638 H   0  0  0  0  0  0  0  0  0  0  0  0
   -2.3079    2.2836    3.8476 H   0  0  0  0  0  0  0  0  0  0  0  0
   -2.4102    2.1715    5.5850 H   0  0  0  0  0  0  0  0  0  0  0  0
  1  2  2  0
  2  3  1  0
  2  4  1  0
  5  4  1  6
  4 15  1  0
  4 16  1  0
  5 13  1  0
  5 14  1  0
  5  6  1  0
  6  7  1  0
  6 17  1  0
  6 18  1  0
  7 12  1  0
  7  8  1  0
  7 19  1  1
  8  9  1  0
  8 20  1  0
  8 21  1  0
  9 10  1  0
  9 14  1  0
  9 22  1  1
 10 11  1  0
 10 23  1  0
 10 24  1  0
 11 12  1  0
 11 13  1  0
 11 25  1  6
 12 26  1  0
 12 27  1  0
 13 28  1  0
 13 29  1  0
 14 30  1  0
 14 31  1  0
M  CHG  1   3  -1
M  END
>  <i_m_ct_stereo_status>  (165) 
1

>  <s_m_source_file>  (165) 
/var/tmp/pbs.5076255.sched01/tmp25xsusm8/82mdre8bl4.sdf

>  <i_m_source_file_index>  (165) 
5

>  <i_lp_mmshare_version>  (165) 
48012

>  <i_f3d_flags>  (165) 
0

>  <s_epik_input>  (165) 
Tz1DKFtPSF0pW0NIMl1DMTJbQ0gyXVtDQEhdM1tDSDJdW0NAQEhdKFtDSDJdMilbQ0gyXVtDQEhdKFtDSDJdMylbQ0gyXTE=

>  <s_epik_cmdline>  (165) 
J2VwaWtfcHl0aG9uJywgJy1waHQnLCAnMi4wJywgJy1waCcsICc3LjAnLCAnLXRuJywgJzgnLCAnLW1hJywgJzIwMCcsICctaW1hZScsICc8aW5maWxlLm1hZT4nLCAnLW9tYWUnLCAnPG91dGZpbGUubWFlPic=

>  <r_epik_Ionization_Penalty>  (165) 
0.0061509

>  <r_epik_Ionization_Penalty_Charging>  (165) 
0.0061509

>  <r_epik_Ionization_Penalty_Neutral>  (165) 
0

>  <r_epik_State_Penalty>  (165) 
0.00453538

>  <r_epik_Charging_Adjusted_Penalty>  (165) 
0.0106863

>  <i_epik_Tot_Q>  (165) 
-1

>  <i_epik_Tot_abs_Q>  (165) 
1

>  <s_lp_Force_Field>  (165) 
OPLS3e

>  <r_lp_Energy>  (165) 
-2.19593

>  <b_lp_Chiralities_Consistent>  (165) 
1

>  <s_lp_Variant>  (165) 
63:0-1

>  <s_i_glide_gridfile>  (165) 
pfpi4k_grid

>  <i_i_glide_lignum>  (165) 
5

>  <i_i_glide_rotatable_bonds>  (165) 
2

>  <r_i_docking_score>  (165) 
-3.77711

>  <r_i_glide_ligand_efficiency>  (165) 
-0.269794

>  <r_i_glide_ligand_efficiency_sa>  (165) 
-0.650242

>  <r_i_glide_ligand_efficiency_ln>  (165) 
-1.03794

>  <r_i_glide_gscore>  (165) 
-3.77711

>  <r_i_glide_lipo>  (165) 
0

>  <r_i_glide_hbond>  (165) 
-0.2

>  <r_i_glide_metal>  (165) 
-0

>  <r_i_glide_rewards>  (165) 
-2.09139

>  <r_i_glide_evdw>  (165) 
-11.5444

>  <r_i_glide_ecoul>  (165) 
-5.57238

>  <r_i_glide_erotb>  (165) 
0

>  <r_i_glide_esite>  (165) 
-0.072646

>  <r_i_glide_emodel>  (165) 
-25.0619

>  <r_i_glide_energy>  (165) 
-17.1167

>  <r_i_glide_einternal>  (165) 
0.0964267

>  <r_i_glide_intrahb_reward>  (165) 
-0

>  <i_i_glide_confnum>  (165) 
2

>  <i_i_glide_posenum>  (165) 
10

>  <r_i_glide_eff_state_penalty>  (165) 
0

>  <ligand_id>  (165) 
63

>  <original_smiles>  (165) 
O=C(O)CC12CC3CC(CC(C3)C1)C2

>  <smiles>  (165) 
[H]C([H])(C(=O)[O-])C12C([H])([H])C3([H])C([H])([H])C([H])(C([H])([H])C([H])(C3([H])[H])C1([H])[H])C2([H])[H]

$$$$
64:0:0
     RDKit          3D

 73 77  0  0  1  0  0  0  0  0999 V2000
    5.9098   -2.4707   -2.2693 C   0  0  0  0  0  0  0  0  0  0  0  0
    6.5588   -2.4350   -0.8721 C   0  0  0  0  0  0  0  0  0  0  0  0
    7.5765   -3.5735   -0.7029 C   0  0  0  0  0  0  0  0  0  0  0  0
    5.5511   -2.2082    0.3088 C   0  0  2  0  0  0  0  0  0  0  0  0
    6.1683   -2.3281    1.7252 C   0  0  0  0  0  0  0  0  0  0  0  0
    5.0899   -2.9296    2.6312 C   0  0  0  0  0  0  0  0  0  0  0  0
    3.7586   -2.8303    1.8802 C   0  0  2  0  0  0  0  0  0  0  0  0
    3.1664   -1.4100    2.1537 C   0  0  0  0  0  0  0  0  0  0  0  0
    2.7050   -3.9203    2.3170 C   0  0  2  0  0  0  0  0  0  0  0  0
    2.1727   -3.8665    3.7606 C   0  0  0  0  0  0  0  0  0  0  0  0
    3.0026   -4.6975    4.7321 C   0  0  0  0  0  0  0  0  0  0  0  0
    3.1074   -6.1898    4.3307 C   0  0  2  0  0  0  0  0  0  0  0  0
    3.3690   -6.3351    2.8310 C   0  0  0  0  0  0  0  0  0  0  0  0
    3.1571   -5.3341    1.9396 C   0  0  0  0  0  0  0  0  0  0  0  0
    3.3537   -5.4747    0.4639 C   0  0  1  0  0  0  0  0  0  0  0  0
    2.1491   -5.2793   -0.2443 O   0  0  0  0  0  0  0  0  0  0  0  0
    4.4361   -4.4943    0.0460 C   0  0  0  0  0  0  0  0  0  0  0  0
    4.2003   -2.9852    0.3713 C   0  0  2  0  0  0  0  0  0  0  0  0
    3.1590   -2.3760   -0.5996 C   0  0  0  0  0  0  0  0  0  0  0  0
    3.7558   -7.7537    2.4707 C   0  0  0  0  0  0  0  0  0  0  0  0
    2.5304   -8.6112    2.7145 C   0  0  0  0  0  0  0  0  0  0  0  0
    2.0230   -9.2602    1.8089 O   0  0  0  0  0  0  0  0  0  0  0  0
    1.9960   -8.5713    4.1719 C   0  0  1  0  0  0  0  0  0  0  0  0
    1.8766   -7.0917    4.6801 C   0  0  1  0  0  0  0  0  0  0  0  0
    1.5420   -7.1350    6.1751 C   0  0  0  0  0  0  0  0  0  0  0  0
    2.2269   -6.6080    7.0525 O   0  0  0  0  0  0  0  0  0  0  0  0
    0.2854   -7.9183    6.5215 C   0  0  0  0  0  0  0  0  0  0  0  0
    0.4072   -9.3511    5.9825 C   0  0  0  0  0  0  0  0  0  0  0  0
    0.7120   -9.4314    4.4618 C   0  0  0  0  0  0  0  0  0  0  0  0
   -0.5180   -8.9308    3.6593 C   0  0  0  0  0  0  0  0  0  0  0  0
    0.9491  -10.9324    4.1549 C   0  0  0  0  0  0  0  0  0  0  0  0
    5.2334   -3.3220   -2.4030 H   0  0  0  0  0  0  0  0  0  0  0  0
    6.6479   -2.6249   -3.0538 H   0  0  0  0  0  0  0  0  0  0  0  0
    5.3586   -1.5572   -2.4865 H   0  0  0  0  0  0  0  0  0  0  0  0
    7.1654   -1.5407   -0.8386 H   0  0  0  0  0  0  0  0  0  0  0  0
    7.1011   -4.5198   -0.4317 H   0  0  0  0  0  0  0  0  0  0  0  0
    8.3098   -3.3610    0.0707 H   0  0  0  0  0  0  0  0  0  0  0  0
    8.1575   -3.7266   -1.6190 H   0  0  0  0  0  0  0  0  0  0  0  0
    5.2808   -1.1573    0.2284 H   0  0  0  0  0  0  0  0  0  0  0  0
    7.0159   -3.0037    1.7673 H   0  0  0  0  0  0  0  0  0  0  0  0
    6.5116   -1.3592    2.0987 H   0  0  0  0  0  0  0  0  0  0  0  0
    5.3467   -3.9800    2.7949 H   0  0  0  0  0  0  0  0  0  0  0  0
    5.0736   -2.4561    3.6145 H   0  0  0  0  0  0  0  0  0  0  0  0
    2.1624   -1.3034    1.7530 H   0  0  0  0  0  0  0  0  0  0  0  0
    3.7711   -0.6105    1.7273 H   0  0  0  0  0  0  0  0  0  0  0  0
    3.1186   -1.1903    3.2188 H   0  0  0  0  0  0  0  0  0  0  0  0
    1.8319   -3.7220    1.7071 H   0  0  0  0  0  0  0  0  0  0  0  0
    2.0735   -2.8441    4.1165 H   0  0  0  0  0  0  0  0  0  0  0  0
    1.1585   -4.2714    3.7513 H   0  0  0  0  0  0  0  0  0  0  0  0
    4.0116   -4.2779    4.7808 H   0  0  0  0  0  0  0  0  0  0  0  0
    2.5951   -4.5716    5.7322 H   0  0  0  0  0  0  0  0  0  0  0  0
    3.9861   -6.5963    4.8348 H   0  0  0  0  0  0  0  0  0  0  0  0
    3.7176   -6.4573    0.1790 H   0  0  0  0  0  0  0  0  0  0  0  0
    2.3406   -5.4602   -1.1463 H   0  0  0  0  0  0  0  0  0  0  0  0
    5.3149   -4.8242    0.6078 H   0  0  0  0  0  0  0  0  0  0  0  0
    4.6581   -4.6628   -1.0134 H   0  0  0  0  0  0  0  0  0  0  0  0
    2.1484   -2.6701   -0.3273 H   0  0  0  0  0  0  0  0  0  0  0  0
    3.2892   -2.6915   -1.6309 H   0  0  0  0  0  0  0  0  0  0  0  0
    3.1684   -1.2829   -0.6020 H   0  0  0  0  0  0  0  0  0  0  0  0
    4.1055   -7.8995    1.4453 H   0  0  0  0  0  0  0  0  0  0  0  0
    4.5700   -8.0938    3.1124 H   0  0  0  0  0  0  0  0  0  0  0  0
    2.8005   -9.0330    4.7433 H   0  0  0  0  0  0  0  0  0  0  0  0
    1.0189   -6.6374    4.1900 H   0  0  0  0  0  0  0  0  0  0  0  0
    0.1317   -7.9230    7.5994 H   0  0  0  0  0  0  0  0  0  0  0  0
   -0.5688   -7.4135    6.0660 H   0  0  0  0  0  0  0  0  0  0  0  0
    1.2032   -9.8569    6.5322 H   0  0  0  0  0  0  0  0  0  0  0  0
   -0.5054   -9.8957    6.2250 H   0  0  0  0  0  0  0  0  0  0  0  0
   -1.4211   -9.4509    3.9505 H   0  0  0  0  0  0  0  0  0  0  0  0
   -0.4015   -9.0819    2.5822 H   0  0  0  0  0  0  0  0  0  0  0  0
   -0.7185   -7.8718    3.8290 H   0  0  0  0  0  0  0  0  0  0  0  0
    0.1455  -11.5507    4.5475 H   0  0  0  0  0  0  0  0  0  0  0  0
    1.8669  -11.2894    4.6204 H   0  0  0  0  0  0  0  0  0  0  0  0
    1.0107  -11.1464    3.0854 H   0  0  0  0  0  0  0  0  0  0  0  0
  1  2  1  0
  1 32  1  0
  1 33  1  0
  1 34  1  0
  2  3  1  0
  2  4  1  0
  2 35  1  0
  3 36  1  0
  3 37  1  0
  3 38  1  0
  4 18  1  0
  4  5  1  0
  4 39  1  6
  5  6  1  0
  5 40  1  0
  5 41  1  0
  6  7  1  0
  6 42  1  0
  6 43  1  0
  7 18  1  0
  7  8  1  6
  7  9  1  0
  8 44  1  0
  8 45  1  0
  8 46  1  0
  9 14  1  0
  9 10  1  0
  9 47  1  6
 10 11  1  0
 10 48  1  0
 10 49  1  0
 11 12  1  0
 11 50  1  0
 11 51  1  0
 12 24  1  0
 12 13  1  0
 12 52  1  1
 13 14  2  0
 13 20  1  0
 14 15  1  0
 15 16  1  0
 15 17  1  0
 15 53  1  1
 16 54  1  0
 17 18  1  0
 17 55  1  0
 17 56  1  0
 18 19  1  6
 19 57  1  0
 19 58  1  0
 19 59  1  0
 20 21  1  0
 20 60  1  0
 20 61  1  0
 21 22  2  0
 21 23  1  0
 23 29  1  0
 23 24  1  0
 23 62  1  1
 24 25  1  0
 24 63  1  6
 25 26  2  0
 25 27  1  0
 27 28  1  0
 27 64  1  0
 27 65  1  0
 28 29  1  0
 28 66  1  0
 28 67  1  0
 29 30  1  0
 29 31  1  0
 30 68  1  0
 30 69  1  0
 30 70  1  0
 31 71  1  0
 31 72  1  0
 31 73  1  0
M  END
>  <i_m_ct_stereo_status>  (166) 
1

>  <s_m_source_file>  (166) 
/var/tmp/pbs.5076255.sched01/tmp25xsusm8/82mdre8bl4.sdf

>  <i_m_source_file_index>  (166) 
6

>  <i_lp_mmshare_version>  (166) 
48012

>  <i_f3d_flags>  (166) 
0

>  <s_epik_input>  (166) 
W0NIM11bQ0hdKFtDSDNdKVtDQEhdKFtDSDJdW0NIMl0xKVtDQEBdMihbQ0gzXSlbQ0gyXVtDQEhdKFtPSF0pQyhbQ0BASF0zW0NAQF0xMltDSDNdKT1DNFtDQEBIXShbQ0gyXVtDSDJdMylbQ0BIXTVbQ0BIXShDKD1PKVtDSDJdNClDKFtDSDNdKShbQ0gzXSlbQ0gyXVtDSDJdQzU9Tw==

>  <s_epik_cmdline>  (166) 
J2VwaWtfcHl0aG9uJywgJy1waHQnLCAnMi4wJywgJy1waCcsICc3LjAnLCAnLXRuJywgJzgnLCAnLW1hJywgJzIwMCcsICctaW1hZScsICc8aW5maWxlLm1hZT4nLCAnLW9tYWUnLCAnPG91dGZpbGUubWFlPic=

>  <r_lp_tautomer_probability>  (166) 
1

>  <r_epik_Ionization_Penalty>  (166) 
8.21393e-07

>  <r_epik_Ionization_Penalty_Charging>  (166) 
0

>  <r_epik_Ionization_Penalty_Neutral>  (166) 
8.21393e-07

>  <r_epik_State_Penalty>  (166) 
-0

>  <r_epik_Charging_Adjusted_Penalty>  (166) 
0

>  <i_epik_Tot_Q>  (166) 
0

>  <i_epik_Tot_abs_Q>  (166) 
0

>  <s_lp_Force_Field>  (166) 
OPLS3e

>  <r_lp_Energy>  (166) 
52.7074

>  <b_lp_Chiralities_Consistent>  (166) 
1

>  <s_lp_Variant>  (166) 
64:0-1

>  <s_i_glide_gridfile>  (166) 
pfpi4k_grid

>  <i_i_glide_lignum>  (166) 
6

>  <i_i_glide_rotatable_bonds>  (166) 
2

>  <r_i_docking_score>  (166) 
-2.91107

>  <r_i_glide_ligand_efficiency>  (166) 
-0.0939053

>  <r_i_glide_ligand_efficiency_sa>  (166) 
-0.294992

>  <r_i_glide_ligand_efficiency_ln>  (166) 
-0.656535

>  <r_i_glide_gscore>  (166) 
-2.91107

>  <r_i_glide_lipo>  (166) 
-0.355454

>  <r_i_glide_hbond>  (166) 
-0.32

>  <r_i_glide_metal>  (166) 
-0

>  <r_i_glide_rewards>  (166) 
-0.500241

>  <r_i_glide_evdw>  (166) 
-21.0611

>  <r_i_glide_ecoul>  (166) 
-4.4834

>  <r_i_glide_erotb>  (166) 
0

>  <r_i_glide_esite>  (166) 
-0.00980356

>  <r_i_glide_emodel>  (166) 
-27.0857

>  <r_i_glide_energy>  (166) 
-25.5445

>  <r_i_glide_einternal>  (166) 
5.10538

>  <r_i_glide_intrahb_reward>  (166) 
-0

>  <i_i_glide_confnum>  (166) 
2

>  <i_i_glide_posenum>  (166) 
1

>  <r_i_glide_eff_state_penalty>  (166) 
0

>  <ligand_id>  (166) 
64

>  <original_smiles>  (166) 
CC(C)C1CCC2(C)C3CCC4C(=C3C(O)CC12C)CC(=O)C1C4C(=O)CCC1(C)C

>  <smiles>  (166) 
[H]OC1([H])C2=C3C([H])([H])C(=O)C4([H])C([H])(C(=O)C([H])([H])C([H])([H])C4(C([H])([H])[H])C([H])([H])[H])C3([H])C([H])([H])C([H])([H])C2([H])C2(C([H])([H])[H])C([H])([H])C([H])([H])C([H])(C([H])(C([H])([H])[H])C([H])([H])[H])C2(C([H])([H])[H])C1([H])[H]

$$$$
64:0:1
     RDKit          3D

 73 77  0  0  1  0  0  0  0  0999 V2000
    6.8780   -1.9769   -1.8500 C   0  0  0  0  0  0  0  0  0  0  0  0
    7.1803   -1.8708   -0.3428 C   0  0  0  0  0  0  0  0  0  0  0  0
    8.0487   -3.0626    0.1162 C   0  0  0  0  0  0  0  0  0  0  0  0
    5.9227   -1.4202    0.4816 C   0  0  2  0  0  0  0  0  0  0  0  0
    6.1274   -1.3895    2.0006 C   0  0  0  0  0  0  0  0  0  0  0  0
    4.8437   -1.8822    2.6661 C   0  0  0  0  0  0  0  0  0  0  0  0
    3.7546   -1.8297    1.5861 C   0  0  2  0  0  0  0  0  0  0  0  0
    3.2005   -0.3774    1.5680 C   0  0  0  0  0  0  0  0  0  0  0  0
    2.5840   -2.8478    1.8238 C   0  0  2  0  0  0  0  0  0  0  0  0
    1.7118   -2.6365    3.0792 C   0  0  0  0  0  0  0  0  0  0  0  0
    2.2388   -3.3892    4.2972 C   0  0  0  0  0  0  0  0  0  0  0  0
    2.3743   -4.9135    4.0501 C   0  0  2  0  0  0  0  0  0  0  0  0
    2.9904   -5.2075    2.6950 C   0  0  0  0  0  0  0  0  0  0  0  0
    3.0422   -4.2930    1.6910 C   0  0  0  0  0  0  0  0  0  0  0  0
    3.6290   -4.5888    0.3255 C   0  0  1  0  0  0  0  0  0  0  0  0
    2.6831   -4.4094   -0.6873 O   0  0  0  0  0  0  0  0  0  0  0  0
    4.8479   -3.6890    0.1469 C   0  0  0  0  0  0  0  0  0  0  0  0
    4.5666   -2.1573    0.2660 C   0  0  2  0  0  0  0  0  0  0  0  0
    3.8345   -1.6138   -0.9966 C   0  0  0  0  0  0  0  0  0  0  0  0
    3.3991   -6.6679    2.5744 C   0  0  0  0  0  0  0  0  0  0  0  0
    2.1107   -7.4619    2.5718 C   0  0  0  0  0  0  0  0  0  0  0  0
    1.8065   -8.1760    1.6115 O   0  0  0  0  0  0  0  0  0  0  0  0
    1.2308   -7.2701    3.8147 C   0  0  1  0  0  0  0  0  0  0  0  0
    1.0567   -5.7386    4.1378 C   0  0  1  0  0  0  0  0  0  0  0  0
    0.3703   -5.6323    5.4912 C   0  0  0  0  0  0  0  0  0  0  0  0
    0.8377   -5.0361    6.4705 O   0  0  0  0  0  0  0  0  0  0  0  0
   -0.9504   -6.3529    5.5799 C   0  0  0  0  0  0  0  0  0  0  0  0
   -0.7827   -7.8447    5.2148 C   0  0  0  0  0  0  0  0  0  0  0  0
   -0.1154   -8.0759    3.8341 C   0  0  0  0  0  0  0  0  0  0  0  0
   -1.1053   -7.6624    2.7115 C   0  0  0  0  0  0  0  0  0  0  0  0
    0.1432   -9.5919    3.7035 C   0  0  0  0  0  0  0  0  0  0  0  0
    6.2930   -2.8413   -2.1147 H   0  0  0  0  0  0  0  0  0  0  0  0
    7.8417   -2.0487   -2.3970 H   0  0  0  0  0  0  0  0  0  0  0  0
    6.3328   -1.0941   -2.2127 H   0  0  0  0  0  0  0  0  0  0  0  0
    7.8833   -1.0577   -0.1472 H   0  0  0  0  0  0  0  0  0  0  0  0
    7.4865   -3.9685    0.2653 H   0  0  0  0  0  0  0  0  0  0  0  0
    8.5910   -2.7953    1.0213 H   0  0  0  0  0  0  0  0  0  0  0  0
    8.8645   -3.1935   -0.6150 H   0  0  0  0  0  0  0  0  0  0  0  0
    5.7509   -0.3798    0.2183 H   0  0  0  0  0  0  0  0  0  0  0  0
    6.8761   -2.1221    2.2393 H   0  0  0  0  0  0  0  0  0  0  0  0
    6.4327   -0.4118    2.3869 H   0  0  0  0  0  0  0  0  0  0  0  0
    5.0182   -2.9119    2.9749 H   0  0  0  0  0  0  0  0  0  0  0  0
    4.6010   -1.3149    3.5689 H   0  0  0  0  0  0  0  0  0  0  0  0
    2.3359   -0.2811    0.9095 H   0  0  0  0  0  0  0  0  0  0  0  0
    3.9345    0.3593    1.2427 H   0  0  0  0  0  0  0  0  0  0  0  0
    2.8929   -0.0481    2.5615 H   0  0  0  0  0  0  0  0  0  0  0  0
    1.9051   -2.6805    0.9844 H   0  0  0  0  0  0  0  0  0  0  0  0
    1.5854   -1.5812    3.3045 H   0  0  0  0  0  0  0  0  0  0  0  0
    0.7121   -3.0192    2.8825 H   0  0  0  0  0  0  0  0  0  0  0  0
    3.2176   -2.9926    4.5683 H   0  0  0  0  0  0  0  0  0  0  0  0
    1.5880   -3.1618    5.1380 H   0  0  0  0  0  0  0  0  0  0  0  0
    3.0664   -5.2990    4.8034 H   0  0  0  0  0  0  0  0  0  0  0  0
    3.9960   -5.6054    0.2556 H   0  0  0  0  0  0  0  0  0  0  0  0
    2.8987   -5.0003   -1.4029 H   0  0  0  0  0  0  0  0  0  0  0  0
    5.5444   -3.9636    0.9546 H   0  0  0  0  0  0  0  0  0  0  0  0
    5.3063   -3.9427   -0.7869 H   0  0  0  0  0  0  0  0  0  0  0  0
    2.7718   -1.8506   -0.9838 H   0  0  0  0  0  0  0  0  0  0  0  0
    4.2256   -2.0339   -1.9232 H   0  0  0  0  0  0  0  0  0  0  0  0
    3.9207   -0.5310   -1.0809 H   0  0  0  0  0  0  0  0  0  0  0  0
    3.9862   -6.9265    1.7007 H   0  0  0  0  0  0  0  0  0  0  0  0
    3.9997   -6.9564    3.4370 H   0  0  0  0  0  0  0  0  0  0  0  0
    1.8298   -7.6805    4.6342 H   0  0  0  0  0  0  0  0  0  0  0  0
    0.3605   -5.3149    3.4122 H   0  0  0  0  0  0  0  0  0  0  0  0
   -1.2773   -6.1912    6.6051 H   0  0  0  0  0  0  0  0  0  0  0  0
   -1.6561   -5.8982    4.8867 H   0  0  0  0  0  0  0  0  0  0  0  0
   -0.1881   -8.3243    5.9937 H   0  0  0  0  0  0  0  0  0  0  0  0
   -1.7509   -8.3460    5.2298 H   0  0  0  0  0  0  0  0  0  0  0  0
   -2.0698   -8.1642    2.8271 H   0  0  0  0  0  0  0  0  0  0  0  0
   -0.7292   -7.9090    1.7185 H   0  0  0  0  0  0  0  0  0  0  0  0
   -1.2997   -6.5971    2.7401 H   0  0  0  0  0  0  0  0  0  0  0  0
   -0.7919  -10.1159    3.8435 H   0  0  0  0  0  0  0  0  0  0  0  0
    0.8590   -9.9353    4.4563 H   0  0  0  0  0  0  0  0  0  0  0  0
    0.4869   -9.8903    2.7139 H   0  0  0  0  0  0  0  0  0  0  0  0
  1  2  1  0
  1 32  1  0
  1 33  1  0
  1 34  1  0
  2  3  1  0
  2  4  1  0
  2 35  1  0
  3 36  1  0
  3 37  1  0
  3 38  1  0
  4 18  1  0
  4  5  1  0
  4 39  1  6
  5  6  1  0
  5 40  1  0
  5 41  1  0
  6  7  1  0
  6 42  1  0
  6 43  1  0
  7 18  1  0
  7  8  1  6
  7  9  1  0
  8 44  1  0
  8 45  1  0
  8 46  1  0
  9 14  1  0
  9 10  1  0
  9 47  1  6
 10 11  1  0
 10 48  1  0
 10 49  1  0
 11 12  1  0
 11 50  1  0
 11 51  1  0
 12 24  1  0
 12 13  1  0
 12 52  1  1
 13 14  2  0
 13 20  1  0
 14 15  1  0
 15 16  1  0
 15 17  1  0
 15 53  1  1
 16 54  1  0
 17 18  1  0
 17 55  1  0
 17 56  1  0
 18 19  1  6
 19 57  1  0
 19 58  1  0
 19 59  1  0
 20 21  1  0
 20 60  1  0
 20 61  1  0
 21 22  2  0
 21 23  1  0
 23 29  1  0
 23 24  1  0
 23 62  1  1
 24 25  1  0
 24 63  1  6
 25 26  2  0
 25 27  1  0
 27 28  1  0
 27 64  1  0
 27 65  1  0
 28 29  1  0
 28 66  1  0
 28 67  1  0
 29 30  1  0
 29 31  1  0
 30 68  1  0
 30 69  1  0
 30 70  1  0
 31 71  1  0
 31 72  1  0
 31 73  1  0
M  END
>  <i_m_ct_stereo_status>  (167) 
1

>  <s_m_source_file>  (167) 
/var/tmp/pbs.5076255.sched01/tmp25xsusm8/82mdre8bl4.sdf

>  <i_m_source_file_index>  (167) 
6

>  <i_lp_mmshare_version>  (167) 
48012

>  <i_f3d_flags>  (167) 
0

>  <s_epik_input>  (167) 
W0NIM11bQ0hdKFtDSDNdKVtDQEhdKFtDSDJdW0NIMl0xKVtDQEBdMihbQ0gzXSlbQ0gyXVtDQEhdKFtPSF0pQyhbQ0BASF0zW0NAQF0xMltDSDNdKT1DNFtDQEBIXShbQ0gyXVtDSDJdMylbQ0BIXTVbQ0BIXShDKD1PKVtDSDJdNClDKFtDSDNdKShbQ0gzXSlbQ0gyXVtDSDJdQzU9Tw==

>  <s_epik_cmdline>  (167) 
J2VwaWtfcHl0aG9uJywgJy1waHQnLCAnMi4wJywgJy1waCcsICc3LjAnLCAnLXRuJywgJzgnLCAnLW1hJywgJzIwMCcsICctaW1hZScsICc8aW5maWxlLm1hZT4nLCAnLW9tYWUnLCAnPG91dGZpbGUubWFlPic=

>  <r_lp_tautomer_probability>  (167) 
1

>  <r_epik_Ionization_Penalty>  (167) 
8.21393e-07

>  <r_epik_Ionization_Penalty_Charging>  (167) 
0

>  <r_epik_Ionization_Penalty_Neutral>  (167) 
8.21393e-07

>  <r_epik_State_Penalty>  (167) 
-0

>  <r_epik_Charging_Adjusted_Penalty>  (167) 
0

>  <i_epik_Tot_Q>  (167) 
0

>  <i_epik_Tot_abs_Q>  (167) 
0

>  <s_lp_Force_Field>  (167) 
OPLS3e

>  <r_lp_Energy>  (167) 
52.7074

>  <b_lp_Chiralities_Consistent>  (167) 
1

>  <s_lp_Variant>  (167) 
64:0-1

>  <s_i_glide_gridfile>  (167) 
pfpi4k_grid

>  <i_i_glide_lignum>  (167) 
6

>  <i_i_glide_rotatable_bonds>  (167) 
2

>  <r_i_docking_score>  (167) 
-2.89191

>  <r_i_glide_ligand_efficiency>  (167) 
-0.0932874

>  <r_i_glide_ligand_efficiency_sa>  (167) 
-0.293051

>  <r_i_glide_ligand_efficiency_ln>  (167) 
-0.652214

>  <r_i_glide_gscore>  (167) 
-2.89191

>  <r_i_glide_lipo>  (167) 
-0.590527

>  <r_i_glide_hbond>  (167) 
-0.32

>  <r_i_glide_metal>  (167) 
-0

>  <r_i_glide_rewards>  (167) 
-0.500241

>  <r_i_glide_evdw>  (167) 
-13.9802

>  <r_i_glide_ecoul>  (167) 
-5.10957

>  <r_i_glide_erotb>  (167) 
0

>  <r_i_glide_esite>  (167) 
-0.0156918

>  <r_i_glide_emodel>  (167) 
-19.9276

>  <r_i_glide_energy>  (167) 
-19.0898

>  <r_i_glide_einternal>  (167) 
5.28779

>  <r_i_glide_intrahb_reward>  (167) 
-0

>  <i_i_glide_confnum>  (167) 
1

>  <i_i_glide_posenum>  (167) 
9

>  <r_i_glide_eff_state_penalty>  (167) 
0

>  <ligand_id>  (167) 
64

>  <original_smiles>  (167) 
CC(C)C1CCC2(C)C3CCC4C(=C3C(O)CC12C)CC(=O)C1C4C(=O)CCC1(C)C

>  <smiles>  (167) 
[H]OC1([H])C2=C3C([H])([H])C(=O)C4([H])C([H])(C(=O)C([H])([H])C([H])([H])C4(C([H])([H])[H])C([H])([H])[H])C3([H])C([H])([H])C([H])([H])C2([H])C2(C([H])([H])[H])C([H])([H])C([H])([H])C([H])(C([H])(C([H])([H])[H])C([H])([H])[H])C2(C([H])([H])[H])C1([H])[H]

$$$$
64:0:2
     RDKit          3D

 73 77  0  0  1  0  0  0  0  0999 V2000
    0.4192  -10.8191    2.3643 C   0  0  0  0  0  0  0  0  0  0  0  0
   -0.3329   -9.6507    2.9918 C   0  0  0  0  0  0  0  0  0  0  0  0
   -1.3285   -8.9674    2.0493 C   0  0  0  0  0  0  0  0  0  0  0  0
    0.5790   -8.7065    3.8425 C   0  0  2  0  0  0  0  0  0  0  0  0
   -0.1133   -7.4619    4.4488 C   0  0  0  0  0  0  0  0  0  0  0  0
    0.9151   -6.3220    4.4343 C   0  0  0  0  0  0  0  0  0  0  0  0
    2.2968   -6.9510    4.1975 C   0  0  2  0  0  0  0  0  0  0  0  0
    2.8411   -7.4113    5.5807 C   0  0  0  0  0  0  0  0  0  0  0  0
    3.3284   -5.9803    3.5174 C   0  0  2  0  0  0  0  0  0  0  0  0
    3.7588   -4.7370    4.3200 C   0  0  0  0  0  0  0  0  0  0  0  0
    2.8678   -3.5199    4.0614 C   0  0  0  0  0  0  0  0  0  0  0  0
    2.8105   -3.1247    2.5594 C   0  0  2  0  0  0  0  0  0  0  0  0
    2.6801   -4.3432    1.6646 C   0  0  0  0  0  0  0  0  0  0  0  0
    2.9312   -5.6036    2.0892 C   0  0  0  0  0  0  0  0  0  0  0  0
    2.8191   -6.8067    1.2028 C   0  0  1  0  0  0  0  0  0  0  0  0
    4.0517   -7.4660    1.0200 O   0  0  0  0  0  0  0  0  0  0  0  0
    1.7546   -7.6995    1.8020 C   0  0  0  0  0  0  0  0  0  0  0  0
    1.9513   -8.1862    3.2730 C   0  0  2  0  0  0  0  0  0  0  0  0
    3.0662   -9.2778    3.3625 C   0  0  0  0  0  0  0  0  0  0  0  0
    2.3491   -3.9549    0.2280 C   0  0  0  0  0  0  0  0  0  0  0  0
    3.5654   -3.2520   -0.3091 C   0  0  0  0  0  0  0  0  0  0  0  0
    4.1537   -3.6633   -1.3085 O   0  0  0  0  0  0  0  0  0  0  0  0
    3.9604   -1.9940    0.4873 C   0  0  1  0  0  0  0  0  0  0  0  0
    4.0238   -2.3061    2.0255 C   0  0  1  0  0  0  0  0  0  0  0  0
    4.2603   -0.9932    2.7663 C   0  0  0  0  0  0  0  0  0  0  0  0
    3.5011   -0.5233    3.6134 O   0  0  0  0  0  0  0  0  0  0  0  0
    5.5048   -0.2586    2.3315 C   0  0  0  0  0  0  0  0  0  0  0  0
    5.4120    0.0211    0.8211 C   0  0  0  0  0  0  0  0  0  0  0  0
    5.2236   -1.2437   -0.0514 C   0  0  0  0  0  0  0  0  0  0  0  0
    6.5143   -2.1030    0.0258 C   0  0  0  0  0  0  0  0  0  0  0  0
    5.0257   -0.7961   -1.5264 C   0  0  0  0  0  0  0  0  0  0  0  0
    1.1403  -10.4269    1.6898 H   0  0  0  0  0  0  0  0  0  0  0  0
   -0.2064  -11.4845    1.7860 H   0  0  0  0  0  0  0  0  0  0  0  0
    0.9443  -11.4452    3.0870 H   0  0  0  0  0  0  0  0  0  0  0  0
   -0.9863  -10.1493    3.6922 H   0  0  0  0  0  0  0  0  0  0  0  0
   -0.9179   -8.2626    1.3339 H   0  0  0  0  0  0  0  0  0  0  0  0
   -2.1314   -8.4850    2.6013 H   0  0  0  0  0  0  0  0  0  0  0  0
   -1.8036   -9.7443    1.4807 H   0  0  0  0  0  0  0  0  0  0  0  0
    0.8489   -9.3082    4.7069 H   0  0  0  0  0  0  0  0  0  0  0  0
   -0.9718   -7.1106    3.8854 H   0  0  0  0  0  0  0  0  0  0  0  0
   -0.4699   -7.6635    5.4629 H   0  0  0  0  0  0  0  0  0  0  0  0
    0.6594   -5.6641    3.6018 H   0  0  0  0  0  0  0  0  0  0  0  0
    0.8601   -5.7175    5.3432 H   0  0  0  0  0  0  0  0  0  0  0  0
    3.8714   -7.7576    5.5162 H   0  0  0  0  0  0  0  0  0  0  0  0
    2.2581   -8.2183    6.0218 H   0  0  0  0  0  0  0  0  0  0  0  0
    2.8159   -6.6077    6.3138 H   0  0  0  0  0  0  0  0  0  0  0  0
    4.2453   -6.5623    3.4168 H   0  0  0  0  0  0  0  0  0  0  0  0
    3.8180   -4.9401    5.3926 H   0  0  0  0  0  0  0  0  0  0  0  0
    4.7762   -4.4798    4.0128 H   0  0  0  0  0  0  0  0  0  0  0  0
    1.8564   -3.7445    4.4014 H   0  0  0  0  0  0  0  0  0  0  0  0
    3.2093   -2.7012    4.6916 H   0  0  0  0  0  0  0  0  0  0  0  0
    1.9040   -2.5245    2.4232 H   0  0  0  0  0  0  0  0  0  0  0  0
    2.4563   -6.5403    0.2245 H   0  0  0  0  0  0  0  0  0  0  0  0
    4.5141   -7.0482    0.3017 H   0  0  0  0  0  0  0  0  0  0  0  0
    0.8606   -7.0742    1.7821 H   0  0  0  0  0  0  0  0  0  0  0  0
    1.6133   -8.5005    1.0808 H   0  0  0  0  0  0  0  0  0  0  0  0
    4.0723   -8.8611    3.2952 H   0  0  0  0  0  0  0  0  0  0  0  0
    3.0073  -10.0179    2.5621 H   0  0  0  0  0  0  0  0  0  0  0  0
    3.0264   -9.8418    4.2960 H   0  0  0  0  0  0  0  0  0  0  0  0
    2.0402   -4.7622   -0.4305 H   0  0  0  0  0  0  0  0  0  0  0  0
    1.5630   -3.2061    0.1873 H   0  0  0  0  0  0  0  0  0  0  0  0
    3.1201   -1.3104    0.3477 H   0  0  0  0  0  0  0  0  0  0  0  0
    4.9132   -2.9102    2.2027 H   0  0  0  0  0  0  0  0  0  0  0  0
    5.5843    0.6479    2.9213 H   0  0  0  0  0  0  0  0  0  0  0  0
    6.3937   -0.8467    2.5498 H   0  0  0  0  0  0  0  0  0  0  0  0
    4.5809    0.6986    0.6256 H   0  0  0  0  0  0  0  0  0  0  0  0
    6.3120    0.5353    0.4826 H   0  0  0  0  0  0  0  0  0  0  0  0
    7.4010   -1.5208   -0.2486 H   0  0  0  0  0  0  0  0  0  0  0  0
    6.4797   -2.9624   -0.6513 H   0  0  0  0  0  0  0  0  0  0  0  0
    6.6946   -2.4919    1.0325 H   0  0  0  0  0  0  0  0  0  0  0  0
    5.8086   -0.1177   -1.8494 H   0  0  0  0  0  0  0  0  0  0  0  0
    4.0783   -0.2711   -1.6452 H   0  0  0  0  0  0  0  0  0  0  0  0
    5.0609   -1.6254   -2.2411 H   0  0  0  0  0  0  0  0  0  0  0  0
  1  2  1  0
  1 32  1  0
  1 33  1  0
  1 34  1  0
  2  3  1  0
  2  4  1  0
  2 35  1  0
  3 36  1  0
  3 37  1  0
  3 38  1  0
  4 18  1  0
  4  5  1  0
  4 39  1  1
  5  6  1  0
  5 40  1  0
  5 41  1  0
  6  7  1  0
  6 42  1  0
  6 43  1  0
  7 18  1  0
  7  8  1  1
  7  9  1  0
  8 44  1  0
  8 45  1  0
  8 46  1  0
  9 14  1  0
  9 10  1  0
  9 47  1  6
 10 11  1  0
 10 48  1  0
 10 49  1  0
 11 12  1  0
 11 50  1  0
 11 51  1  0
 12 24  1  0
 12 13  1  0
 12 52  1  1
 13 14  2  0
 13 20  1  0
 14 15  1  0
 15 16  1  0
 15 17  1  0
 15 53  1  6
 16 54  1  0
 17 18  1  0
 17 55  1  0
 17 56  1  0
 18 19  1  6
 19 57  1  0
 19 58  1  0
 19 59  1  0
 20 21  1  0
 20 60  1  0
 20 61  1  0
 21 22  2  0
 21 23  1  0
 23 29  1  0
 23 24  1  0
 23 62  1  1
 24 25  1  0
 24 63  1  6
 25 26  2  0
 25 27  1  0
 27 28  1  0
 27 64  1  0
 27 65  1  0
 28 29  1  0
 28 66  1  0
 28 67  1  0
 29 30  1  0
 29 31  1  0
 30 68  1  0
 30 69  1  0
 30 70  1  0
 31 71  1  0
 31 72  1  0
 31 73  1  0
M  END
>  <i_m_ct_stereo_status>  (168) 
1

>  <s_m_source_file>  (168) 
/var/tmp/pbs.5076255.sched01/tmp25xsusm8/82mdre8bl4.sdf

>  <i_m_source_file_index>  (168) 
6

>  <i_lp_mmshare_version>  (168) 
48012

>  <i_f3d_flags>  (168) 
0

>  <s_epik_input>  (168) 
W0NIM11bQ0hdKFtDSDNdKVtDQEhdKFtDSDJdW0NIMl0xKVtDQEBdMihbQ0gzXSlbQ0gyXVtDQEhdKFtPSF0pQyhbQ0BASF0zW0NAQF0xMltDSDNdKT1DNFtDQEBIXShbQ0gyXVtDSDJdMylbQ0BIXTVbQ0BIXShDKD1PKVtDSDJdNClDKFtDSDNdKShbQ0gzXSlbQ0gyXVtDSDJdQzU9Tw==

>  <s_epik_cmdline>  (168) 
J2VwaWtfcHl0aG9uJywgJy1waHQnLCAnMi4wJywgJy1waCcsICc3LjAnLCAnLXRuJywgJzgnLCAnLW1hJywgJzIwMCcsICctaW1hZScsICc8aW5maWxlLm1hZT4nLCAnLW9tYWUnLCAnPG91dGZpbGUubWFlPic=

>  <r_lp_tautomer_probability>  (168) 
1

>  <r_epik_Ionization_Penalty>  (168) 
8.21393e-07

>  <r_epik_Ionization_Penalty_Charging>  (168) 
0

>  <r_epik_Ionization_Penalty_Neutral>  (168) 
8.21393e-07

>  <r_epik_State_Penalty>  (168) 
-0

>  <r_epik_Charging_Adjusted_Penalty>  (168) 
0

>  <i_epik_Tot_Q>  (168) 
0

>  <i_epik_Tot_abs_Q>  (168) 
0

>  <s_lp_Force_Field>  (168) 
OPLS3e

>  <r_lp_Energy>  (168) 
52.7074

>  <b_lp_Chiralities_Consistent>  (168) 
1

>  <s_lp_Variant>  (168) 
64:0-1

>  <s_i_glide_gridfile>  (168) 
pfpi4k_grid

>  <i_i_glide_lignum>  (168) 
6

>  <i_i_glide_rotatable_bonds>  (168) 
2

>  <r_i_docking_score>  (168) 
-1.99764

>  <r_i_glide_ligand_efficiency>  (168) 
-0.06444

>  <r_i_glide_ligand_efficiency_sa>  (168) 
-0.202431

>  <r_i_glide_ligand_efficiency_ln>  (168) 
-0.450529

>  <r_i_glide_gscore>  (168) 
-1.99764

>  <r_i_glide_lipo>  (168) 
-0.400434

>  <r_i_glide_hbond>  (168) 
0

>  <r_i_glide_metal>  (168) 
-0

>  <r_i_glide_rewards>  (168) 
-0.575777

>  <r_i_glide_evdw>  (168) 
-20.7665

>  <r_i_glide_ecoul>  (168) 
0.112644

>  <r_i_glide_erotb>  (168) 
0

>  <r_i_glide_esite>  (168) 
0

>  <r_i_glide_emodel>  (168) 
-20.2606

>  <r_i_glide_energy>  (168) 
-20.6539

>  <r_i_glide_einternal>  (168) 
5.38466

>  <r_i_glide_intrahb_reward>  (168) 
-0

>  <i_i_glide_confnum>  (168) 
1

>  <i_i_glide_posenum>  (168) 
6

>  <r_i_glide_eff_state_penalty>  (168) 
0

>  <ligand_id>  (168) 
64

>  <original_smiles>  (168) 
CC(C)C1CCC2(C)C3CCC4C(=C3C(O)CC12C)CC(=O)C1C4C(=O)CCC1(C)C

>  <smiles>  (168) 
[H]OC1([H])C2=C3C([H])([H])C(=O)C4([H])C([H])(C(=O)C([H])([H])C([H])([H])C4(C([H])([H])[H])C([H])([H])[H])C3([H])C([H])([H])C([H])([H])C2([H])C2(C([H])([H])[H])C([H])([H])C([H])([H])C([H])(C([H])(C([H])([H])[H])C([H])([H])[H])C2(C([H])([H])[H])C1([H])[H]

$$$$
65:0:0
     RDKit          3D

 44 47  0  0  1  0  0  0  0  0999 V2000
    2.8940   -2.3759    2.1570 C   0  0  0  0  0  0  0  0  0  0  0  0
    4.1598   -2.9903    1.4984 C   0  0  1  0  0  0  0  0  0  0  0  0
    5.3054   -1.9057    1.5936 C   0  0  1  0  0  0  0  0  0  0  0  0
    5.6833   -1.6348    2.9266 O   0  0  0  0  0  0  0  0  0  0  0  0
    6.4138   -2.3110    0.8759 O   0  0  0  0  0  0  0  0  0  0  0  0
    6.1798   -2.6327   -0.4837 C   0  0  2  0  0  0  0  0  0  0  0  0
    5.6859   -1.3711   -1.2317 C   0  0  0  0  0  0  0  0  0  0  0  0
    4.1699   -1.1028   -1.1618 C   0  0  0  0  0  0  0  0  0  0  0  0
    3.3917   -2.4264   -1.1305 C   0  0  1  0  0  0  0  0  0  0  0  0
    3.7023   -3.1850   -2.4506 C   0  0  1  0  0  0  0  0  0  0  0  0
    3.8723   -2.3852   -3.6144 O   0  0  0  0  0  0  0  0  0  0  0  0
    4.9480   -4.0275   -2.1229 C   0  0  0  0  0  0  0  0  0  0  0  0
    5.2118   -3.8479   -0.6116 C   0  0  1  0  0  0  0  0  0  0  0  0
    5.7429   -5.1287    0.0733 C   0  0  0  0  0  0  0  0  0  0  0  0
    5.7412   -5.1337    1.6222 C   0  0  1  0  0  0  0  0  0  0  0  0
    7.0101   -4.7309    2.0248 O   0  0  0  0  0  0  0  0  0  0  0  0
    4.6214   -4.2738    2.2859 C   0  0  1  0  0  0  0  0  0  0  0  0
    4.8634   -4.0429    3.6613 O   0  0  0  0  0  0  0  0  0  0  0  0
    3.8630   -3.4228   -0.0079 C   0  0  1  0  0  0  0  0  0  0  0  0
    2.7779   -4.5569    0.0199 C   0  0  0  0  0  0  0  0  0  0  0  0
    2.5130   -1.5340    1.5883 H   0  0  0  0  0  0  0  0  0  0  0  0
    3.1157   -2.0164    3.1639 H   0  0  0  0  0  0  0  0  0  0  0  0
    2.0893   -3.0944    2.2748 H   0  0  0  0  0  0  0  0  0  0  0  0
    4.9639   -0.9354    1.2677 H   0  0  0  0  0  0  0  0  0  0  0  0
    5.7387   -2.4788    3.3610 H   0  0  0  0  0  0  0  0  0  0  0  0
    7.1506   -2.9049   -0.9060 H   0  0  0  0  0  0  0  0  0  0  0  0
    6.2114   -0.4969   -0.8492 H   0  0  0  0  0  0  0  0  0  0  0  0
    5.9496   -1.4539   -2.2915 H   0  0  0  0  0  0  0  0  0  0  0  0
    3.8750   -0.4721   -0.3273 H   0  0  0  0  0  0  0  0  0  0  0  0
    3.8703   -0.5123   -2.0200 H   0  0  0  0  0  0  0  0  0  0  0  0
    2.3176   -2.2666   -1.0513 H   0  0  0  0  0  0  0  0  0  0  0  0
    2.8710   -3.8395   -2.7049 H   0  0  0  0  0  0  0  0  0  0  0  0
    3.0628   -1.9208   -3.7569 H   0  0  0  0  0  0  0  0  0  0  0  0
    4.6934   -5.0569   -2.2997 H   0  0  0  0  0  0  0  0  0  0  0  0
    5.8046   -3.7976   -2.7599 H   0  0  0  0  0  0  0  0  0  0  0  0
    5.1481   -5.9803   -0.2586 H   0  0  0  0  0  0  0  0  0  0  0  0
    6.7440   -5.3234   -0.2860 H   0  0  0  0  0  0  0  0  0  0  0  0
    5.6680   -6.1681    1.9688 H   0  0  0  0  0  0  0  0  0  0  0  0
    7.1088   -3.8144    1.7917 H   0  0  0  0  0  0  0  0  0  0  0  0
    3.7670   -4.9417    2.3493 H   0  0  0  0  0  0  0  0  0  0  0  0
    4.0254   -3.8809    4.0589 H   0  0  0  0  0  0  0  0  0  0  0  0
    2.4308   -4.8544   -0.9601 H   0  0  0  0  0  0  0  0  0  0  0  0
    1.8627   -4.2287    0.5044 H   0  0  0  0  0  0  0  0  0  0  0  0
    3.0845   -5.4929    0.4809 H   0  0  0  0  0  0  0  0  0  0  0  0
  2  1  1  1
  1 21  1  0
  1 22  1  0
  1 23  1  0
  2 17  1  0
  2 19  1  0
  2  3  1  0
  3  4  1  0
  3  5  1  0
  3 24  1  6
  4 25  1  0
  5  6  1  0
  6 13  1  0
  6  7  1  0
  6 26  1  6
  7  8  1  0
  7 27  1  0
  7 28  1  0
  8  9  1  0
  8 29  1  0
  8 30  1  0
  9 19  1  0
  9 10  1  0
  9 31  1  1
 10 11  1  0
 10 12  1  0
 10 32  1  6
 11 33  1  0
 13 12  1  6
 12 34  1  0
 12 35  1  0
 13 14  1  0
 13 19  1  0
 14 15  1  0
 14 36  1  0
 14 37  1  0
 15 16  1  0
 15 17  1  0
 15 38  1  6
 16 39  1  0
 17 18  1  0
 17 40  1  1
 18 41  1  0
 19 20  1  1
 20 42  1  0
 20 43  1  0
 20 44  1  0
M  END
>  <i_m_ct_stereo_status>  (169) 
1

>  <s_m_source_file>  (169) 
/var/tmp/pbs.5076255.sched01/tmp25xsusm8/82mdre8bl4.sdf

>  <i_m_source_file_index>  (169) 
7

>  <i_lp_mmshare_version>  (169) 
48012

>  <i_f3d_flags>  (169) 
0

>  <s_epik_input>  (169) 
W0NAXTEyM1tDQEBIXTRPW0NASF0oW09IXSlbQ0BdKFtDSDNdKShbQ0BIXShbT0hdKVtDQEBIXShbQ0gyXTIpW09IXSlbQ0BAXTMoW0NIM10pW0NAQEhdKFtDSDJdW0NIMl00KVtDQEBIXShbT0hdKVtDSDJdMQ==

>  <s_epik_cmdline>  (169) 
J2VwaWtfcHl0aG9uJywgJy1waHQnLCAnMi4wJywgJy1waCcsICc3LjAnLCAnLXRuJywgJzgnLCAnLW1hJywgJzIwMCcsICctaW1hZScsICc8aW5maWxlLm1hZT4nLCAnLW9tYWUnLCAnPG91dGZpbGUubWFlPic=

>  <r_lp_tautomer_probability>  (169) 
1

>  <r_epik_Ionization_Penalty>  (169) 
9.37081e-07

>  <r_epik_Ionization_Penalty_Charging>  (169) 
0

>  <r_epik_Ionization_Penalty_Neutral>  (169) 
9.37081e-07

>  <r_epik_State_Penalty>  (169) 
-0

>  <r_epik_Charging_Adjusted_Penalty>  (169) 
0

>  <i_epik_Tot_Q>  (169) 
0

>  <i_epik_Tot_abs_Q>  (169) 
0

>  <s_epik_Chemistry_Notes>  (169) 
This compound contains an acetal/aminal-like group ( X-CH(R)-Y where X, Y are N, S, or O) that may be acid/base labile, releasing an aldehyde.

>  <s_lp_Force_Field>  (169) 
OPLS3e

>  <r_lp_Energy>  (169) 
72.081

>  <b_lp_Chiralities_Consistent>  (169) 
1

>  <s_lp_Variant>  (169) 
65:0-1

>  <s_i_glide_gridfile>  (169) 
pfpi4k_grid

>  <i_i_glide_lignum>  (169) 
7

>  <i_i_glide_rotatable_bonds>  (169) 
4

>  <r_i_docking_score>  (169) 
-4.07597

>  <r_i_glide_ligand_efficiency>  (169) 
-0.203799

>  <r_i_glide_ligand_efficiency_sa>  (169) 
-0.553195

>  <r_i_glide_ligand_efficiency_ln>  (169) 
-1.02008

>  <r_i_glide_gscore>  (169) 
-4.07597

>  <r_i_glide_lipo>  (169) 
-0.234506

>  <r_i_glide_hbond>  (169) 
0

>  <r_i_glide_metal>  (169) 
-0

>  <r_i_glide_rewards>  (169) 
-2.58141

>  <r_i_glide_evdw>  (169) 
-14.2375

>  <r_i_glide_ecoul>  (169) 
-3.65454

>  <r_i_glide_erotb>  (169) 
0

>  <r_i_glide_esite>  (169) 
0

>  <r_i_glide_emodel>  (169) 
-33.3717

>  <r_i_glide_energy>  (169) 
-17.892

>  <r_i_glide_einternal>  (169) 
0.71506

>  <r_i_glide_intrahb_reward>  (169) 
-1

>  <i_i_glide_confnum>  (169) 
2

>  <i_i_glide_posenum>  (169) 
15

>  <r_i_glide_eff_state_penalty>  (169) 
0

>  <ligand_id>  (169) 
65

>  <original_smiles>  (169) 
CC12C(O)OC3CCC4C(O)CC3(CC(O)C1O)C42C

>  <smiles>  (169) 
[H]OC1([H])OC2([H])C([H])([H])C([H])([H])C3([H])C([H])(O[H])C([H])([H])C24C([H])([H])C([H])(O[H])C([H])(O[H])C1(C([H])([H])[H])C34C([H])([H])[H]

$$$$
65:0:1
     RDKit          3D

 44 47  0  0  1  0  0  0  0  0999 V2000
    2.7712   -2.6766    2.3267 C   0  0  0  0  0  0  0  0  0  0  0  0
    4.0637   -3.1860    1.6451 C   0  0  1  0  0  0  0  0  0  0  0  0
    5.1389   -2.0651    1.8525 C   0  0  1  0  0  0  0  0  0  0  0  0
    5.4410   -1.8684    3.2175 O   0  0  0  0  0  0  0  0  0  0  0  0
    6.2817   -2.3518    1.1161 O   0  0  0  0  0  0  0  0  0  0  0  0
    6.0874   -2.5914   -0.2747 C   0  0  2  0  0  0  0  0  0  0  0  0
    5.5609   -1.2871   -0.9306 C   0  0  0  0  0  0  0  0  0  0  0  0
    4.0418   -1.1016   -0.8597 C   0  0  0  0  0  0  0  0  0  0  0  0
    3.3096   -2.4522   -0.9422 C   0  0  1  0  0  0  0  0  0  0  0  0
    3.6500   -3.0983   -2.3119 C   0  0  1  0  0  0  0  0  0  0  0  0
    3.7972   -2.2103   -3.4068 O   0  0  0  0  0  0  0  0  0  0  0  0
    4.9215   -3.9159   -2.0431 C   0  0  0  0  0  0  0  0  0  0  0  0
    5.1680   -3.8340   -0.5173 C   0  0  1  0  0  0  0  0  0  0  0  0
    5.7580   -5.1376    0.0805 C   0  0  0  0  0  0  0  0  0  0  0  0
    5.7303   -5.2574    1.6102 C   0  0  1  0  0  0  0  0  0  0  0  0
    6.9464   -4.7428    2.0661 O   0  0  0  0  0  0  0  0  0  0  0  0
    4.5725   -4.5152    2.3279 C   0  0  1  0  0  0  0  0  0  0  0  0
    4.8761   -4.4163    3.7003 O   0  0  0  0  0  0  0  0  0  0  0  0
    3.8033   -3.5059    0.1132 C   0  0  1  0  0  0  0  0  0  0  0  0
    2.7499   -4.6622    0.0459 C   0  0  0  0  0  0  0  0  0  0  0  0
    2.3610   -1.8010    1.8176 H   0  0  0  0  0  0  0  0  0  0  0  0
    2.9734   -2.3969    3.3563 H   0  0  0  0  0  0  0  0  0  0  0  0
    1.9906   -3.4309    2.3827 H   0  0  0  0  0  0  0  0  0  0  0  0
    4.7415   -1.0892    1.5915 H   0  0  0  0  0  0  0  0  0  0  0  0
    5.5111   -2.7513    3.5985 H   0  0  0  0  0  0  0  0  0  0  0  0
    7.0765   -2.7855   -0.7001 H   0  0  0  0  0  0  0  0  0  0  0  0
    6.0544   -0.4162   -0.5048 H   0  0  0  0  0  0  0  0  0  0  0  0
    5.8187   -1.2938   -1.9900 H   0  0  0  0  0  0  0  0  0  0  0  0
    3.6929   -0.5297   -0.0056 H   0  0  0  0  0  0  0  0  0  0  0  0
    3.7591   -0.4826   -1.7048 H   0  0  0  0  0  0  0  0  0  0  0  0
    2.2301   -2.3349   -0.8503 H   0  0  0  0  0  0  0  0  0  0  0  0
    2.8434   -3.7522   -2.6354 H   0  0  0  0  0  0  0  0  0  0  0  0
    2.9756   -1.7662   -3.5259 H   0  0  0  0  0  0  0  0  0  0  0  0
    4.7284   -4.9499   -2.3070 H   0  0  0  0  0  0  0  0  0  0  0  0
    5.7644   -3.5980   -2.6558 H   0  0  0  0  0  0  0  0  0  0  0  0
    5.2279   -5.9931   -0.3442 H   0  0  0  0  0  0  0  0  0  0  0  0
    6.7882   -5.2387   -0.2377 H   0  0  0  0  0  0  0  0  0  0  0  0
    5.7053   -6.3169    1.8816 H   0  0  0  0  0  0  0  0  0  0  0  0
    6.9506   -3.8248    1.8314 H   0  0  0  0  0  0  0  0  0  0  0  0
    3.7299   -5.1988    2.3516 H   0  0  0  0  0  0  0  0  0  0  0  0
    4.9608   -5.2938    4.0340 H   0  0  0  0  0  0  0  0  0  0  0  0
    2.3875   -4.8538   -0.9473 H   0  0  0  0  0  0  0  0  0  0  0  0
    1.8426   -4.4211    0.5804 H   0  0  0  0  0  0  0  0  0  0  0  0
    3.1085   -5.6231    0.3983 H   0  0  0  0  0  0  0  0  0  0  0  0
  2  1  1  1
  1 21  1  0
  1 22  1  0
  1 23  1  0
  2 17  1  0
  2 19  1  0
  2  3  1  0
  3  4  1  0
  3  5  1  0
  3 24  1  6
  4 25  1  0
  5  6  1  0
  6 13  1  0
  6  7  1  0
  6 26  1  6
  7  8  1  0
  7 27  1  0
  7 28  1  0
  8  9  1  0
  8 29  1  0
  8 30  1  0
  9 19  1  0
  9 10  1  0
  9 31  1  6
 10 11  1  0
 10 12  1  0
 10 32  1  6
 11 33  1  0
 13 12  1  6
 12 34  1  0
 12 35  1  0
 13 14  1  0
 13 19  1  0
 14 15  1  0
 14 36  1  0
 14 37  1  0
 15 16  1  0
 15 17  1  0
 15 38  1  6
 16 39  1  0
 17 18  1  0
 17 40  1  1
 18 41  1  0
 19 20  1  1
 20 42  1  0
 20 43  1  0
 20 44  1  0
M  END
>  <i_m_ct_stereo_status>  (170) 
1

>  <s_m_source_file>  (170) 
/var/tmp/pbs.5076255.sched01/tmp25xsusm8/82mdre8bl4.sdf

>  <i_m_source_file_index>  (170) 
7

>  <i_lp_mmshare_version>  (170) 
48012

>  <i_f3d_flags>  (170) 
0

>  <s_epik_input>  (170) 
W0NAXTEyM1tDQEBIXTRPW0NASF0oW09IXSlbQ0BdKFtDSDNdKShbQ0BIXShbT0hdKVtDQEBIXShbQ0gyXTIpW09IXSlbQ0BAXTMoW0NIM10pW0NAQEhdKFtDSDJdW0NIMl00KVtDQEBIXShbT0hdKVtDSDJdMQ==

>  <s_epik_cmdline>  (170) 
J2VwaWtfcHl0aG9uJywgJy1waHQnLCAnMi4wJywgJy1waCcsICc3LjAnLCAnLXRuJywgJzgnLCAnLW1hJywgJzIwMCcsICctaW1hZScsICc8aW5maWxlLm1hZT4nLCAnLW9tYWUnLCAnPG91dGZpbGUubWFlPic=

>  <r_lp_tautomer_probability>  (170) 
1

>  <r_epik_Ionization_Penalty>  (170) 
9.37081e-07

>  <r_epik_Ionization_Penalty_Charging>  (170) 
0

>  <r_epik_Ionization_Penalty_Neutral>  (170) 
9.37081e-07

>  <r_epik_State_Penalty>  (170) 
-0

>  <r_epik_Charging_Adjusted_Penalty>  (170) 
0

>  <i_epik_Tot_Q>  (170) 
0

>  <i_epik_Tot_abs_Q>  (170) 
0

>  <s_epik_Chemistry_Notes>  (170) 
This compound contains an acetal/aminal-like group ( X-CH(R)-Y where X, Y are N, S, or O) that may be acid/base labile, releasing an aldehyde.

>  <s_lp_Force_Field>  (170) 
OPLS3e

>  <r_lp_Energy>  (170) 
72.081

>  <b_lp_Chiralities_Consistent>  (170) 
1

>  <s_lp_Variant>  (170) 
65:0-1

>  <s_i_glide_gridfile>  (170) 
pfpi4k_grid

>  <i_i_glide_lignum>  (170) 
7

>  <i_i_glide_rotatable_bonds>  (170) 
4

>  <r_i_docking_score>  (170) 
-4.03785

>  <r_i_glide_ligand_efficiency>  (170) 
-0.201892

>  <r_i_glide_ligand_efficiency_sa>  (170) 
-0.54802

>  <r_i_glide_ligand_efficiency_ln>  (170) 
-1.01054

>  <r_i_glide_gscore>  (170) 
-4.03785

>  <r_i_glide_lipo>  (170) 
-0.219157

>  <r_i_glide_hbond>  (170) 
0

>  <r_i_glide_metal>  (170) 
-0

>  <r_i_glide_rewards>  (170) 
-2.55954

>  <r_i_glide_evdw>  (170) 
-15.6739

>  <r_i_glide_ecoul>  (170) 
-3.16971

>  <r_i_glide_erotb>  (170) 
0

>  <r_i_glide_esite>  (170) 
0

>  <r_i_glide_emodel>  (170) 
-34.0068

>  <r_i_glide_energy>  (170) 
-18.8436

>  <r_i_glide_einternal>  (170) 
0.680394

>  <r_i_glide_intrahb_reward>  (170) 
-1

>  <i_i_glide_confnum>  (170) 
1

>  <i_i_glide_posenum>  (170) 
12

>  <r_i_glide_eff_state_penalty>  (170) 
0

>  <ligand_id>  (170) 
65

>  <original_smiles>  (170) 
CC12C(O)OC3CCC4C(O)CC3(CC(O)C1O)C42C

>  <smiles>  (170) 
[H]OC1([H])OC2([H])C([H])([H])C([H])([H])C3([H])C([H])(O[H])C([H])([H])C24C([H])([H])C([H])(O[H])C([H])(O[H])C1(C([H])([H])[H])C34C([H])([H])[H]

$$$$
65:0:2
     RDKit          3D

 44 47  0  0  1  0  0  0  0  0999 V2000
    2.5004   -3.0669    2.5470 C   0  0  0  0  0  0  0  0  0  0  0  0
    3.7877   -3.6376    1.8998 C   0  0  1  0  0  0  0  0  0  0  0  0
    5.0044   -3.0480    2.7177 C   0  0  1  0  0  0  0  0  0  0  0  0
    5.0446   -3.5266    4.0443 O   0  0  0  0  0  0  0  0  0  0  0  0
    6.2063   -3.3303    2.0789 O   0  0  0  0  0  0  0  0  0  0  0  0
    6.3159   -2.9705    0.7157 C   0  0  2  0  0  0  0  0  0  0  0  0
    6.2720   -1.4231    0.6054 C   0  0  0  0  0  0  0  0  0  0  0  0
    4.8439   -0.8369    0.5436 C   0  0  0  0  0  0  0  0  0  0  0  0
    3.8870   -1.7904   -0.2009 C   0  0  1  0  0  0  0  0  0  0  0  0
    4.3914   -1.9833   -1.6679 C   0  0  1  0  0  0  0  0  0  0  0  0
    5.0115   -0.8588   -2.2591 O   0  0  0  0  0  0  0  0  0  0  0  0
    5.3252   -3.2142   -1.6078 C   0  0  0  0  0  0  0  0  0  0  0  0
    5.2520   -3.7284   -0.1448 C   0  0  1  0  0  0  0  0  0  0  0  0
    5.4013   -5.2729   -0.0417 C   0  0  0  0  0  0  0  0  0  0  0  0
    4.9794   -5.9279    1.2988 C   0  0  1  0  0  0  0  0  0  0  0  0
    6.0975   -6.0804    2.1538 O   0  0  0  0  0  0  0  0  0  0  0  0
    3.8051   -5.2142    2.0293 C   0  0  1  0  0  0  0  0  0  0  0  0
    3.6487   -5.7257    3.3417 O   0  0  0  0  0  0  0  0  0  0  0  0
    3.8747   -3.2685    0.3449 C   0  0  1  0  0  0  0  0  0  0  0  0
    2.7004   -3.9776   -0.4151 C   0  0  0  0  0  0  0  0  0  0  0  0
    2.4196   -1.9897    2.4057 H   0  0  0  0  0  0  0  0  0  0  0  0
    2.4807   -3.2558    3.6209 H   0  0  0  0  0  0  0  0  0  0  0  0
    1.5975   -3.5246    2.1507 H   0  0  0  0  0  0  0  0  0  0  0  0
    4.9197   -1.9804    2.8494 H   0  0  0  0  0  0  0  0  0  0  0  0
    4.9180   -4.4676    3.9875 H   0  0  0  0  0  0  0  0  0  0  0  0
    7.3112   -3.2939    0.4022 H   0  0  0  0  0  0  0  0  0  0  0  0
    6.8328   -0.9685    1.4218 H   0  0  0  0  0  0  0  0  0  0  0  0
    6.7990   -1.1325   -0.3022 H   0  0  0  0  0  0  0  0  0  0  0  0
    4.4325   -0.5781    1.5139 H   0  0  0  0  0  0  0  0  0  0  0  0
    4.8762    0.1324    0.0505 H   0  0  0  0  0  0  0  0  0  0  0  0
    2.8915   -1.3470   -0.1913 H   0  0  0  0  0  0  0  0  0  0  0  0
    3.5531   -2.1846   -2.3371 H   0  0  0  0  0  0  0  0  0  0  0  0
    4.3776   -0.1597   -2.2898 H   0  0  0  0  0  0  0  0  0  0  0  0
    4.9705   -3.9651   -2.3142 H   0  0  0  0  0  0  0  0  0  0  0  0
    6.3483   -2.9762   -1.9015 H   0  0  0  0  0  0  0  0  0  0  0  0
    4.7929   -5.7296   -0.8224 H   0  0  0  0  0  0  0  0  0  0  0  0
    6.4232   -5.5563   -0.2830 H   0  0  0  0  0  0  0  0  0  0  0  0
    4.6711   -6.9513    1.0829 H   0  0  0  0  0  0  0  0  0  0  0  0
    6.7469   -6.6181    1.7273 H   0  0  0  0  0  0  0  0  0  0  0  0
    2.8908   -5.5934    1.5840 H   0  0  0  0  0  0  0  0  0  0  0  0
    3.5796   -6.6680    3.2803 H   0  0  0  0  0  0  0  0  0  0  0  0
    2.6447   -3.8069   -1.4859 H   0  0  0  0  0  0  0  0  0  0  0  0
    1.7660   -3.6102   -0.0299 H   0  0  0  0  0  0  0  0  0  0  0  0
    2.6923   -5.0607   -0.3601 H   0  0  0  0  0  0  0  0  0  0  0  0
  2  1  1  1
  1 21  1  0
  1 22  1  0
  1 23  1  0
  2 17  1  0
  2 19  1  0
  2  3  1  0
  3  4  1  0
  3  5  1  0
  3 24  1  1
  4 25  1  0
  5  6  1  0
  6 13  1  0
  6  7  1  0
  6 26  1  6
  7  8  1  0
  7 27  1  0
  7 28  1  0
  8  9  1  0
  8 29  1  0
  8 30  1  0
  9 19  1  0
  9 10  1  0
  9 31  1  6
 10 11  1  0
 10 12  1  0
 10 32  1  6
 11 33  1  0
 13 12  1  6
 12 34  1  0
 12 35  1  0
 13 14  1  0
 13 19  1  0
 14 15  1  0
 14 36  1  0
 14 37  1  0
 15 16  1  0
 15 17  1  0
 15 38  1  6
 16 39  1  0
 17 18  1  0
 17 40  1  6
 18 41  1  0
 19 20  1  6
 20 42  1  0
 20 43  1  0
 20 44  1  0
M  END
>  <i_m_ct_stereo_status>  (171) 
1

>  <s_m_source_file>  (171) 
/var/tmp/pbs.5076255.sched01/tmp25xsusm8/82mdre8bl4.sdf

>  <i_m_source_file_index>  (171) 
7

>  <i_lp_mmshare_version>  (171) 
48012

>  <i_f3d_flags>  (171) 
0

>  <s_epik_input>  (171) 
W0NAXTEyM1tDQEBIXTRPW0NASF0oW09IXSlbQ0BdKFtDSDNdKShbQ0BIXShbT0hdKVtDQEBIXShbQ0gyXTIpW09IXSlbQ0BAXTMoW0NIM10pW0NAQEhdKFtDSDJdW0NIMl00KVtDQEBIXShbT0hdKVtDSDJdMQ==

>  <s_epik_cmdline>  (171) 
J2VwaWtfcHl0aG9uJywgJy1waHQnLCAnMi4wJywgJy1waCcsICc3LjAnLCAnLXRuJywgJzgnLCAnLW1hJywgJzIwMCcsICctaW1hZScsICc8aW5maWxlLm1hZT4nLCAnLW9tYWUnLCAnPG91dGZpbGUubWFlPic=

>  <r_lp_tautomer_probability>  (171) 
1

>  <r_epik_Ionization_Penalty>  (171) 
9.37081e-07

>  <r_epik_Ionization_Penalty_Charging>  (171) 
0

>  <r_epik_Ionization_Penalty_Neutral>  (171) 
9.37081e-07

>  <r_epik_State_Penalty>  (171) 
-0

>  <r_epik_Charging_Adjusted_Penalty>  (171) 
0

>  <i_epik_Tot_Q>  (171) 
0

>  <i_epik_Tot_abs_Q>  (171) 
0

>  <s_epik_Chemistry_Notes>  (171) 
This compound contains an acetal/aminal-like group ( X-CH(R)-Y where X, Y are N, S, or O) that may be acid/base labile, releasing an aldehyde.

>  <s_lp_Force_Field>  (171) 
OPLS3e

>  <r_lp_Energy>  (171) 
72.081

>  <b_lp_Chiralities_Consistent>  (171) 
1

>  <s_lp_Variant>  (171) 
65:0-1

>  <s_i_glide_gridfile>  (171) 
pfpi4k_grid

>  <i_i_glide_lignum>  (171) 
7

>  <i_i_glide_rotatable_bonds>  (171) 
4

>  <r_i_docking_score>  (171) 
-3.94847

>  <r_i_glide_ligand_efficiency>  (171) 
-0.197424

>  <r_i_glide_ligand_efficiency_sa>  (171) 
-0.53589

>  <r_i_glide_ligand_efficiency_ln>  (171) 
-0.988173

>  <r_i_glide_gscore>  (171) 
-3.94847

>  <r_i_glide_lipo>  (171) 
-0.530672

>  <r_i_glide_hbond>  (171) 
0

>  <r_i_glide_metal>  (171) 
-0

>  <r_i_glide_rewards>  (171) 
-2.03559

>  <r_i_glide_evdw>  (171) 
-19.4499

>  <r_i_glide_ecoul>  (171) 
-2.73141

>  <r_i_glide_erotb>  (171) 
0

>  <r_i_glide_esite>  (171) 
0

>  <r_i_glide_emodel>  (171) 
-32.6609

>  <r_i_glide_energy>  (171) 
-22.1813

>  <r_i_glide_einternal>  (171) 
1.01213

>  <r_i_glide_intrahb_reward>  (171) 
-0.5

>  <i_i_glide_confnum>  (171) 
2

>  <i_i_glide_posenum>  (171) 
33

>  <r_i_glide_eff_state_penalty>  (171) 
0

>  <ligand_id>  (171) 
65

>  <original_smiles>  (171) 
CC12C(O)OC3CCC4C(O)CC3(CC(O)C1O)C42C

>  <smiles>  (171) 
[H]OC1([H])OC2([H])C([H])([H])C([H])([H])C3([H])C([H])(O[H])C([H])([H])C24C([H])([H])C([H])(O[H])C([H])(O[H])C1(C([H])([H])[H])C34C([H])([H])[H]

$$$$
66:0:0
     RDKit          3D

 25 27  0  0  1  0  0  0  0  0999 V2000
    6.6860   -1.8661    0.2876 O   0  0  0  0  0  0  0  0  0  0  0  0
    5.9015   -1.3561    1.1010 C   0  0  0  0  0  0  0  0  0  0  0  0
    6.2064   -1.0550    2.3582 O   0  0  0  0  0  0  0  0  0  0  0  0
    5.1220   -0.3638    2.9641 N   0  0  0  0  0  0  0  0  0  0  0  0
    4.1527   -0.2782    2.1626 C   0  0  0  0  0  0  0  0  0  0  0  0
    2.8654    0.3866    2.5658 C   0  0  0  0  0  0  0  0  0  0  0  0
    2.7053    0.9696    3.8773 C   0  0  0  0  0  0  0  0  0  0  0  0
    1.4864    1.5336    4.1123 C   0  0  0  0  0  0  0  0  0  0  0  0
    0.4548    1.3897    2.7232 S   0  0  0  0  0  0  0  0  0  0  0  0
    1.6974    0.5435    1.8559 C   0  0  0  0  0  0  0  0  0  0  0  0
    4.5222   -0.9213    0.8934 C   0  0  0  0  0  0  0  0  0  0  0  0
    3.7422   -1.0450   -0.2095 C   0  0  0  0  0  0  0  0  0  0  0  0
    3.9505   -1.7658   -1.4800 C   0  0  0  0  0  0  0  0  0  0  0  0
    4.6898   -2.9571   -1.5995 C   0  0  0  0  0  0  0  0  0  0  0  0
    4.8112   -3.5117   -2.8865 C   0  0  0  0  0  0  0  0  0  0  0  0
    4.2230   -2.9769   -3.9690 N   0  0  0  0  0  0  0  0  0  0  0  0
    3.4770   -1.8651   -3.8626 N   0  0  0  0  0  0  0  0  0  0  0  0
    3.3504   -1.2670   -2.6548 C   0  0  0  0  0  0  0  0  0  0  0  0
    3.4977    0.9496    4.6108 H   0  0  0  0  0  0  0  0  0  0  0  0
    1.1084    2.0277    5.0002 H   0  0  0  0  0  0  0  0  0  0  0  0
    1.4231    0.2198    0.8760 H   0  0  0  0  0  0  0  0  0  0  0  0
    2.7690   -0.6477   -0.1800 H   0  0  0  0  0  0  0  0  0  0  0  0
    5.1169   -3.4710   -0.7486 H   0  0  0  0  0  0  0  0  0  0  0  0
    5.4018   -4.4048   -3.0303 H   0  0  0  0  0  0  0  0  0  0  0  0
    2.7061   -0.4032   -2.6308 H   0  0  0  0  0  0  0  0  0  0  0  0
  1  2  2  0
  2 11  1  0
  2  3  1  0
  3  4  1  0
  4  5  2  0
  5  6  1  0
  5 11  1  0
  6 10  2  0
  6  7  1  0
  7  8  2  0
  7 19  1  0
  8  9  1  0
  8 20  1  0
  9 10  1  0
 10 21  1  0
 11 12  2  3
 12 13  1  0
 12 22  1  0
 13 18  1  0
 13 14  2  0
 14 15  1  0
 14 23  1  0
 15 16  2  0
 15 24  1  0
 16 17  1  0
 17 18  2  0
 18 25  1  0
M  END
>  <i_m_ct_stereo_status>  (172) 
1

>  <s_m_source_file>  (172) 
/var/tmp/pbs.5076255.sched01/tmp25xsusm8/82mdre8bl4.sdf

>  <i_m_source_file_index>  (172) 
8

>  <i_lp_mmshare_version>  (172) 
48012

>  <i_f3d_flags>  (172) 
0

>  <s_epik_input>  (172) 
W2NIXTFzW2NIXVtjSF1jMUMoPU5PQzI9TylDXDI9W0NIXVxjM1tjSF1bY0hdbm5bY0hdMw==

>  <s_epik_cmdline>  (172) 
J2VwaWtfcHl0aG9uJywgJy1waHQnLCAnMi4wJywgJy1waCcsICc3LjAnLCAnLXRuJywgJzgnLCAnLW1hJywgJzIwMCcsICctaW1hZScsICc8aW5maWxlLm1hZT4nLCAnLW9tYWUnLCAnPG91dGZpbGUubWFlPic=

>  <r_lp_tautomer_probability>  (172) 
1

>  <r_epik_Ionization_Penalty>  (172) 
1.54398e-05

>  <r_epik_Ionization_Penalty_Charging>  (172) 
0

>  <r_epik_Ionization_Penalty_Neutral>  (172) 
1.54398e-05

>  <r_epik_State_Penalty>  (172) 
-0

>  <r_epik_Charging_Adjusted_Penalty>  (172) 
0

>  <i_epik_Tot_Q>  (172) 
0

>  <i_epik_Tot_abs_Q>  (172) 
0

>  <s_epik_Chemistry_Notes>  (172) 
This compound has an imine and may undergo hydrolysis.

>  <s_lp_Force_Field>  (172) 
OPLS3e

>  <r_lp_Energy>  (172) 
12.9863

>  <b_lp_Chiralities_Consistent>  (172) 
1

>  <s_lp_Variant>  (172) 
66:0-1

>  <s_i_glide_gridfile>  (172) 
pfpi4k_grid

>  <i_i_glide_lignum>  (172) 
8

>  <i_i_glide_rotatable_bonds>  (172) 
2

>  <r_i_docking_score>  (172) 
-4.09237

>  <r_i_glide_ligand_efficiency>  (172) 
-0.227354

>  <r_i_glide_ligand_efficiency_sa>  (172) 
-0.595836

>  <r_i_glide_ligand_efficiency_ln>  (172) 
-1.05192

>  <r_i_glide_gscore>  (172) 
-4.09237

>  <r_i_glide_lipo>  (172) 
-0.193873

>  <r_i_glide_hbond>  (172) 
0

>  <r_i_glide_metal>  (172) 
-0

>  <r_i_glide_rewards>  (172) 
-1.96915

>  <r_i_glide_evdw>  (172) 
-27.2867

>  <r_i_glide_ecoul>  (172) 
-5.54377

>  <r_i_glide_erotb>  (172) 
0.266553

>  <r_i_glide_esite>  (172) 
0

>  <r_i_glide_emodel>  (172) 
-41.2242

>  <r_i_glide_energy>  (172) 
-32.8304

>  <r_i_glide_einternal>  (172) 
0.302319

>  <r_i_glide_intrahb_reward>  (172) 
-0

>  <i_i_glide_confnum>  (172) 
3

>  <i_i_glide_posenum>  (172) 
1

>  <r_i_glide_eff_state_penalty>  (172) 
0

>  <ligand_id>  (172) 
66

>  <original_smiles>  (172) 
O=C1ON=C(c2ccsc2)C1=Cc1ccnnc1

>  <smiles>  (172) 
[H]C(=C1C(=O)ON=C1c1c([H])sc([H])c1[H])c1c([H])nnc([H])c1[H]

$$$$
66:0:1
     RDKit          3D

 25 27  0  0  1  0  0  0  0  0999 V2000
    5.7253   -4.4437    2.2231 O   0  0  0  0  0  0  0  0  0  0  0  0
    5.4787   -3.6940    1.2607 C   0  0  0  0  0  0  0  0  0  0  0  0
    6.3109   -2.7056    0.8967 O   0  0  0  0  0  0  0  0  0  0  0  0
    5.8411   -2.1197   -0.2928 N   0  0  0  0  0  0  0  0  0  0  0  0
    4.7486   -2.6756   -0.6653 C   0  0  0  0  0  0  0  0  0  0  0  0
    4.0747   -2.2651   -1.9166 C   0  0  0  0  0  0  0  0  0  0  0  0
    3.0442   -2.9175   -2.6498 C   0  0  0  0  0  0  0  0  0  0  0  0
    2.6142   -2.2502   -3.7586 C   0  0  0  0  0  0  0  0  0  0  0  0
    3.4849   -0.7773   -3.9858 S   0  0  0  0  0  0  0  0  0  0  0  0
    4.4273   -1.0857   -2.5598 C   0  0  0  0  0  0  0  0  0  0  0  0
    4.3543   -3.7215    0.3055 C   0  0  0  0  0  0  0  0  0  0  0  0
    3.2000   -4.4673    0.3109 C   0  0  0  0  0  0  0  0  0  0  0  0
    2.5852   -5.4669    1.2339 C   0  0  0  0  0  0  0  0  0  0  0  0
    2.9702   -5.6369    2.5665 C   0  0  0  0  0  0  0  0  0  0  0  0
    2.3625   -6.6591    3.3125 C   0  0  0  0  0  0  0  0  0  0  0  0
    1.3479   -7.4012    2.8105 N   0  0  0  0  0  0  0  0  0  0  0  0
    0.9038   -7.1862    1.5779 N   0  0  0  0  0  0  0  0  0  0  0  0
    1.5240   -6.2796    0.7884 C   0  0  0  0  0  0  0  0  0  0  0  0
    2.6020   -3.8646   -2.4146 H   0  0  0  0  0  0  0  0  0  0  0  0
    1.8067   -2.5507   -4.3972 H   0  0  0  0  0  0  0  0  0  0  0  0
    5.1770   -0.3804   -2.2573 H   0  0  0  0  0  0  0  0  0  0  0  0
    2.5134   -4.2922   -0.4682 H   0  0  0  0  0  0  0  0  0  0  0  0
    3.6659   -4.9976    3.0954 H   0  0  0  0  0  0  0  0  0  0  0  0
    2.7062   -6.8132    4.3208 H   0  0  0  0  0  0  0  0  0  0  0  0
    1.1048   -6.1943   -0.1872 H   0  0  0  0  0  0  0  0  0  0  0  0
  1  2  2  0
  2 11  1  0
  2  3  1  0
  3  4  1  0
  4  5  2  0
  5  6  1  0
  5 11  1  0
  6 10  2  0
  6  7  1  0
  7  8  2  0
  7 19  1  0
  8  9  1  0
  8 20  1  0
  9 10  1  0
 10 21  1  0
 11 12  2  3
 12 13  1  0
 12 22  1  0
 13 18  1  0
 13 14  2  0
 14 15  1  0
 14 23  1  0
 15 16  2  0
 15 24  1  0
 16 17  1  0
 17 18  2  0
 18 25  1  0
M  END
>  <i_m_ct_stereo_status>  (173) 
1

>  <s_m_source_file>  (173) 
/var/tmp/pbs.5076255.sched01/tmp25xsusm8/82mdre8bl4.sdf

>  <i_m_source_file_index>  (173) 
8

>  <i_lp_mmshare_version>  (173) 
48012

>  <i_f3d_flags>  (173) 
0

>  <s_epik_input>  (173) 
W2NIXTFzW2NIXVtjSF1jMUMoPU5PQzI9TylDXDI9W0NIXVxjM1tjSF1bY0hdbm5bY0hdMw==

>  <s_epik_cmdline>  (173) 
J2VwaWtfcHl0aG9uJywgJy1waHQnLCAnMi4wJywgJy1waCcsICc3LjAnLCAnLXRuJywgJzgnLCAnLW1hJywgJzIwMCcsICctaW1hZScsICc8aW5maWxlLm1hZT4nLCAnLW9tYWUnLCAnPG91dGZpbGUubWFlPic=

>  <r_lp_tautomer_probability>  (173) 
1

>  <r_epik_Ionization_Penalty>  (173) 
1.54398e-05

>  <r_epik_Ionization_Penalty_Charging>  (173) 
0

>  <r_epik_Ionization_Penalty_Neutral>  (173) 
1.54398e-05

>  <r_epik_State_Penalty>  (173) 
-0

>  <r_epik_Charging_Adjusted_Penalty>  (173) 
0

>  <i_epik_Tot_Q>  (173) 
0

>  <i_epik_Tot_abs_Q>  (173) 
0

>  <s_epik_Chemistry_Notes>  (173) 
This compound has an imine and may undergo hydrolysis.

>  <s_lp_Force_Field>  (173) 
OPLS3e

>  <r_lp_Energy>  (173) 
12.9863

>  <b_lp_Chiralities_Consistent>  (173) 
1

>  <s_lp_Variant>  (173) 
66:0-1

>  <s_i_glide_gridfile>  (173) 
pfpi4k_grid

>  <i_i_glide_lignum>  (173) 
8

>  <i_i_glide_rotatable_bonds>  (173) 
2

>  <r_i_docking_score>  (173) 
-3.68414

>  <r_i_glide_ligand_efficiency>  (173) 
-0.204675

>  <r_i_glide_ligand_efficiency_sa>  (173) 
-0.536399

>  <r_i_glide_ligand_efficiency_ln>  (173) 
-0.94699

>  <r_i_glide_gscore>  (173) 
-3.68414

>  <r_i_glide_lipo>  (173) 
-0.443468

>  <r_i_glide_hbond>  (173) 
0

>  <r_i_glide_metal>  (173) 
-0

>  <r_i_glide_rewards>  (173) 
-1.73001

>  <r_i_glide_evdw>  (173) 
-26.8811

>  <r_i_glide_ecoul>  (173) 
-2.1976

>  <r_i_glide_erotb>  (173) 
0.266553

>  <r_i_glide_esite>  (173) 
-0.103526

>  <r_i_glide_emodel>  (173) 
-35.6642

>  <r_i_glide_energy>  (173) 
-29.0787

>  <r_i_glide_einternal>  (173) 
0.899717

>  <r_i_glide_intrahb_reward>  (173) 
-0

>  <i_i_glide_confnum>  (173) 
2

>  <i_i_glide_posenum>  (173) 
26

>  <r_i_glide_eff_state_penalty>  (173) 
0

>  <ligand_id>  (173) 
66

>  <original_smiles>  (173) 
O=C1ON=C(c2ccsc2)C1=Cc1ccnnc1

>  <smiles>  (173) 
[H]C(=C1C(=O)ON=C1c1c([H])sc([H])c1[H])c1c([H])nnc([H])c1[H]

$$$$
66:0:2
     RDKit          3D

 25 27  0  0  1  0  0  0  0  0999 V2000
    6.6945   -1.7922    0.1721 O   0  0  0  0  0  0  0  0  0  0  0  0
    5.9084   -1.3287    1.0009 C   0  0  0  0  0  0  0  0  0  0  0  0
    6.1947   -1.0746    2.2726 O   0  0  0  0  0  0  0  0  0  0  0  0
    5.1260   -0.4283    2.9169 N   0  0  0  0  0  0  0  0  0  0  0  0
    4.1457   -0.3187    2.1147 C   0  0  0  0  0  0  0  0  0  0  0  0
    2.8797    0.3079    2.5256 C   0  0  0  0  0  0  0  0  0  0  0  0
    1.7340    0.6445    1.7249 C   0  0  0  0  0  0  0  0  0  0  0  0
    0.6959    1.1957    2.3951 C   0  0  0  0  0  0  0  0  0  0  0  0
    1.0666    1.4011    4.0534 S   0  0  0  0  0  0  0  0  0  0  0  0
    2.6332    0.7034    3.8306 C   0  0  0  0  0  0  0  0  0  0  0  0
    4.5257   -0.9143    0.8247 C   0  0  0  0  0  0  0  0  0  0  0  0
    3.7577   -1.0901   -0.2683 C   0  0  0  0  0  0  0  0  0  0  0  0
    3.9857   -1.7782   -1.5391 C   0  0  0  0  0  0  0  0  0  0  0  0
    3.3747   -1.3101   -2.7199 C   0  0  0  0  0  0  0  0  0  0  0  0
    3.6096   -2.0006   -3.9172 C   0  0  0  0  0  0  0  0  0  0  0  0
    4.4235   -3.0937   -3.9520 N   0  0  0  0  0  0  0  0  0  0  0  0
    4.9942   -3.5374   -2.8373 N   0  0  0  0  0  0  0  0  0  0  0  0
    4.7956   -2.9175   -1.6579 C   0  0  0  0  0  0  0  0  0  0  0  0
    1.6606    0.5125    0.6660 H   0  0  0  0  0  0  0  0  0  0  0  0
   -0.2583    1.5191    1.9972 H   0  0  0  0  0  0  0  0  0  0  0  0
    3.3150    0.6246    4.6625 H   0  0  0  0  0  0  0  0  0  0  0  0
    2.7649   -0.7510   -0.2292 H   0  0  0  0  0  0  0  0  0  0  0  0
    2.6873   -0.4705   -2.7118 H   0  0  0  0  0  0  0  0  0  0  0  0
    3.1436   -1.6983   -4.8513 H   0  0  0  0  0  0  0  0  0  0  0  0
    5.2104   -3.4221   -0.8050 H   0  0  0  0  0  0  0  0  0  0  0  0
  1  2  2  0
  2 11  1  0
  2  3  1  0
  3  4  1  0
  4  5  2  0
  5  6  1  0
  5 11  1  0
  6 10  2  0
  6  7  1  0
  7  8  2  0
  7 19  1  0
  8  9  1  0
  8 20  1  0
  9 10  1  0
 10 21  1  0
 11 12  2  3
 12 13  1  0
 12 22  1  0
 13 18  1  0
 13 14  2  0
 14 15  1  0
 14 23  1  0
 15 16  2  0
 15 24  1  0
 16 17  1  0
 17 18  2  0
 18 25  1  0
M  END
>  <i_m_ct_stereo_status>  (174) 
1

>  <s_m_source_file>  (174) 
/var/tmp/pbs.5076255.sched01/tmp25xsusm8/82mdre8bl4.sdf

>  <i_m_source_file_index>  (174) 
8

>  <i_lp_mmshare_version>  (174) 
48012

>  <i_f3d_flags>  (174) 
0

>  <s_epik_input>  (174) 
W2NIXTFzW2NIXVtjSF1jMUMoPU5PQzI9TylDXDI9W0NIXVxjM1tjSF1bY0hdbm5bY0hdMw==

>  <s_epik_cmdline>  (174) 
J2VwaWtfcHl0aG9uJywgJy1waHQnLCAnMi4wJywgJy1waCcsICc3LjAnLCAnLXRuJywgJzgnLCAnLW1hJywgJzIwMCcsICctaW1hZScsICc8aW5maWxlLm1hZT4nLCAnLW9tYWUnLCAnPG91dGZpbGUubWFlPic=

>  <r_lp_tautomer_probability>  (174) 
1

>  <r_epik_Ionization_Penalty>  (174) 
1.54398e-05

>  <r_epik_Ionization_Penalty_Charging>  (174) 
0

>  <r_epik_Ionization_Penalty_Neutral>  (174) 
1.54398e-05

>  <r_epik_State_Penalty>  (174) 
-0

>  <r_epik_Charging_Adjusted_Penalty>  (174) 
0

>  <i_epik_Tot_Q>  (174) 
0

>  <i_epik_Tot_abs_Q>  (174) 
0

>  <s_epik_Chemistry_Notes>  (174) 
This compound has an imine and may undergo hydrolysis.

>  <s_lp_Force_Field>  (174) 
OPLS3e

>  <r_lp_Energy>  (174) 
12.9863

>  <b_lp_Chiralities_Consistent>  (174) 
1

>  <s_lp_Variant>  (174) 
66:0-1

>  <s_i_glide_gridfile>  (174) 
pfpi4k_grid

>  <i_i_glide_lignum>  (174) 
8

>  <i_i_glide_rotatable_bonds>  (174) 
2

>  <r_i_docking_score>  (174) 
-3.63808

>  <r_i_glide_ligand_efficiency>  (174) 
-0.202116

>  <r_i_glide_ligand_efficiency_sa>  (174) 
-0.529693

>  <r_i_glide_ligand_efficiency_ln>  (174) 
-0.93515

>  <r_i_glide_gscore>  (174) 
-3.63808

>  <r_i_glide_lipo>  (174) 
-0.168158

>  <r_i_glide_hbond>  (174) 
0

>  <r_i_glide_metal>  (174) 
-0

>  <r_i_glide_rewards>  (174) 
-1.96231

>  <r_i_glide_evdw>  (174) 
-26.4113

>  <r_i_glide_ecoul>  (174) 
-3.02403

>  <r_i_glide_erotb>  (174) 
0.266553

>  <r_i_glide_esite>  (174) 
0

>  <r_i_glide_emodel>  (174) 
-36.2856

>  <r_i_glide_energy>  (174) 
-29.4353

>  <r_i_glide_einternal>  (174) 
1.09061

>  <r_i_glide_intrahb_reward>  (174) 
-0

>  <i_i_glide_confnum>  (174) 
2

>  <i_i_glide_posenum>  (174) 
13

>  <r_i_glide_eff_state_penalty>  (174) 
0

>  <ligand_id>  (174) 
66

>  <original_smiles>  (174) 
O=C1ON=C(c2ccsc2)C1=Cc1ccnnc1

>  <smiles>  (174) 
[H]C(=C1C(=O)ON=C1c1c([H])sc([H])c1[H])c1c([H])nnc([H])c1[H]

$$$$
66:1:0
     RDKit          3D

 25 27  0  0  1  0  0  0  0  0999 V2000
    2.2376   -6.3309    2.3788 O   0  0  0  0  0  0  0  0  0  0  0  0
    2.1618   -5.7374    1.3040 C   0  0  0  0  0  0  0  0  0  0  0  0
    1.2328   -5.9511    0.3551 O   0  0  0  0  0  0  0  0  0  0  0  0
    1.4324   -5.0805   -0.7344 N   0  0  0  0  0  0  0  0  0  0  0  0
    2.4237   -4.2730   -0.4628 C   0  0  0  0  0  0  0  0  0  0  0  0
    2.7797   -3.1714   -1.3886 C   0  0  0  0  0  0  0  0  0  0  0  0
    2.2437   -3.0514   -2.7157 C   0  0  0  0  0  0  0  0  0  0  0  0
    2.7564   -2.0024   -3.4319 C   0  0  0  0  0  0  0  0  0  0  0  0
    3.9285   -1.1144   -2.5233 S   0  0  0  0  0  0  0  0  0  0  0  0
    3.5754   -2.0881   -1.1386 C   0  0  0  0  0  0  0  0  0  0  0  0
    3.0287   -4.6866    0.8078 C   0  0  0  0  0  0  0  0  0  0  0  0
    4.1537   -4.3113    1.4781 C   0  0  0  0  0  0  0  0  0  0  0  0
    5.2720   -3.4487    1.0527 C   0  0  0  0  0  0  0  0  0  0  0  0
    5.6915   -2.3738    1.8743 C   0  0  0  0  0  0  0  0  0  0  0  0
    6.6081   -1.4617    1.3389 C   0  0  0  0  0  0  0  0  0  0  0  0
    7.1060   -1.5685    0.0870 N   0  0  0  0  0  0  0  0  0  0  0  0
    6.7644   -2.5987   -0.6892 N   0  0  0  0  0  0  0  0  0  0  0  0
    5.8892   -3.5289   -0.2239 C   0  0  0  0  0  0  0  0  0  0  0  0
    1.4708   -3.7098   -3.0817 H   0  0  0  0  0  0  0  0  0  0  0  0
    2.4845   -1.6369   -4.4147 H   0  0  0  0  0  0  0  0  0  0  0  0
    4.0301   -1.7874   -0.2153 H   0  0  0  0  0  0  0  0  0  0  0  0
    4.3215   -4.7446    2.4553 H   0  0  0  0  0  0  0  0  0  0  0  0
    5.2632   -2.2129    2.8437 H   0  0  0  0  0  0  0  0  0  0  0  0
    6.9737   -0.6398    1.9328 H   0  0  0  0  0  0  0  0  0  0  0  0
    5.5097   -4.2190   -0.9671 H   0  0  0  0  0  0  0  0  0  0  0  0
  1  2  2  0
  2 11  1  0
  2  3  1  0
  3  4  1  0
  4  5  2  0
  5  6  1  0
  5 11  1  0
  6 10  2  0
  6  7  1  0
  7  8  2  0
  7 19  1  0
  8  9  1  0
  8 20  1  0
  9 10  1  0
 10 21  1  0
 11 12  2  3
 12 13  1  0
 12 22  1  0
 13 18  1  0
 13 14  2  0
 14 15  1  0
 14 23  1  0
 15 16  2  0
 15 24  1  0
 16 17  1  0
 17 18  2  0
 18 25  1  0
M  END
>  <i_m_ct_stereo_status>  (175) 
1

>  <s_m_source_file>  (175) 
/var/tmp/pbs.5076255.sched01/tmp25xsusm8/82mdre8bl4.sdf

>  <i_m_source_file_index>  (175) 
9

>  <i_lp_mmshare_version>  (175) 
48012

>  <i_f3d_flags>  (175) 
0

>  <s_epik_input>  (175) 
W2NIXTFzW2NIXVtjSF1jMUMoPU5PQzI9TylDXDI9W0NIXVxjM1tjSF1bY0hdbm5bY0hdMw==

>  <s_epik_cmdline>  (175) 
J2VwaWtfcHl0aG9uJywgJy1waHQnLCAnMi4wJywgJy1waCcsICc3LjAnLCAnLXRuJywgJzgnLCAnLW1hJywgJzIwMCcsICctaW1hZScsICc8aW5maWxlLm1hZT4nLCAnLW9tYWUnLCAnPG91dGZpbGUubWFlPic=

>  <r_lp_tautomer_probability>  (175) 
1

>  <r_epik_Ionization_Penalty>  (175) 
1.54398e-05

>  <r_epik_Ionization_Penalty_Charging>  (175) 
0

>  <r_epik_Ionization_Penalty_Neutral>  (175) 
1.54398e-05

>  <r_epik_State_Penalty>  (175) 
-0

>  <r_epik_Charging_Adjusted_Penalty>  (175) 
0

>  <i_epik_Tot_Q>  (175) 
0

>  <i_epik_Tot_abs_Q>  (175) 
0

>  <s_epik_Chemistry_Notes>  (175) 
This compound has an imine and may undergo hydrolysis.

>  <s_lp_Force_Field>  (175) 
OPLS3e

>  <r_lp_Energy>  (175) 
14.3686

>  <b_lp_Chiralities_Consistent>  (175) 
1

>  <s_lp_Variant>  (175) 
66:0-2

>  <s_i_glide_gridfile>  (175) 
pfpi4k_grid

>  <i_i_glide_lignum>  (175) 
9

>  <i_i_glide_rotatable_bonds>  (175) 
2

>  <r_i_docking_score>  (175) 
-3.86601

>  <r_i_glide_ligand_efficiency>  (175) 
-0.214778

>  <r_i_glide_ligand_efficiency_sa>  (175) 
-0.562878

>  <r_i_glide_ligand_efficiency_ln>  (175) 
-0.993738

>  <r_i_glide_gscore>  (175) 
-3.86601

>  <r_i_glide_lipo>  (175) 
-0.578551

>  <r_i_glide_hbond>  (175) 
0

>  <r_i_glide_metal>  (175) 
-0

>  <r_i_glide_rewards>  (175) 
-1.65498

>  <r_i_glide_evdw>  (175) 
-14.0578

>  <r_i_glide_ecoul>  (175) 
-5.46171

>  <r_i_glide_erotb>  (175) 
0.266553

>  <r_i_glide_esite>  (175) 
-0.376877

>  <r_i_glide_emodel>  (175) 
-22.2169

>  <r_i_glide_energy>  (175) 
-19.5195

>  <r_i_glide_einternal>  (175) 
1.71844

>  <r_i_glide_intrahb_reward>  (175) 
-0

>  <i_i_glide_confnum>  (175) 
2

>  <i_i_glide_posenum>  (175) 
35

>  <r_i_glide_eff_state_penalty>  (175) 
0

>  <ligand_id>  (175) 
66

>  <original_smiles>  (175) 
O=C1ON=C(c2ccsc2)C1=Cc1ccnnc1

>  <smiles>  (175) 
[H]C(=C1C(=O)ON=C1c1c([H])sc([H])c1[H])c1c([H])nnc([H])c1[H]

$$$$
67:0:0
     RDKit          3D

 27 28  0  0  1  0  0  0  0  0999 V2000
   -0.0734   -3.6829    6.0396 C   0  0  0  0  0  0  0  0  0  0  0  0
   -0.8576   -2.5738    6.4884 O   0  0  0  0  0  0  0  0  0  0  0  0
   -0.6344   -1.3591    5.8741 C   0  0  0  0  0  0  0  0  0  0  0  0
    0.2586   -1.1819    4.7812 C   0  0  0  0  0  0  0  0  0  0  0  0
    0.4219    0.0904    4.2149 C   0  0  0  0  0  0  0  0  0  0  0  0
   -0.3112    1.1422    4.7736 C   0  0  0  0  0  0  0  0  0  0  0  0
   -1.1687    0.8732    5.8314 C   0  0  0  0  0  0  0  0  0  0  0  0
   -1.3553   -0.3310    6.3952 N   0  0  0  0  0  0  0  0  0  0  0  0
   -2.0140    2.2889    6.3820 S   0  0  0  0  0  0  0  0  0  0  0  0
   -1.1931    3.2985    5.1278 C   0  0  0  0  0  0  0  0  0  0  0  0
   -1.4253    4.4952    4.9684 O   0  0  0  0  0  0  0  0  0  0  0  0
   -0.3056    2.4992    4.3935 N   0  0  0  0  0  0  0  0  0  0  0  0
    0.4613    3.0054    3.2622 C   0  0  0  0  0  0  0  0  0  0  0  0
    1.4372    4.1291    3.6495 C   0  0  0  0  0  0  0  0  0  0  0  0
    2.2166    4.5639    2.4808 N   0  0  0  0  0  0  0  0  0  0  0  0
   -0.3096   -4.6057    6.5794 H   0  0  0  0  0  0  0  0  0  0  0  0
    0.9918   -3.4855    6.1839 H   0  0  0  0  0  0  0  0  0  0  0  0
   -0.2451   -3.8814    4.9792 H   0  0  0  0  0  0  0  0  0  0  0  0
    0.8384   -1.9765    4.3460 H   0  0  0  0  0  0  0  0  0  0  0  0
    1.1007    0.2137    3.3874 H   0  0  0  0  0  0  0  0  0  0  0  0
    1.0457    2.2222    2.7699 H   0  0  0  0  0  0  0  0  0  0  0  0
   -0.2614    3.3356    2.5081 H   0  0  0  0  0  0  0  0  0  0  0  0
    0.9137    5.0088    4.0242 H   0  0  0  0  0  0  0  0  0  0  0  0
    2.1215    3.7925    4.4307 H   0  0  0  0  0  0  0  0  0  0  0  0
    2.8135    5.3334    2.7168 H   0  0  0  0  0  0  0  0  0  0  0  0
    1.5445    4.8298    1.7625 H   0  0  0  0  0  0  0  0  0  0  0  0
    2.7677    3.8032    2.1239 H   0  0  0  0  0  0  0  0  0  0  0  0
  1  2  1  0
  1 16  1  0
  1 17  1  0
  1 18  1  0
  2  3  1  0
  3  8  2  0
  3  4  1  0
  4  5  2  0
  4 19  1  0
  5  6  1  0
  5 20  1  0
  6 12  1  0
  6  7  2  0
  7  8  1  0
  7  9  1  0
  9 10  1  0
 10 11  2  0
 10 12  1  0
 12 13  1  0
 13 14  1  0
 13 21  1  0
 13 22  1  0
 14 15  1  0
 14 23  1  0
 14 24  1  0
 15 25  1  0
 15 26  1  0
 15 27  1  0
M  CHG  1  15   1
M  END
>  <i_m_ct_stereo_status>  (176) 
1

>  <s_m_source_file>  (176) 
/var/tmp/pbs.5076255.sched01/tmp25xsusm8/82mdre8bl4.sdf

>  <i_m_source_file_index>  (176) 
10

>  <i_lp_mmshare_version>  (176) 
48012

>  <i_f3d_flags>  (176) 
0

>  <s_epik_input>  (176) 
W0NIM11PYyhbY0hdW2NIXTEpbmMoYzEyKXNjKD1PKW4yW0NIMl1bQ0gyXVtOSDJd

>  <s_epik_cmdline>  (176) 
J2VwaWtfcHl0aG9uJywgJy1waHQnLCAnMi4wJywgJy1waCcsICc3LjAnLCAnLXRuJywgJzgnLCAnLW1hJywgJzIwMCcsICctaW1hZScsICc8aW5maWxlLm1hZT4nLCAnLW9tYWUnLCAnPG91dGZpbGUubWFlPic=

>  <r_epik_Ionization_Penalty>  (176) 
0.0717527

>  <r_epik_Ionization_Penalty_Charging>  (176) 
0.0717524

>  <r_epik_Ionization_Penalty_Neutral>  (176) 
2.20877e-07

>  <r_epik_State_Penalty>  (176) 
0.0630061

>  <r_epik_Charging_Adjusted_Penalty>  (176) 
0.134759

>  <i_epik_Tot_Q>  (176) 
1

>  <i_epik_Tot_abs_Q>  (176) 
1

>  <s_lp_Force_Field>  (176) 
OPLS3e

>  <r_lp_Energy>  (176) 
18.2602

>  <b_lp_Chiralities_Consistent>  (176) 
1

>  <s_lp_Variant>  (176) 
67:0-1

>  <s_i_glide_gridfile>  (176) 
pfpi4k_grid

>  <i_i_glide_lignum>  (176) 
10

>  <i_i_glide_rotatable_bonds>  (176) 
3

>  <r_i_docking_score>  (176) 
-4.40716

>  <r_i_glide_ligand_efficiency>  (176) 
-0.293811

>  <r_i_glide_ligand_efficiency_sa>  (176) 
-0.7246

>  <r_i_glide_ligand_efficiency_ln>  (176) 
-1.18854

>  <r_i_glide_gscore>  (176) 
-4.40716

>  <r_i_glide_lipo>  (176) 
-0.0298591

>  <r_i_glide_hbond>  (176) 
-0.330387

>  <r_i_glide_metal>  (176) 
-0

>  <r_i_glide_rewards>  (176) 
-1.8663

>  <r_i_glide_evdw>  (176) 
-10.8668

>  <r_i_glide_ecoul>  (176) 
-12.3223

>  <r_i_glide_erotb>  (176) 
0.331849

>  <r_i_glide_esite>  (176) 
-0.120781

>  <r_i_glide_emodel>  (176) 
-31.2624

>  <r_i_glide_energy>  (176) 
-23.1891

>  <r_i_glide_einternal>  (176) 
5.00124

>  <r_i_glide_intrahb_reward>  (176) 
-0

>  <i_i_glide_confnum>  (176) 
2

>  <i_i_glide_posenum>  (176) 
2

>  <r_i_glide_eff_state_penalty>  (176) 
0

>  <ligand_id>  (176) 
67

>  <original_smiles>  (176) 
COc1ccc2c(n1)sc(=O)n2CCN

>  <smiles>  (176) 
[H]c1c(OC([H])([H])[H])nc2sc(=O)n(C([H])([H])C([H])([H])[N+]([H])([H])[H])c2c1[H]

$$$$
67:0:1
     RDKit          3D

 27 28  0  0  1  0  0  0  0  0999 V2000
   -2.2305    2.7985    9.6086 C   0  0  0  0  0  0  0  0  0  0  0  0
   -2.8039    3.1541    8.3566 O   0  0  0  0  0  0  0  0  0  0  0  0
   -2.3196    2.5580    7.2143 C   0  0  0  0  0  0  0  0  0  0  0  0
   -2.5863    3.2075    5.9887 C   0  0  0  0  0  0  0  0  0  0  0  0
   -2.1135    2.6647    4.7712 C   0  0  0  0  0  0  0  0  0  0  0  0
   -1.3807    1.4688    4.8775 C   0  0  0  0  0  0  0  0  0  0  0  0
   -1.1811    0.9154    6.1338 C   0  0  0  0  0  0  0  0  0  0  0  0
   -1.6329    1.3938    7.3149 N   0  0  0  0  0  0  0  0  0  0  0  0
   -0.2939   -0.5648    6.0893 S   0  0  0  0  0  0  0  0  0  0  0  0
   -0.1435   -0.4423    4.3059 C   0  0  0  0  0  0  0  0  0  0  0  0
    0.4853   -1.2786    3.6580 O   0  0  0  0  0  0  0  0  0  0  0  0
   -0.7948    0.7044    3.8299 N   0  0  0  0  0  0  0  0  0  0  0  0
   -0.8461    1.0987    2.4113 C   0  0  0  0  0  0  0  0  0  0  0  0
    0.5037    1.6041    1.8822 C   0  0  0  0  0  0  0  0  0  0  0  0
    1.4420    0.4988    1.6369 N   0  0  0  0  0  0  0  0  0  0  0  0
   -2.7403    3.3478   10.4030 H   0  0  0  0  0  0  0  0  0  0  0  0
   -1.1733    3.0728    9.6406 H   0  0  0  0  0  0  0  0  0  0  0  0
   -2.3334    1.7496    9.8322 H   0  0  0  0  0  0  0  0  0  0  0  0
   -3.1487    4.1229    5.9901 H   0  0  0  0  0  0  0  0  0  0  0  0
   -2.3175    3.1596    3.8329 H   0  0  0  0  0  0  0  0  0  0  0  0
   -1.2085    0.2758    1.8013 H   0  0  0  0  0  0  0  0  0  0  0  0
   -1.5923    1.8820    2.2448 H   0  0  0  0  0  0  0  0  0  0  0  0
    0.3350    2.1390    0.9525 H   0  0  0  0  0  0  0  0  0  0  0  0
    0.9279    2.3253    2.5773 H   0  0  0  0  0  0  0  0  0  0  0  0
    2.3275    0.8474    1.3112 H   0  0  0  0  0  0  0  0  0  0  0  0
    1.0437   -0.1028    0.9273 H   0  0  0  0  0  0  0  0  0  0  0  0
    1.5514   -0.0277    2.4894 H   0  0  0  0  0  0  0  0  0  0  0  0
  1  2  1  0
  1 16  1  0
  1 17  1  0
  1 18  1  0
  2  3  1  0
  3  8  2  0
  3  4  1  0
  4  5  2  0
  4 19  1  0
  5  6  1  0
  5 20  1  0
  6 12  1  0
  6  7  2  0
  7  8  1  0
  7  9  1  0
  9 10  1  0
 10 11  2  0
 10 12  1  0
 12 13  1  0
 13 14  1  0
 13 21  1  0
 13 22  1  0
 14 15  1  0
 14 23  1  0
 14 24  1  0
 15 25  1  0
 15 26  1  0
 15 27  1  0
M  CHG  1  15   1
M  END
>  <i_m_ct_stereo_status>  (177) 
1

>  <s_m_source_file>  (177) 
/var/tmp/pbs.5076255.sched01/tmp25xsusm8/82mdre8bl4.sdf

>  <i_m_source_file_index>  (177) 
10

>  <i_lp_mmshare_version>  (177) 
48012

>  <i_f3d_flags>  (177) 
0

>  <s_epik_input>  (177) 
W0NIM11PYyhbY0hdW2NIXTEpbmMoYzEyKXNjKD1PKW4yW0NIMl1bQ0gyXVtOSDJd

>  <s_epik_cmdline>  (177) 
J2VwaWtfcHl0aG9uJywgJy1waHQnLCAnMi4wJywgJy1waCcsICc3LjAnLCAnLXRuJywgJzgnLCAnLW1hJywgJzIwMCcsICctaW1hZScsICc8aW5maWxlLm1hZT4nLCAnLW9tYWUnLCAnPG91dGZpbGUubWFlPic=

>  <r_epik_Ionization_Penalty>  (177) 
0.0717527

>  <r_epik_Ionization_Penalty_Charging>  (177) 
0.0717524

>  <r_epik_Ionization_Penalty_Neutral>  (177) 
2.20877e-07

>  <r_epik_State_Penalty>  (177) 
0.0630061

>  <r_epik_Charging_Adjusted_Penalty>  (177) 
0.134759

>  <i_epik_Tot_Q>  (177) 
1

>  <i_epik_Tot_abs_Q>  (177) 
1

>  <s_lp_Force_Field>  (177) 
OPLS3e

>  <r_lp_Energy>  (177) 
18.2602

>  <b_lp_Chiralities_Consistent>  (177) 
1

>  <s_lp_Variant>  (177) 
67:0-1

>  <s_i_glide_gridfile>  (177) 
pfpi4k_grid

>  <i_i_glide_lignum>  (177) 
10

>  <i_i_glide_rotatable_bonds>  (177) 
3

>  <r_i_docking_score>  (177) 
-4.13696

>  <r_i_glide_ligand_efficiency>  (177) 
-0.275797

>  <r_i_glide_ligand_efficiency_sa>  (177) 
-0.680175

>  <r_i_glide_ligand_efficiency_ln>  (177) 
-1.11567

>  <r_i_glide_gscore>  (177) 
-4.13696

>  <r_i_glide_lipo>  (177) 
-0.15557

>  <r_i_glide_hbond>  (177) 
-0.263107

>  <r_i_glide_metal>  (177) 
-0

>  <r_i_glide_rewards>  (177) 
-2.3663

>  <r_i_glide_evdw>  (177) 
-17.2774

>  <r_i_glide_ecoul>  (177) 
-4.79586

>  <r_i_glide_erotb>  (177) 
0.331849

>  <r_i_glide_esite>  (177) 
-0.100585

>  <r_i_glide_emodel>  (177) 
-31.7097

>  <r_i_glide_energy>  (177) 
-22.0733

>  <r_i_glide_einternal>  (177) 
10.2507

>  <r_i_glide_intrahb_reward>  (177) 
-0.5

>  <i_i_glide_confnum>  (177) 
3

>  <i_i_glide_posenum>  (177) 
34

>  <r_i_glide_eff_state_penalty>  (177) 
0

>  <ligand_id>  (177) 
67

>  <original_smiles>  (177) 
COc1ccc2c(n1)sc(=O)n2CCN

>  <smiles>  (177) 
[H]c1c(OC([H])([H])[H])nc2sc(=O)n(C([H])([H])C([H])([H])[N+]([H])([H])[H])c2c1[H]

$$$$
67:0:2
     RDKit          3D

 27 28  0  0  1  0  0  0  0  0999 V2000
   -0.5634   -4.5126    6.0605 C   0  0  0  0  0  0  0  0  0  0  0  0
   -0.9056   -5.8556    5.7537 O   0  0  0  0  0  0  0  0  0  0  0  0
   -0.0854   -6.5857    4.9152 C   0  0  0  0  0  0  0  0  0  0  0  0
   -0.2450   -7.9873    4.9060 C   0  0  0  0  0  0  0  0  0  0  0  0
    0.5803   -8.7930    4.0958 C   0  0  0  0  0  0  0  0  0  0  0  0
    1.5353   -8.1208    3.3162 C   0  0  0  0  0  0  0  0  0  0  0  0
    1.5963   -6.7339    3.3761 C   0  0  0  0  0  0  0  0  0  0  0  0
    0.8209   -5.9333    4.1435 N   0  0  0  0  0  0  0  0  0  0  0  0
    2.7972   -6.0774    2.3121 S   0  0  0  0  0  0  0  0  0  0  0  0
    3.2711   -7.7370    1.7655 C   0  0  0  0  0  0  0  0  0  0  0  0
    4.1462   -7.9331    0.9273 O   0  0  0  0  0  0  0  0  0  0  0  0
    2.4795   -8.6799    2.4261 N   0  0  0  0  0  0  0  0  0  0  0  0
    2.5674  -10.1191    2.1564 C   0  0  0  0  0  0  0  0  0  0  0  0
    3.5186  -10.8327    3.1322 C   0  0  0  0  0  0  0  0  0  0  0  0
    3.5330  -12.2891    2.8979 N   0  0  0  0  0  0  0  0  0  0  0  0
   -1.3310   -4.0994    6.7171 H   0  0  0  0  0  0  0  0  0  0  0  0
   -0.5150   -3.8766    5.1746 H   0  0  0  0  0  0  0  0  0  0  0  0
    0.3876   -4.4776    6.5928 H   0  0  0  0  0  0  0  0  0  0  0  0
   -0.9824   -8.4631    5.5303 H   0  0  0  0  0  0  0  0  0  0  0  0
    0.4815   -9.8680    4.0914 H   0  0  0  0  0  0  0  0  0  0  0  0
    1.5725  -10.5592    2.2167 H   0  0  0  0  0  0  0  0  0  0  0  0
    2.9025  -10.2537    1.1274 H   0  0  0  0  0  0  0  0  0  0  0  0
    4.5356  -10.4560    3.0090 H   0  0  0  0  0  0  0  0  0  0  0  0
    3.2365  -10.6482    4.1700 H   0  0  0  0  0  0  0  0  0  0  0  0
    4.1844  -12.7533    3.5128 H   0  0  0  0  0  0  0  0  0  0  0  0
    3.8146  -12.4032    1.9087 H   0  0  0  0  0  0  0  0  0  0  0  0
    2.6132  -12.6987    3.0263 H   0  0  0  0  0  0  0  0  0  0  0  0
  1  2  1  0
  1 16  1  0
  1 17  1  0
  1 18  1  0
  2  3  1  0
  3  8  2  0
  3  4  1  0
  4  5  2  0
  4 19  1  0
  5  6  1  0
  5 20  1  0
  6 12  1  0
  6  7  2  0
  7  8  1  0
  7  9  1  0
  9 10  1  0
 10 11  2  0
 10 12  1  0
 12 13  1  0
 13 14  1  0
 13 21  1  0
 13 22  1  0
 14 15  1  0
 14 23  1  0
 14 24  1  0
 15 25  1  0
 15 26  1  0
 15 27  1  0
M  CHG  1  15   1
M  END
>  <i_m_ct_stereo_status>  (178) 
1

>  <s_m_source_file>  (178) 
/var/tmp/pbs.5076255.sched01/tmp25xsusm8/82mdre8bl4.sdf

>  <i_m_source_file_index>  (178) 
10

>  <i_lp_mmshare_version>  (178) 
48012

>  <i_f3d_flags>  (178) 
0

>  <s_epik_input>  (178) 
W0NIM11PYyhbY0hdW2NIXTEpbmMoYzEyKXNjKD1PKW4yW0NIMl1bQ0gyXVtOSDJd

>  <s_epik_cmdline>  (178) 
J2VwaWtfcHl0aG9uJywgJy1waHQnLCAnMi4wJywgJy1waCcsICc3LjAnLCAnLXRuJywgJzgnLCAnLW1hJywgJzIwMCcsICctaW1hZScsICc8aW5maWxlLm1hZT4nLCAnLW9tYWUnLCAnPG91dGZpbGUubWFlPic=

>  <r_epik_Ionization_Penalty>  (178) 
0.0717527

>  <r_epik_Ionization_Penalty_Charging>  (178) 
0.0717524

>  <r_epik_Ionization_Penalty_Neutral>  (178) 
2.20877e-07

>  <r_epik_State_Penalty>  (178) 
0.0630061

>  <r_epik_Charging_Adjusted_Penalty>  (178) 
0.134759

>  <i_epik_Tot_Q>  (178) 
1

>  <i_epik_Tot_abs_Q>  (178) 
1

>  <s_lp_Force_Field>  (178) 
OPLS3e

>  <r_lp_Energy>  (178) 
18.2602

>  <b_lp_Chiralities_Consistent>  (178) 
1

>  <s_lp_Variant>  (178) 
67:0-1

>  <s_i_glide_gridfile>  (178) 
pfpi4k_grid

>  <i_i_glide_lignum>  (178) 
10

>  <i_i_glide_rotatable_bonds>  (178) 
3

>  <r_i_docking_score>  (178) 
-4.01347

>  <r_i_glide_ligand_efficiency>  (178) 
-0.267565

>  <r_i_glide_ligand_efficiency_sa>  (178) 
-0.659871

>  <r_i_glide_ligand_efficiency_ln>  (178) 
-1.08237

>  <r_i_glide_gscore>  (178) 
-4.01347

>  <r_i_glide_lipo>  (178) 
-0.0100269

>  <r_i_glide_hbond>  (178) 
-0.2

>  <r_i_glide_metal>  (178) 
-0

>  <r_i_glide_rewards>  (178) 
-1.8663

>  <r_i_glide_evdw>  (178) 
-14.5659

>  <r_i_glide_ecoul>  (178) 
-9.59354

>  <r_i_glide_erotb>  (178) 
0.331849

>  <r_i_glide_esite>  (178) 
-0.101672

>  <r_i_glide_emodel>  (178) 
-33.3104

>  <r_i_glide_energy>  (178) 
-24.1594

>  <r_i_glide_einternal>  (178) 
0.845592

>  <r_i_glide_intrahb_reward>  (178) 
-0

>  <i_i_glide_confnum>  (178) 
4

>  <i_i_glide_posenum>  (178) 
4

>  <r_i_glide_eff_state_penalty>  (178) 
0

>  <ligand_id>  (178) 
67

>  <original_smiles>  (178) 
COc1ccc2c(n1)sc(=O)n2CCN

>  <smiles>  (178) 
[H]c1c(OC([H])([H])[H])nc2sc(=O)n(C([H])([H])C([H])([H])[N+]([H])([H])[H])c2c1[H]

$$$$
67:1:0
     RDKit          3D

 26 27  0  0  1  0  0  0  0  0999 V2000
   -0.5399   -3.6614    6.0730 C   0  0  0  0  0  0  0  0  0  0  0  0
   -1.3927   -2.5238    6.2229 O   0  0  0  0  0  0  0  0  0  0  0  0
   -0.9673   -1.3377    5.6608 C   0  0  0  0  0  0  0  0  0  0  0  0
    0.1669   -1.2413    4.8167 C   0  0  0  0  0  0  0  0  0  0  0  0
    0.5420    0.0078    4.2927 C   0  0  0  0  0  0  0  0  0  0  0  0
   -0.2421    1.1173    4.6422 C   0  0  0  0  0  0  0  0  0  0  0  0
   -1.3387    0.9197    5.4707 C   0  0  0  0  0  0  0  0  0  0  0  0
   -1.7304   -0.2612    5.9912 N   0  0  0  0  0  0  0  0  0  0  0  0
   -2.1666    2.4059    5.8306 S   0  0  0  0  0  0  0  0  0  0  0  0
   -1.0160    3.3311    4.7788 C   0  0  0  0  0  0  0  0  0  0  0  0
   -1.1361    4.5392    4.5957 O   0  0  0  0  0  0  0  0  0  0  0  0
   -0.0488    2.4583    4.2629 N   0  0  0  0  0  0  0  0  0  0  0  0
    1.0448    2.8947    3.3868 C   0  0  0  0  0  0  0  0  0  0  0  0
    2.0083    3.8517    4.1043 C   0  0  0  0  0  0  0  0  0  0  0  0
    3.0098    4.3133    3.1657 N   0  0  0  0  0  0  0  0  0  0  0  0
   -0.9813   -4.5444    6.5423 H   0  0  0  0  0  0  0  0  0  0  0  0
    0.4259   -3.4696    6.5454 H   0  0  0  0  0  0  0  0  0  0  0  0
   -0.3799   -3.9019    5.0202 H   0  0  0  0  0  0  0  0  0  0  0  0
    0.7817   -2.0832    4.5481 H   0  0  0  0  0  0  0  0  0  0  0  0
    1.4097    0.0733    3.6610 H   0  0  0  0  0  0  0  0  0  0  0  0
    1.6261    2.0654    2.9923 H   0  0  0  0  0  0  0  0  0  0  0  0
    0.6152    3.3517    2.4998 H   0  0  0  0  0  0  0  0  0  0  0  0
    1.4893    4.7257    4.4914 H   0  0  0  0  0  0  0  0  0  0  0  0
    2.4900    3.3535    4.9465 H   0  0  0  0  0  0  0  0  0  0  0  0
    3.5492    3.5429    2.7818 H   0  0  0  0  0  0  0  0  0  0  0  0
    2.5488    4.7559    2.3774 H   0  0  0  0  0  0  0  0  0  0  0  0
  1  2  1  0
  1 16  1  0
  1 17  1  0
  1 18  1  0
  2  3  1  0
  3  8  2  0
  3  4  1  0
  4  5  2  0
  4 19  1  0
  5  6  1  0
  5 20  1  0
  6 12  1  0
  6  7  2  0
  7  8  1  0
  7  9  1  0
  9 10  1  0
 10 11  2  0
 10 12  1  0
 12 13  1  0
 13 14  1  0
 13 21  1  0
 13 22  1  0
 14 15  1  0
 14 23  1  0
 14 24  1  0
 15 25  1  0
 15 26  1  0
M  END
>  <i_m_ct_stereo_status>  (179) 
1

>  <s_m_source_file>  (179) 
/var/tmp/pbs.5076255.sched01/tmp25xsusm8/82mdre8bl4.sdf

>  <i_m_source_file_index>  (179) 
11

>  <i_lp_mmshare_version>  (179) 
48012

>  <i_f3d_flags>  (179) 
0

>  <s_epik_input>  (179) 
W0NIM11PYyhbY0hdW2NIXTEpbmMoYzEyKXNjKD1PKW4yW0NIMl1bQ0gyXVtOSDJd

>  <s_epik_cmdline>  (179) 
J2VwaWtfcHl0aG9uJywgJy1waHQnLCAnMi4wJywgJy1waCcsICc3LjAnLCAnLXRuJywgJzgnLCAnLW1hJywgJzIwMCcsICctaW1hZScsICc8aW5maWxlLm1hZT4nLCAnLW9tYWUnLCAnPG91dGZpbGUubWFlPic=

>  <r_epik_Ionization_Penalty>  (179) 
1.28632

>  <r_epik_Ionization_Penalty_Charging>  (179) 
2.92052e-07

>  <r_epik_Ionization_Penalty_Neutral>  (179) 
1.28632

>  <r_epik_State_Penalty>  (179) 
1.35904

>  <r_epik_Charging_Adjusted_Penalty>  (179) 
1.35904

>  <i_epik_Tot_Q>  (179) 
0

>  <i_epik_Tot_abs_Q>  (179) 
0

>  <s_lp_Force_Field>  (179) 
OPLS3e

>  <r_lp_Energy>  (179) 
14.2395

>  <b_lp_Chiralities_Consistent>  (179) 
1

>  <s_lp_Variant>  (179) 
67:0-2

>  <s_i_glide_gridfile>  (179) 
pfpi4k_grid

>  <i_i_glide_lignum>  (179) 
11

>  <i_i_glide_rotatable_bonds>  (179) 
3

>  <r_i_docking_score>  (179) 
-3.94217

>  <r_i_glide_ligand_efficiency>  (179) 
-0.262811

>  <r_i_glide_ligand_efficiency_sa>  (179) 
-0.648148

>  <r_i_glide_ligand_efficiency_ln>  (179) 
-1.06314

>  <r_i_glide_gscore>  (179) 
-3.94217

>  <r_i_glide_lipo>  (179) 
-0.0401615

>  <r_i_glide_hbond>  (179) 
-0.341494

>  <r_i_glide_metal>  (179) 
-0

>  <r_i_glide_rewards>  (179) 
-1.87317

>  <r_i_glide_evdw>  (179) 
-14.8004

>  <r_i_glide_ecoul>  (179) 
-8.37483

>  <r_i_glide_erotb>  (179) 
0.334367

>  <r_i_glide_esite>  (179) 
-0.0254657

>  <r_i_glide_emodel>  (179) 
-27.0276

>  <r_i_glide_energy>  (179) 
-23.1753

>  <r_i_glide_einternal>  (179) 
5.14926

>  <r_i_glide_intrahb_reward>  (179) 
-0

>  <i_i_glide_confnum>  (179) 
4

>  <i_i_glide_posenum>  (179) 
7

>  <r_i_glide_eff_state_penalty>  (179) 
0

>  <ligand_id>  (179) 
67

>  <original_smiles>  (179) 
COc1ccc2c(n1)sc(=O)n2CCN

>  <smiles>  (179) 
[H]c1c(OC([H])([H])[H])nc2sc(=O)n(C([H])([H])C([H])([H])N([H])[H])c2c1[H]

$$$$
67:1:1
     RDKit          3D

 26 27  0  0  1  0  0  0  0  0999 V2000
   -2.6735    2.7712    8.9031 C   0  0  0  0  0  0  0  0  0  0  0  0
   -2.8838    3.1847    7.5625 O   0  0  0  0  0  0  0  0  0  0  0  0
   -2.2310    2.5209    6.5469 C   0  0  0  0  0  0  0  0  0  0  0  0
   -2.1585    3.1685    5.2915 C   0  0  0  0  0  0  0  0  0  0  0  0
   -1.4877    2.5544    4.2145 C   0  0  0  0  0  0  0  0  0  0  0  0
   -0.9240    1.2909    4.4589 C   0  0  0  0  0  0  0  0  0  0  0  0
   -1.0656    0.7336    5.7279 C   0  0  0  0  0  0  0  0  0  0  0  0
   -1.7035    1.2881    6.7813 N   0  0  0  0  0  0  0  0  0  0  0  0
   -0.3433   -0.8375    5.8456 S   0  0  0  0  0  0  0  0  0  0  0  0
    0.2006   -0.7497    4.1200 C   0  0  0  0  0  0  0  0  0  0  0  0
    0.8157   -1.6633    3.5767 O   0  0  0  0  0  0  0  0  0  0  0  0
   -0.2103    0.4639    3.5602 N   0  0  0  0  0  0  0  0  0  0  0  0
    0.0499    0.8072    2.1606 C   0  0  0  0  0  0  0  0  0  0  0  0
    1.5125    1.2224    1.9332 C   0  0  0  0  0  0  0  0  0  0  0  0
    2.2229    0.1404    1.2798 N   0  0  0  0  0  0  0  0  0  0  0  0
   -3.2707    3.3980    9.5658 H   0  0  0  0  0  0  0  0  0  0  0  0
   -1.6256    2.8820    9.1839 H   0  0  0  0  0  0  0  0  0  0  0  0
   -2.9827    1.7445    9.0690 H   0  0  0  0  0  0  0  0  0  0  0  0
   -2.5990    4.1409    5.1645 H   0  0  0  0  0  0  0  0  0  0  0  0
   -1.4151    3.0482    3.2578 H   0  0  0  0  0  0  0  0  0  0  0  0
   -0.2265   -0.0188    1.5055 H   0  0  0  0  0  0  0  0  0  0  0  0
   -0.5985    1.6212    1.8318 H   0  0  0  0  0  0  0  0  0  0  0  0
    1.5483    2.1040    1.2890 H   0  0  0  0  0  0  0  0  0  0  0  0
    2.0072    1.5022    2.8643 H   0  0  0  0  0  0  0  0  0  0  0  0
    2.1666   -0.6812    1.8669 H   0  0  0  0  0  0  0  0  0  0  0  0
    1.7250   -0.1250    0.4254 H   0  0  0  0  0  0  0  0  0  0  0  0
  1  2  1  0
  1 16  1  0
  1 17  1  0
  1 18  1  0
  2  3  1  0
  3  8  2  0
  3  4  1  0
  4  5  2  0
  4 19  1  0
  5  6  1  0
  5 20  1  0
  6 12  1  0
  6  7  2  0
  7  8  1  0
  7  9  1  0
  9 10  1  0
 10 11  2  0
 10 12  1  0
 12 13  1  0
 13 14  1  0
 13 21  1  0
 13 22  1  0
 14 15  1  0
 14 23  1  0
 14 24  1  0
 15 25  1  0
 15 26  1  0
M  END
>  <i_m_ct_stereo_status>  (180) 
1

>  <s_m_source_file>  (180) 
/var/tmp/pbs.5076255.sched01/tmp25xsusm8/82mdre8bl4.sdf

>  <i_m_source_file_index>  (180) 
11

>  <i_lp_mmshare_version>  (180) 
48012

>  <i_f3d_flags>  (180) 
0

>  <s_epik_input>  (180) 
W0NIM11PYyhbY0hdW2NIXTEpbmMoYzEyKXNjKD1PKW4yW0NIMl1bQ0gyXVtOSDJd

>  <s_epik_cmdline>  (180) 
J2VwaWtfcHl0aG9uJywgJy1waHQnLCAnMi4wJywgJy1waCcsICc3LjAnLCAnLXRuJywgJzgnLCAnLW1hJywgJzIwMCcsICctaW1hZScsICc8aW5maWxlLm1hZT4nLCAnLW9tYWUnLCAnPG91dGZpbGUubWFlPic=

>  <r_epik_Ionization_Penalty>  (180) 
1.28632

>  <r_epik_Ionization_Penalty_Charging>  (180) 
2.92052e-07

>  <r_epik_Ionization_Penalty_Neutral>  (180) 
1.28632

>  <r_epik_State_Penalty>  (180) 
1.35904

>  <r_epik_Charging_Adjusted_Penalty>  (180) 
1.35904

>  <i_epik_Tot_Q>  (180) 
0

>  <i_epik_Tot_abs_Q>  (180) 
0

>  <s_lp_Force_Field>  (180) 
OPLS3e

>  <r_lp_Energy>  (180) 
14.2395

>  <b_lp_Chiralities_Consistent>  (180) 
1

>  <s_lp_Variant>  (180) 
67:0-2

>  <s_i_glide_gridfile>  (180) 
pfpi4k_grid

>  <i_i_glide_lignum>  (180) 
11

>  <i_i_glide_rotatable_bonds>  (180) 
3

>  <r_i_docking_score>  (180) 
-3.8087

>  <r_i_glide_ligand_efficiency>  (180) 
-0.253913

>  <r_i_glide_ligand_efficiency_sa>  (180) 
-0.626204

>  <r_i_glide_ligand_efficiency_ln>  (180) 
-1.02714

>  <r_i_glide_gscore>  (180) 
-3.8087

>  <r_i_glide_lipo>  (180) 
-0.0930596

>  <r_i_glide_hbond>  (180) 
-0.196725

>  <r_i_glide_metal>  (180) 
-0

>  <r_i_glide_rewards>  (180) 
-2.37317

>  <r_i_glide_evdw>  (180) 
-18.7103

>  <r_i_glide_ecoul>  (180) 
-3.47649

>  <r_i_glide_erotb>  (180) 
0.334367

>  <r_i_glide_esite>  (180) 
-0.023125

>  <r_i_glide_emodel>  (180) 
-29.8774

>  <r_i_glide_energy>  (180) 
-22.1868

>  <r_i_glide_einternal>  (180) 
7.05756

>  <r_i_glide_intrahb_reward>  (180) 
-0.5

>  <i_i_glide_confnum>  (180) 
5

>  <i_i_glide_posenum>  (180) 
19

>  <r_i_glide_eff_state_penalty>  (180) 
0

>  <ligand_id>  (180) 
67

>  <original_smiles>  (180) 
COc1ccc2c(n1)sc(=O)n2CCN

>  <smiles>  (180) 
[H]c1c(OC([H])([H])[H])nc2sc(=O)n(C([H])([H])C([H])([H])N([H])[H])c2c1[H]

$$$$
67:1:2
     RDKit          3D

 26 27  0  0  1  0  0  0  0  0999 V2000
   -2.7498    3.2385   10.0991 C   0  0  0  0  0  0  0  0  0  0  0  0
   -3.0443    3.6072    8.7568 O   0  0  0  0  0  0  0  0  0  0  0  0
   -2.3833    2.9120    7.7646 C   0  0  0  0  0  0  0  0  0  0  0  0
   -1.4251    1.8976    8.0071 C   0  0  0  0  0  0  0  0  0  0  0  0
   -0.8010    1.2427    6.9232 C   0  0  0  0  0  0  0  0  0  0  0  0
   -1.1965    1.6310    5.6313 C   0  0  0  0  0  0  0  0  0  0  0  0
   -2.1328    2.6336    5.5019 C   0  0  0  0  0  0  0  0  0  0  0  0
   -2.7423    3.2892    6.5139 N   0  0  0  0  0  0  0  0  0  0  0  0
   -2.5065    2.9892    3.8471 S   0  0  0  0  0  0  0  0  0  0  0  0
   -1.3545    1.6977    3.2980 C   0  0  0  0  0  0  0  0  0  0  0  0
   -1.2026    1.4208    2.1092 O   0  0  0  0  0  0  0  0  0  0  0  0
   -0.7349    1.1165    4.4051 N   0  0  0  0  0  0  0  0  0  0  0  0
    0.2838    0.0538    4.2872 C   0  0  0  0  0  0  0  0  0  0  0  0
    1.6715    0.5873    3.8901 C   0  0  0  0  0  0  0  0  0  0  0  0
    1.6935    0.9202    2.4743 N   0  0  0  0  0  0  0  0  0  0  0  0
   -3.3046    3.8498   10.8187 H   0  0  0  0  0  0  0  0  0  0  0  0
   -1.6863    3.3723   10.3126 H   0  0  0  0  0  0  0  0  0  0  0  0
   -3.0192    2.1941   10.2759 H   0  0  0  0  0  0  0  0  0  0  0  0
   -1.1129    1.5994    9.0000 H   0  0  0  0  0  0  0  0  0  0  0  0
   -0.0603    0.4823    7.1120 H   0  0  0  0  0  0  0  0  0  0  0  0
    0.4117   -0.4598    5.2410 H   0  0  0  0  0  0  0  0  0  0  0  0
   -0.0528   -0.7436    3.6186 H   0  0  0  0  0  0  0  0  0  0  0  0
    1.9410    1.4569    4.4875 H   0  0  0  0  0  0  0  0  0  0  0  0
    2.4355   -0.1683    4.0740 H   0  0  0  0  0  0  0  0  0  0  0  0
    1.4449    0.1213    1.9157 H   0  0  0  0  0  0  0  0  0  0  0  0
    1.0011    1.6171    2.2847 H   0  0  0  0  0  0  0  0  0  0  0  0
  1  2  1  0
  1 16  1  0
  1 17  1  0
  1 18  1  0
  2  3  1  0
  3  8  2  0
  3  4  1  0
  4  5  2  0
  4 19  1  0
  5  6  1  0
  5 20  1  0
  6 12  1  0
  6  7  2  0
  7  8  1  0
  7  9  1  0
  9 10  1  0
 10 11  2  0
 10 12  1  0
 12 13  1  0
 13 14  1  0
 13 21  1  0
 13 22  1  0
 14 15  1  0
 14 23  1  0
 14 24  1  0
 15 25  1  0
 15 26  1  0
M  END
>  <i_m_ct_stereo_status>  (181) 
1

>  <s_m_source_file>  (181) 
/var/tmp/pbs.5076255.sched01/tmp25xsusm8/82mdre8bl4.sdf

>  <i_m_source_file_index>  (181) 
11

>  <i_lp_mmshare_version>  (181) 
48012

>  <i_f3d_flags>  (181) 
0

>  <s_epik_input>  (181) 
W0NIM11PYyhbY0hdW2NIXTEpbmMoYzEyKXNjKD1PKW4yW0NIMl1bQ0gyXVtOSDJd

>  <s_epik_cmdline>  (181) 
J2VwaWtfcHl0aG9uJywgJy1waHQnLCAnMi4wJywgJy1waCcsICc3LjAnLCAnLXRuJywgJzgnLCAnLW1hJywgJzIwMCcsICctaW1hZScsICc8aW5maWxlLm1hZT4nLCAnLW9tYWUnLCAnPG91dGZpbGUubWFlPic=

>  <r_epik_Ionization_Penalty>  (181) 
1.28632

>  <r_epik_Ionization_Penalty_Charging>  (181) 
2.92052e-07

>  <r_epik_Ionization_Penalty_Neutral>  (181) 
1.28632

>  <r_epik_State_Penalty>  (181) 
1.35904

>  <r_epik_Charging_Adjusted_Penalty>  (181) 
1.35904

>  <i_epik_Tot_Q>  (181) 
0

>  <i_epik_Tot_abs_Q>  (181) 
0

>  <s_lp_Force_Field>  (181) 
OPLS3e

>  <r_lp_Energy>  (181) 
14.2395

>  <b_lp_Chiralities_Consistent>  (181) 
1

>  <s_lp_Variant>  (181) 
67:0-2

>  <s_i_glide_gridfile>  (181) 
pfpi4k_grid

>  <i_i_glide_lignum>  (181) 
11

>  <i_i_glide_rotatable_bonds>  (181) 
3

>  <r_i_docking_score>  (181) 
-3.30082

>  <r_i_glide_ligand_efficiency>  (181) 
-0.220055

>  <r_i_glide_ligand_efficiency_sa>  (181) 
-0.542702

>  <r_i_glide_ligand_efficiency_ln>  (181) 
-0.890177

>  <r_i_glide_gscore>  (181) 
-3.30082

>  <r_i_glide_lipo>  (181) 
-0.128921

>  <r_i_glide_hbond>  (181) 
0

>  <r_i_glide_metal>  (181) 
-0

>  <r_i_glide_rewards>  (181) 
-2.37317

>  <r_i_glide_evdw>  (181) 
-20.6302

>  <r_i_glide_ecoul>  (181) 
-0.558927

>  <r_i_glide_erotb>  (181) 
0.334367

>  <r_i_glide_esite>  (181) 
-0.0177476

>  <r_i_glide_emodel>  (181) 
-26.4018

>  <r_i_glide_energy>  (181) 
-21.1892

>  <r_i_glide_einternal>  (181) 
10.1312

>  <r_i_glide_intrahb_reward>  (181) 
-0.5

>  <i_i_glide_confnum>  (181) 
1

>  <i_i_glide_posenum>  (181) 
13

>  <r_i_glide_eff_state_penalty>  (181) 
0

>  <ligand_id>  (181) 
67

>  <original_smiles>  (181) 
COc1ccc2c(n1)sc(=O)n2CCN

>  <smiles>  (181) 
[H]c1c(OC([H])([H])[H])nc2sc(=O)n(C([H])([H])C([H])([H])N([H])[H])c2c1[H]

$$$$
69:0:0
     RDKit          3D

 35 37  0  0  1  0  0  0  0  0999 V2000
    3.3970    0.1503   -4.7900 C   0  0  0  0  0  0  0  0  0  0  0  0
    3.7438   -0.3151   -3.5855 C   0  0  0  0  0  0  0  0  0  0  0  0
    4.1059   -1.7067   -3.3970 C   0  0  0  0  0  0  0  0  0  0  0  0
    4.1327   -2.5314   -4.3102 O   0  0  0  0  0  0  0  0  0  0  0  0
    4.5316   -2.0314   -2.1428 N   0  0  0  0  0  0  0  0  0  0  0  0
    5.3017   -3.2683   -1.9669 C   0  0  0  0  0  0  0  0  0  0  0  0
    6.0270   -3.3692   -0.5949 C   0  0  0  0  0  0  0  0  0  0  0  0
    5.0426   -3.2534    0.5812 C   0  0  1  0  0  0  0  0  0  0  0  0
    4.5841   -4.6781    1.0058 C   0  0  0  0  0  0  0  0  0  0  0  0
    4.6232   -5.8111    0.1421 C   0  0  0  0  0  0  0  0  0  0  0  0
    4.2639   -7.0606    0.5188 N   0  0  0  0  0  0  0  0  0  0  0  0
    3.8596   -7.1901    1.7932 C   0  0  0  0  0  0  0  0  0  0  0  0
    3.7968   -6.0952    2.6735 C   0  0  0  0  0  0  0  0  0  0  0  0
    4.1298   -4.8320    2.2849 N   0  0  0  0  0  0  0  0  0  0  0  0
    5.4677   -2.2824    1.7134 C   0  0  0  0  0  0  0  0  0  0  0  0
    4.0786   -1.6532    1.6868 C   0  0  0  0  0  0  0  0  0  0  0  0
    3.9297   -2.2302    0.2812 C   0  0  1  0  0  0  0  0  0  0  0  0
    4.1827   -1.2929   -0.9095 C   0  0  0  0  0  0  0  0  0  0  0  0
    3.3950   -0.4881   -5.6687 H   0  0  0  0  0  0  0  0  0  0  0  0
    3.1033    1.1833   -4.9049 H   0  0  0  0  0  0  0  0  0  0  0  0
    3.7365    0.4194   -2.7888 H   0  0  0  0  0  0  0  0  0  0  0  0
    4.5585   -4.0495   -2.1213 H   0  0  0  0  0  0  0  0  0  0  0  0
    6.0335   -3.4086   -2.7664 H   0  0  0  0  0  0  0  0  0  0  0  0
    6.6649   -4.2516   -0.5076 H   0  0  0  0  0  0  0  0  0  0  0  0
    6.7288   -2.5478   -0.5574 H   0  0  0  0  0  0  0  0  0  0  0  0
    4.9909   -5.8144   -0.8720 H   0  0  0  0  0  0  0  0  0  0  0  0
    3.5887   -8.1933    2.0824 H   0  0  0  0  0  0  0  0  0  0  0  0
    3.4824   -6.2378    3.6978 H   0  0  0  0  0  0  0  0  0  0  0  0
    5.7516   -2.7375    2.6652 H   0  0  0  0  0  0  0  0  0  0  0  0
    6.2066   -1.5524    1.3918 H   0  0  0  0  0  0  0  0  0  0  0  0
    3.3843   -2.1069    2.3995 H   0  0  0  0  0  0  0  0  0  0  0  0
    4.0722   -0.5617    1.7258 H   0  0  0  0  0  0  0  0  0  0  0  0
    2.9779   -2.7463    0.2018 H   0  0  0  0  0  0  0  0  0  0  0  0
    5.0107   -0.6245   -0.7096 H   0  0  0  0  0  0  0  0  0  0  0  0
    3.3011   -0.6592   -1.0273 H   0  0  0  0  0  0  0  0  0  0  0  0
  1  2  2  0
  1 19  1  0
  1 20  1  0
  2  3  1  0
  2 21  1  0
  3  4  2  0
  3  5  1  0
  5 18  1  0
  5  6  1  0
  6  7  1  0
  6 22  1  0
  6 23  1  0
  7  8  1  0
  7 24  1  0
  7 25  1  0
  8 17  1  0
  8  9  1  1
  8 15  1  0
  9 14  1  0
  9 10  2  0
 10 11  1  0
 10 26  1  0
 11 12  2  0
 12 13  1  0
 12 27  1  0
 13 14  2  0
 13 28  1  0
 15 16  1  0
 15 29  1  0
 15 30  1  0
 16 17  1  0
 16 31  1  0
 16 32  1  0
 17 18  1  0
 17 33  1  6
 18 34  1  0
 18 35  1  0
M  END
>  <i_m_ct_stereo_status>  (182) 
1

>  <s_m_source_file>  (182) 
/var/tmp/pbs.5076255.sched01/tmp25xsusm8/82mdre8bl4.sdf

>  <i_m_source_file_index>  (182) 
13

>  <i_lp_mmshare_version>  (182) 
48012

>  <i_f3d_flags>  (182) 
0

>  <s_epik_input>  (182) 
W0NIMl09W0NIXUMoPU8pTihbQ0gyXVtDSDJdMSlbQ0gyXVtDQEhdKFtDSDJdW0NIMl0yKVtDQEBdMTJjM1tjSF1uW2NIXVtjSF1uMw==

>  <s_epik_cmdline>  (182) 
J2VwaWtfcHl0aG9uJywgJy1waHQnLCAnMi4wJywgJy1waCcsICc3LjAnLCAnLXRuJywgJzgnLCAnLW1hJywgJzIwMCcsICctaW1hZScsICc8aW5maWxlLm1hZT4nLCAnLW9tYWUnLCAnPG91dGZpbGUubWFlPic=

>  <r_lp_tautomer_probability>  (182) 
1

>  <r_epik_Ionization_Penalty>  (182) 
2.14218e-05

>  <r_epik_Ionization_Penalty_Charging>  (182) 
0

>  <r_epik_Ionization_Penalty_Neutral>  (182) 
2.14218e-05

>  <r_epik_State_Penalty>  (182) 
-0

>  <r_epik_Charging_Adjusted_Penalty>  (182) 
0

>  <i_epik_Tot_Q>  (182) 
0

>  <i_epik_Tot_abs_Q>  (182) 
0

>  <s_lp_Force_Field>  (182) 
OPLS3e

>  <r_lp_Energy>  (182) 
36.7534

>  <b_lp_Chiralities_Consistent>  (182) 
1

>  <s_lp_Variant>  (182) 
69:0-1

>  <s_i_glide_gridfile>  (182) 
pfpi4k_grid

>  <i_i_glide_lignum>  (182) 
13

>  <i_i_glide_rotatable_bonds>  (182) 
3

>  <r_i_docking_score>  (182) 
-4.21825

>  <r_i_glide_ligand_efficiency>  (182) 
-0.234347

>  <r_i_glide_ligand_efficiency_sa>  (182) 
-0.614163

>  <r_i_glide_ligand_efficiency_ln>  (182) 
-1.08428

>  <r_i_glide_gscore>  (182) 
-4.21825

>  <r_i_glide_lipo>  (182) 
-0.828681

>  <r_i_glide_hbond>  (182) 
-0.319736

>  <r_i_glide_metal>  (182) 
-0

>  <r_i_glide_rewards>  (182) 
-1.97599

>  <r_i_glide_evdw>  (182) 
-27.4755

>  <r_i_glide_ecoul>  (182) 
-3.95523

>  <r_i_glide_erotb>  (182) 
0.879951

>  <r_i_glide_esite>  (182) 
-0.00673116

>  <r_i_glide_emodel>  (182) 
-37.2395

>  <r_i_glide_energy>  (182) 
-31.4307

>  <r_i_glide_einternal>  (182) 
4.43448

>  <r_i_glide_intrahb_reward>  (182) 
-0

>  <i_i_glide_confnum>  (182) 
5

>  <i_i_glide_posenum>  (182) 
22

>  <r_i_glide_eff_state_penalty>  (182) 
0

>  <ligand_id>  (182) 
69

>  <original_smiles>  (182) 
C=CC(=O)N1CCC2(c3cnccn3)CCC2C1

>  <smiles>  (182) 
[H]C([H])=C([H])C(=O)N1C([H])([H])C([H])([H])C2(c3nc([H])c([H])nc3[H])C([H])([H])C([H])([H])C2([H])C1([H])[H]

$$$$
69:0:1
     RDKit          3D

 35 37  0  0  1  0  0  0  0  0999 V2000
    2.6222   -8.2406    1.9819 C   0  0  0  0  0  0  0  0  0  0  0  0
    3.2625   -7.0936    1.6973 C   0  0  0  0  0  0  0  0  0  0  0  0
    2.5618   -5.9581    1.0924 C   0  0  0  0  0  0  0  0  0  0  0  0
    1.3307   -5.9226    0.9738 O   0  0  0  0  0  0  0  0  0  0  0  0
    3.3380   -4.9105    0.7038 N   0  0  0  0  0  0  0  0  0  0  0  0
    2.6663   -3.6477    0.3107 C   0  0  0  0  0  0  0  0  0  0  0  0
    3.5868   -2.4163    0.3271 C   0  0  0  0  0  0  0  0  0  0  0  0
    4.8149   -2.6158   -0.5641 C   0  0  1  0  0  0  0  0  0  0  0  0
    4.5100   -2.0391   -1.9561 C   0  0  0  0  0  0  0  0  0  0  0  0
    4.1470   -2.8312   -3.0799 C   0  0  0  0  0  0  0  0  0  0  0  0
    3.8147   -2.2860   -4.2742 N   0  0  0  0  0  0  0  0  0  0  0  0
    3.8003   -0.9411   -4.3301 C   0  0  0  0  0  0  0  0  0  0  0  0
    4.1365   -0.1453   -3.2196 C   0  0  0  0  0  0  0  0  0  0  0  0
    4.5099   -0.6848   -2.0394 N   0  0  0  0  0  0  0  0  0  0  0  0
    6.1837   -2.2174    0.0387 C   0  0  0  0  0  0  0  0  0  0  0  0
    6.7663   -3.5322   -0.4534 C   0  0  0  0  0  0  0  0  0  0  0  0
    5.3381   -4.0701   -0.5020 C   0  0  1  0  0  0  0  0  0  0  0  0
    4.8174   -4.9162    0.6524 C   0  0  0  0  0  0  0  0  0  0  0  0
    1.5691   -8.3748    1.7858 H   0  0  0  0  0  0  0  0  0  0  0  0
    3.1647   -9.0671    2.4210 H   0  0  0  0  0  0  0  0  0  0  0  0
    4.3080   -7.0713    1.9557 H   0  0  0  0  0  0  0  0  0  0  0  0
    2.2529   -3.7749   -0.6906 H   0  0  0  0  0  0  0  0  0  0  0  0
    1.8332   -3.4327    0.9796 H   0  0  0  0  0  0  0  0  0  0  0  0
    3.0345   -1.5059    0.0804 H   0  0  0  0  0  0  0  0  0  0  0  0
    3.9078   -2.2797    1.3600 H   0  0  0  0  0  0  0  0  0  0  0  0
    4.0922   -3.9075   -3.0522 H   0  0  0  0  0  0  0  0  0  0  0  0
    3.5519   -0.4946   -5.2816 H   0  0  0  0  0  0  0  0  0  0  0  0
    4.1331    0.9345   -3.2943 H   0  0  0  0  0  0  0  0  0  0  0  0
    6.6446   -1.3218   -0.3722 H   0  0  0  0  0  0  0  0  0  0  0  0
    6.1714   -2.1990    1.1277 H   0  0  0  0  0  0  0  0  0  0  0  0
    7.2179   -3.4540   -1.4434 H   0  0  0  0  0  0  0  0  0  0  0  0
    7.4036   -4.0565    0.2605 H   0  0  0  0  0  0  0  0  0  0  0  0
    5.1897   -4.6063   -1.4384 H   0  0  0  0  0  0  0  0  0  0  0  0
    5.1781   -4.5327    1.6095 H   0  0  0  0  0  0  0  0  0  0  0  0
    5.2505   -5.9098    0.5345 H   0  0  0  0  0  0  0  0  0  0  0  0
  1  2  2  0
  1 19  1  0
  1 20  1  0
  2  3  1  0
  2 21  1  0
  3  4  2  0
  3  5  1  0
  5 18  1  0
  5  6  1  0
  6  7  1  0
  6 22  1  0
  6 23  1  0
  7  8  1  0
  7 24  1  0
  7 25  1  0
  8 17  1  0
  8  9  1  6
  8 15  1  0
  9 14  1  0
  9 10  2  0
 10 11  1  0
 10 26  1  0
 11 12  2  0
 12 13  1  0
 12 27  1  0
 13 14  2  0
 13 28  1  0
 15 16  1  0
 15 29  1  0
 15 30  1  0
 16 17  1  0
 16 31  1  0
 16 32  1  0
 17 18  1  0
 17 33  1  6
 18 34  1  0
 18 35  1  0
M  END
>  <i_m_ct_stereo_status>  (183) 
1

>  <s_m_source_file>  (183) 
/var/tmp/pbs.5076255.sched01/tmp25xsusm8/82mdre8bl4.sdf

>  <i_m_source_file_index>  (183) 
13

>  <i_lp_mmshare_version>  (183) 
48012

>  <i_f3d_flags>  (183) 
0

>  <s_epik_input>  (183) 
W0NIMl09W0NIXUMoPU8pTihbQ0gyXVtDSDJdMSlbQ0gyXVtDQEhdKFtDSDJdW0NIMl0yKVtDQEBdMTJjM1tjSF1uW2NIXVtjSF1uMw==

>  <s_epik_cmdline>  (183) 
J2VwaWtfcHl0aG9uJywgJy1waHQnLCAnMi4wJywgJy1waCcsICc3LjAnLCAnLXRuJywgJzgnLCAnLW1hJywgJzIwMCcsICctaW1hZScsICc8aW5maWxlLm1hZT4nLCAnLW9tYWUnLCAnPG91dGZpbGUubWFlPic=

>  <r_lp_tautomer_probability>  (183) 
1

>  <r_epik_Ionization_Penalty>  (183) 
2.14218e-05

>  <r_epik_Ionization_Penalty_Charging>  (183) 
0

>  <r_epik_Ionization_Penalty_Neutral>  (183) 
2.14218e-05

>  <r_epik_State_Penalty>  (183) 
-0

>  <r_epik_Charging_Adjusted_Penalty>  (183) 
0

>  <i_epik_Tot_Q>  (183) 
0

>  <i_epik_Tot_abs_Q>  (183) 
0

>  <s_lp_Force_Field>  (183) 
OPLS3e

>  <r_lp_Energy>  (183) 
36.7534

>  <b_lp_Chiralities_Consistent>  (183) 
1

>  <s_lp_Variant>  (183) 
69:0-1

>  <s_i_glide_gridfile>  (183) 
pfpi4k_grid

>  <i_i_glide_lignum>  (183) 
13

>  <i_i_glide_rotatable_bonds>  (183) 
3

>  <r_i_docking_score>  (183) 
-4.12724

>  <r_i_glide_ligand_efficiency>  (183) 
-0.229291

>  <r_i_glide_ligand_efficiency_sa>  (183) 
-0.600913

>  <r_i_glide_ligand_efficiency_ln>  (183) 
-1.06089

>  <r_i_glide_gscore>  (183) 
-4.12724

>  <r_i_glide_lipo>  (183) 
-0.619118

>  <r_i_glide_hbond>  (183) 
-0.48

>  <r_i_glide_metal>  (183) 
-0

>  <r_i_glide_rewards>  (183) 
-1.7502

>  <r_i_glide_evdw>  (183) 
-25.6226

>  <r_i_glide_ecoul>  (183) 
-5.65861

>  <r_i_glide_erotb>  (183) 
0.879951

>  <r_i_glide_esite>  (183) 
-0.0279564

>  <r_i_glide_emodel>  (183) 
-39.4316

>  <r_i_glide_energy>  (183) 
-31.2812

>  <r_i_glide_einternal>  (183) 
0.0615468

>  <r_i_glide_intrahb_reward>  (183) 
-0

>  <i_i_glide_confnum>  (183) 
5

>  <i_i_glide_posenum>  (183) 
14

>  <r_i_glide_eff_state_penalty>  (183) 
0

>  <ligand_id>  (183) 
69

>  <original_smiles>  (183) 
C=CC(=O)N1CCC2(c3cnccn3)CCC2C1

>  <smiles>  (183) 
[H]C([H])=C([H])C(=O)N1C([H])([H])C([H])([H])C2(c3nc([H])c([H])nc3[H])C([H])([H])C([H])([H])C2([H])C1([H])[H]

$$$$
69:0:2
     RDKit          3D

 35 37  0  0  1  0  0  0  0  0999 V2000
    3.4052    0.2330   -4.7355 C   0  0  0  0  0  0  0  0  0  0  0  0
    3.8161   -0.2900   -3.5718 C   0  0  0  0  0  0  0  0  0  0  0  0
    3.9595   -1.7323   -3.3872 C   0  0  0  0  0  0  0  0  0  0  0  0
    3.8081   -2.5281   -4.3145 O   0  0  0  0  0  0  0  0  0  0  0  0
    4.3442   -2.1598   -2.1563 N   0  0  0  0  0  0  0  0  0  0  0  0
    4.7144   -3.5868   -1.9843 C   0  0  0  0  0  0  0  0  0  0  0  0
    5.5311   -3.8786   -0.7130 C   0  0  0  0  0  0  0  0  0  0  0  0
    4.8058   -3.4036    0.5525 C   0  0  1  0  0  0  0  0  0  0  0  0
    4.0023   -4.5871    1.1198 C   0  0  0  0  0  0  0  0  0  0  0  0
    2.6166   -4.7720    0.8727 C   0  0  0  0  0  0  0  0  0  0  0  0
    1.9291   -5.8468    1.3308 N   0  0  0  0  0  0  0  0  0  0  0  0
    2.6435   -6.7516    2.0303 C   0  0  0  0  0  0  0  0  0  0  0  0
    4.0286   -6.5924    2.2629 C   0  0  0  0  0  0  0  0  0  0  0  0
    4.7109   -5.5184    1.8054 N   0  0  0  0  0  0  0  0  0  0  0  0
    5.6433   -2.6004    1.5710 C   0  0  0  0  0  0  0  0  0  0  0  0
    4.5295   -1.5665    1.6593 C   0  0  0  0  0  0  0  0  0  0  0  0
    4.0491   -2.0783    0.3079 C   0  0  1  0  0  0  0  0  0  0  0  0
    4.4438   -1.3073   -0.9471 C   0  0  0  0  0  0  0  0  0  0  0  0
    3.1579   -0.3787   -5.5901 H   0  0  0  0  0  0  0  0  0  0  0  0
    3.3118    1.3065   -4.8311 H   0  0  0  0  0  0  0  0  0  0  0  0
    4.0459    0.4338   -2.8021 H   0  0  0  0  0  0  0  0  0  0  0  0
    3.7895   -4.1626   -1.9416 H   0  0  0  0  0  0  0  0  0  0  0  0
    5.2716   -3.9579   -2.8470 H   0  0  0  0  0  0  0  0  0  0  0  0
    5.7980   -4.9363   -0.6551 H   0  0  0  0  0  0  0  0  0  0  0  0
    6.4747   -3.3451   -0.8204 H   0  0  0  0  0  0  0  0  0  0  0  0
    2.0373   -4.0780    0.2802 H   0  0  0  0  0  0  0  0  0  0  0  0
    2.1099   -7.6051    2.4155 H   0  0  0  0  0  0  0  0  0  0  0  0
    4.5830   -7.3312    2.8241 H   0  0  0  0  0  0  0  0  0  0  0  0
    5.8721   -3.1088    2.5048 H   0  0  0  0  0  0  0  0  0  0  0  0
    6.5331   -2.1550    1.1253 H   0  0  0  0  0  0  0  0  0  0  0  0
    3.8175   -1.7668    2.4600 H   0  0  0  0  0  0  0  0  0  0  0  0
    4.8606   -0.5242    1.6448 H   0  0  0  0  0  0  0  0  0  0  0  0
    2.9682   -2.1997    0.3366 H   0  0  0  0  0  0  0  0  0  0  0  0
    5.4726   -0.9503   -0.8805 H   0  0  0  0  0  0  0  0  0  0  0  0
    3.8077   -0.4304   -0.9741 H   0  0  0  0  0  0  0  0  0  0  0  0
  1  2  2  0
  1 19  1  0
  1 20  1  0
  2  3  1  0
  2 21  1  0
  3  4  2  0
  3  5  1  0
  5 18  1  0
  5  6  1  0
  6  7  1  0
  6 22  1  0
  6 23  1  0
  7  8  1  0
  7 24  1  0
  7 25  1  0
  8 17  1  0
  8  9  1  1
  8 15  1  0
  9 14  1  0
  9 10  2  0
 10 11  1  0
 10 26  1  0
 11 12  2  0
 12 13  1  0
 12 27  1  0
 13 14  2  0
 13 28  1  0
 15 16  1  0
 15 29  1  0
 15 30  1  0
 16 17  1  0
 16 31  1  0
 16 32  1  0
 17 18  1  0
 17 33  1  1
 18 34  1  0
 18 35  1  0
M  END
>  <i_m_ct_stereo_status>  (184) 
1

>  <s_m_source_file>  (184) 
/var/tmp/pbs.5076255.sched01/tmp25xsusm8/82mdre8bl4.sdf

>  <i_m_source_file_index>  (184) 
13

>  <i_lp_mmshare_version>  (184) 
48012

>  <i_f3d_flags>  (184) 
0

>  <s_epik_input>  (184) 
W0NIMl09W0NIXUMoPU8pTihbQ0gyXVtDSDJdMSlbQ0gyXVtDQEhdKFtDSDJdW0NIMl0yKVtDQEBdMTJjM1tjSF1uW2NIXVtjSF1uMw==

>  <s_epik_cmdline>  (184) 
J2VwaWtfcHl0aG9uJywgJy1waHQnLCAnMi4wJywgJy1waCcsICc3LjAnLCAnLXRuJywgJzgnLCAnLW1hJywgJzIwMCcsICctaW1hZScsICc8aW5maWxlLm1hZT4nLCAnLW9tYWUnLCAnPG91dGZpbGUubWFlPic=

>  <r_lp_tautomer_probability>  (184) 
1

>  <r_epik_Ionization_Penalty>  (184) 
2.14218e-05

>  <r_epik_Ionization_Penalty_Charging>  (184) 
0

>  <r_epik_Ionization_Penalty_Neutral>  (184) 
2.14218e-05

>  <r_epik_State_Penalty>  (184) 
-0

>  <r_epik_Charging_Adjusted_Penalty>  (184) 
0

>  <i_epik_Tot_Q>  (184) 
0

>  <i_epik_Tot_abs_Q>  (184) 
0

>  <s_lp_Force_Field>  (184) 
OPLS3e

>  <r_lp_Energy>  (184) 
36.7534

>  <b_lp_Chiralities_Consistent>  (184) 
1

>  <s_lp_Variant>  (184) 
69:0-1

>  <s_i_glide_gridfile>  (184) 
pfpi4k_grid

>  <i_i_glide_lignum>  (184) 
13

>  <i_i_glide_rotatable_bonds>  (184) 
3

>  <r_i_docking_score>  (184) 
-3.97196

>  <r_i_glide_ligand_efficiency>  (184) 
-0.220665

>  <r_i_glide_ligand_efficiency_sa>  (184) 
-0.578305

>  <r_i_glide_ligand_efficiency_ln>  (184) 
-1.02097

>  <r_i_glide_gscore>  (184) 
-3.97196

>  <r_i_glide_lipo>  (184) 
-0.534828

>  <r_i_glide_hbond>  (184) 
-0.327878

>  <r_i_glide_metal>  (184) 
-0

>  <r_i_glide_rewards>  (184) 
-1.96947

>  <r_i_glide_evdw>  (184) 
-27.2578

>  <r_i_glide_ecoul>  (184) 
-4.37557

>  <r_i_glide_erotb>  (184) 
0.879951

>  <r_i_glide_esite>  (184) 
-0.000508336

>  <r_i_glide_emodel>  (184) 
-39.4307

>  <r_i_glide_energy>  (184) 
-31.6334

>  <r_i_glide_einternal>  (184) 
0.0804002

>  <r_i_glide_intrahb_reward>  (184) 
-0

>  <i_i_glide_confnum>  (184) 
5

>  <i_i_glide_posenum>  (184) 
15

>  <r_i_glide_eff_state_penalty>  (184) 
0

>  <ligand_id>  (184) 
69

>  <original_smiles>  (184) 
C=CC(=O)N1CCC2(c3cnccn3)CCC2C1

>  <smiles>  (184) 
[H]C([H])=C([H])C(=O)N1C([H])([H])C([H])([H])C2(c3nc([H])c([H])nc3[H])C([H])([H])C([H])([H])C2([H])C1([H])[H]

$$$$
70:0:0
     RDKit          3D

 66 71  0  0  1  0  0  0  0  0999 V2000
    5.8380   -1.6224   -0.4974 C   0  0  0  0  0  0  0  0  0  0  0  0
    4.9247   -2.6161    0.2477 C   0  0  2  0  0  0  0  0  0  0  0  0
    3.7433   -3.1123   -0.5980 C   0  0  1  0  0  0  0  0  0  0  0  0
    4.1735   -3.4933   -1.8905 O   0  0  0  0  0  0  0  0  0  0  0  0
    3.1311   -4.3300    0.0962 C   0  0  0  0  0  0  0  0  0  0  0  0
    2.6256   -3.9650    1.5048 C   0  0  1  0  0  0  0  0  0  0  0  0
    1.9530   -5.1083    1.9965 O   0  0  0  0  0  0  0  0  0  0  0  0
    3.6728   -3.3072    2.4954 C   0  0  2  0  0  0  0  0  0  0  0  0
    4.7460   -4.3282    3.0110 C   0  0  0  0  0  0  0  0  0  0  0  0
    5.5014   -4.9795    2.2921 O   0  0  0  0  0  0  0  0  0  0  0  0
    4.6943   -4.4871    4.5614 C   0  0  1  0  0  0  0  0  0  0  0  0
    5.2942   -5.8015    5.0872 C   0  0  0  0  0  0  0  0  0  0  0  0
    5.0715   -3.2195    5.3838 C   0  0  0  0  0  0  0  0  0  0  0  0
    4.1292   -2.1616    4.7646 C   0  0  2  0  0  0  0  0  0  0  0  0
    3.9769   -0.6426    5.2009 C   0  0  1  0  0  0  0  0  0  0  0  0
    4.8568   -0.3466    6.4351 C   0  0  0  0  0  0  0  0  0  0  0  0
    4.4494    0.2689    4.0122 C   0  0  1  0  0  0  0  0  0  0  0  0
    5.8069    0.1274    3.6287 O   0  0  0  0  0  0  0  0  0  0  0  0
    3.4473    0.0321    2.8612 C   0  0  1  0  0  0  0  0  0  0  0  0
    2.2006    0.8992    3.0368 C   0  0  0  0  0  0  0  0  0  0  0  0
    1.8221    0.9027    4.5549 C   0  0  1  0  0  0  0  0  0  0  0  0
    0.4270    0.9969    4.7505 O   0  0  0  0  0  0  0  0  0  0  0  0
    2.4944   -0.1734    5.5130 C   0  0  1  0  0  0  0  0  0  0  0  0
    1.6327   -1.1419    6.1169 O   0  0  0  0  0  0  0  0  0  0  0  0
    1.0864   -2.2494    5.5441 C   0  0  0  0  0  0  0  0  0  0  0  0
    0.2391   -2.9266    6.1305 O   0  0  0  0  0  0  0  0  0  0  0  0
    1.5257   -2.6755    4.1333 C   0  0  1  0  0  0  0  0  0  0  0  0
    0.8993   -1.8524    3.1876 O   0  0  0  0  0  0  0  0  0  0  0  0
    3.0589   -3.0013    3.9628 C   0  0  1  0  0  0  0  0  0  0  0  0
    3.2102   -4.3590    4.7113 C   0  0  0  0  0  0  0  0  0  0  0  0
    3.8334   -0.6627    1.5394 C   0  0  0  0  0  0  0  0  0  0  0  0
    4.4478   -2.1274    1.6583 C   0  0  2  0  0  0  0  0  0  0  0  0
    5.2880   -0.7815   -0.9187 H   0  0  0  0  0  0  0  0  0  0  0  0
    6.3506   -2.1215   -1.3218 H   0  0  0  0  0  0  0  0  0  0  0  0
    6.6125   -1.2363    0.1656 H   0  0  0  0  0  0  0  0  0  0  0  0
    5.5768   -3.4731    0.3855 H   0  0  0  0  0  0  0  0  0  0  0  0
    2.9886   -2.3303   -0.7131 H   0  0  0  0  0  0  0  0  0  0  0  0
    3.5202   -4.0655   -2.2713 H   0  0  0  0  0  0  0  0  0  0  0  0
    2.2994   -4.7022   -0.5029 H   0  0  0  0  0  0  0  0  0  0  0  0
    3.8552   -5.1428    0.1352 H   0  0  0  0  0  0  0  0  0  0  0  0
    1.8485   -3.2265    1.3301 H   0  0  0  0  0  0  0  0  0  0  0  0
    2.5896   -5.8012    2.1274 H   0  0  0  0  0  0  0  0  0  0  0  0
    4.8890   -6.0633    6.0631 H   0  0  0  0  0  0  0  0  0  0  0  0
    6.3745   -5.7258    5.1907 H   0  0  0  0  0  0  0  0  0  0  0  0
    5.0909   -6.6374    4.4195 H   0  0  0  0  0  0  0  0  0  0  0  0
    4.8547   -3.3610    6.4464 H   0  0  0  0  0  0  0  0  0  0  0  0
    6.1332   -2.9783    5.2969 H   0  0  0  0  0  0  0  0  0  0  0  0
    4.8923   -1.9708    4.0483 H   0  0  0  0  0  0  0  0  0  0  0  0
    4.8265    0.7138    6.6896 H   0  0  0  0  0  0  0  0  0  0  0  0
    5.9032   -0.6076    6.2699 H   0  0  0  0  0  0  0  0  0  0  0  0
    4.5080   -0.9001    7.3079 H   0  0  0  0  0  0  0  0  0  0  0  0
    4.3899    1.3135    4.3134 H   0  0  0  0  0  0  0  0  0  0  0  0
    6.3550    0.3677    4.3602 H   0  0  0  0  0  0  0  0  0  0  0  0
    2.9355   -0.8311    3.1415 H   0  0  0  0  0  0  0  0  0  0  0  0
    2.3877    1.9150    2.6871 H   0  0  0  0  0  0  0  0  0  0  0  0
    1.3849    0.5171    2.4201 H   0  0  0  0  0  0  0  0  0  0  0  0
    2.1948    1.8611    4.9152 H   0  0  0  0  0  0  0  0  0  0  0  0
    0.0957    1.6899    4.1981 H   0  0  0  0  0  0  0  0  0  0  0  0
    2.6293    0.4484    6.3947 H   0  0  0  0  0  0  0  0  0  0  0  0
    1.0102   -3.6251    3.9772 H   0  0  0  0  0  0  0  0  0  0  0  0
    1.1233   -2.1546    2.3219 H   0  0  0  0  0  0  0  0  0  0  0  0
    2.6699   -5.2036    4.2860 H   0  0  0  0  0  0  0  0  0  0  0  0
    2.9065   -4.3139    5.7610 H   0  0  0  0  0  0  0  0  0  0  0  0
    2.9542   -0.6893    0.8927 H   0  0  0  0  0  0  0  0  0  0  0  0
    4.5409    0.0069    1.0509 H   0  0  0  0  0  0  0  0  0  0  0  0
    5.4180   -1.9697    2.1267 H   0  0  0  0  0  0  0  0  0  0  0  0
  1  2  1  0
  1 33  1  0
  1 34  1  0
  1 35  1  0
  2 32  1  0
  2  3  1  0
  2 36  1  1
  3  4  1  0
  3  5  1  0
  3 37  1  6
  4 38  1  0
  5  6  1  0
  5 39  1  0
  5 40  1  0
  6  7  1  0
  6  8  1  0
  6 41  1  6
  7 42  1  0
  8 29  1  0
  8 32  1  0
  8  9  1  1
  9 10  2  0
  9 11  1  0
 11 30  1  0
 11 12  1  1
 11 13  1  0
 12 43  1  0
 12 44  1  0
 12 45  1  0
 13 14  1  0
 13 46  1  0
 13 47  1  0
 14 29  1  0
 14 15  1  0
 14 48  1  6
 15 23  1  0
 15 16  1  1
 15 17  1  0
 16 49  1  0
 16 50  1  0
 16 51  1  0
 17 18  1  0
 17 19  1  0
 17 52  1  1
 18 53  1  0
 19 20  1  0
 19 31  1  0
 19 54  1  1
 20 21  1  0
 20 55  1  0
 20 56  1  0
 21 22  1  0
 21 23  1  0
 21 57  1  1
 22 58  1  0
 23 24  1  0
 23 59  1  1
 24 25  1  0
 25 26  2  0
 25 27  1  0
 27 28  1  0
 27 29  1  0
 27 60  1  6
 28 61  1  0
 29 30  1  1
 30 62  1  0
 30 63  1  0
 31 32  1  0
 31 64  1  0
 31 65  1  0
 32 66  1  1
M  END
>  <i_m_ct_stereo_status>  (185) 
1

>  <s_m_source_file>  (185) 
/var/tmp/pbs.5076255.sched01/tmp25xsusm8/82mdre8bl4.sdf

>  <i_m_source_file_index>  (185) 
14

>  <i_lp_mmshare_version>  (185) 
48012

>  <i_f3d_flags>  (185) 
0

>  <s_epik_input>  (185) 
W09IXVtDQEBIXTFbQ0gyXVtDQEhdKFtPSF0pW0NAQEhdKFtDSDNdKVtDQEhdMltDSDJdW0NAQEhdKFtDQEBIXTNbT0hdKVtDSDJdW0NAQEhdKFtPSF0pW0NAQEhdKE9DKD1PKVtDQEhdNFtPSF0pW0NAQF0zKFtDSDNdKVtDQEhdKFtDQF00NVtDQEBdMTI2KVtDSDJdW0NAQF0oQzY9TykoW0NIM10pW0NIMl01

>  <s_epik_cmdline>  (185) 
J2VwaWtfcHl0aG9uJywgJy1waHQnLCAnMi4wJywgJy1waCcsICc3LjAnLCAnLXRuJywgJzgnLCAnLW1hJywgJzIwMCcsICctaW1hZScsICc8aW5maWxlLm1hZT4nLCAnLW9tYWUnLCAnPG91dGZpbGUubWFlPic=

>  <r_lp_tautomer_probability>  (185) 
1

>  <r_epik_Ionization_Penalty>  (185) 
6.31792e-05

>  <r_epik_Ionization_Penalty_Charging>  (185) 
0

>  <r_epik_Ionization_Penalty_Neutral>  (185) 
6.31792e-05

>  <r_epik_State_Penalty>  (185) 
-0

>  <r_epik_Charging_Adjusted_Penalty>  (185) 
0

>  <i_epik_Tot_Q>  (185) 
0

>  <i_epik_Tot_abs_Q>  (185) 
0

>  <s_epik_Chemistry_Notes>  (185) 
This compound has an ester and may undergo hydrolysis at high or low pH.

>  <s_lp_Force_Field>  (185) 
OPLS3e

>  <r_lp_Energy>  (185) 
154.019

>  <b_lp_Chiralities_Consistent>  (185) 
1

>  <s_lp_Variant>  (185) 
70:0-1

>  <s_i_glide_gridfile>  (185) 
pfpi4k_grid

>  <i_i_glide_lignum>  (185) 
14

>  <i_i_glide_rotatable_bonds>  (185) 
5

>  <r_i_docking_score>  (185) 
-2.74209

>  <r_i_glide_ligand_efficiency>  (185) 
-0.0856902

>  <r_i_glide_ligand_efficiency_sa>  (185) 
-0.272049

>  <r_i_glide_ligand_efficiency_ln>  (185) 
-0.614028

>  <r_i_glide_gscore>  (185) 
-2.74209

>  <r_i_glide_lipo>  (185) 
-0.127023

>  <r_i_glide_hbond>  (185) 
-0.232324

>  <r_i_glide_metal>  (185) 
-0

>  <r_i_glide_rewards>  (185) 
-0.353503

>  <r_i_glide_evdw>  (185) 
-24.6887

>  <r_i_glide_ecoul>  (185) 
-5.29571

>  <r_i_glide_erotb>  (185) 
0

>  <r_i_glide_esite>  (185) 
-0.000444615

>  <r_i_glide_emodel>  (185) 
-34.9711

>  <r_i_glide_energy>  (185) 
-29.9844

>  <r_i_glide_einternal>  (185) 
1.53598

>  <r_i_glide_intrahb_reward>  (185) 
-0

>  <i_i_glide_confnum>  (185) 
2

>  <i_i_glide_posenum>  (185) 
7

>  <r_i_glide_eff_state_penalty>  (185) 
0

>  <ligand_id>  (185) 
70

>  <original_smiles>  (185) 
CC1C(O)CC(O)C23C(=O)C4(C)CC5C6(C)C(O)C(CC(O)C6OC(=O)C(O)C52C4)CC13

>  <smiles>  (185) 
[H]OC1([H])C(=O)OC2([H])C([H])(O[H])C([H])([H])C3([H])C([H])([H])C4([H])C([H])(C([H])([H])[H])C([H])(O[H])C([H])([H])C([H])(O[H])C45C(=O)C4(C([H])([H])[H])C([H])([H])C([H])(C2(C([H])([H])[H])C3([H])O[H])C15C4([H])[H]

$$$$
70:0:1
     RDKit          3D

 66 71  0  0  1  0  0  0  0  0999 V2000
    5.7297   -1.0575   -0.0872 C   0  0  0  0  0  0  0  0  0  0  0  0
    4.8919   -2.1767    0.5612 C   0  0  2  0  0  0  0  0  0  0  0  0
    3.8155   -2.7559   -0.3712 C   0  0  1  0  0  0  0  0  0  0  0  0
    4.3414   -3.0605   -1.6479 O   0  0  0  0  0  0  0  0  0  0  0  0
    3.2935   -4.0558    0.2383 C   0  0  0  0  0  0  0  0  0  0  0  0
    2.6792   -3.8103    1.6279 C   0  0  1  0  0  0  0  0  0  0  0  0
    2.1058   -5.0401    2.0313 O   0  0  0  0  0  0  0  0  0  0  0  0
    3.6008   -3.0970    2.7016 C   0  0  2  0  0  0  0  0  0  0  0  0
    4.7479   -4.0252    3.2323 C   0  0  0  0  0  0  0  0  0  0  0  0
    5.6008   -4.5634    2.5275 O   0  0  0  0  0  0  0  0  0  0  0  0
    4.6373   -4.2626    4.7683 C   0  0  1  0  0  0  0  0  0  0  0  0
    5.3446   -5.5324    5.2710 C   0  0  0  0  0  0  0  0  0  0  0  0
    4.8367   -3.0032    5.6630 C   0  0  0  0  0  0  0  0  0  0  0  0
    3.8195   -2.0217    5.0382 C   0  0  2  0  0  0  0  0  0  0  0  0
    3.4803   -0.5515    5.5319 C   0  0  1  0  0  0  0  0  0  0  0  0
    4.2618   -0.2245    6.8239 C   0  0  0  0  0  0  0  0  0  0  0  0
    3.9116    0.4621    4.4132 C   0  0  1  0  0  0  0  0  0  0  0  0
    5.2910    0.4864    4.1007 O   0  0  0  0  0  0  0  0  0  0  0  0
    3.0030    0.1805    3.1961 C   0  0  1  0  0  0  0  0  0  0  0  0
    1.6644    0.9026    3.3398 C   0  0  0  0  0  0  0  0  0  0  0  0
    1.2110    0.7930    4.8328 C   0  0  1  0  0  0  0  0  0  0  0  0
   -0.1935    0.7281    4.9531 O   0  0  0  0  0  0  0  0  0  0  0  0
    1.9447   -0.2537    5.7803 C   0  0  1  0  0  0  0  0  0  0  0  0
    1.1607   -1.3329    6.2946 O   0  0  0  0  0  0  0  0  0  0  0  0
    0.7639   -2.4596    5.6451 C   0  0  0  0  0  0  0  0  0  0  0  0
   -0.0379   -3.2450    6.1551 O   0  0  0  0  0  0  0  0  0  0  0  0
    1.3180   -2.7698    4.2451 C   0  0  1  0  0  0  0  0  0  0  0  0
    0.6529   -1.9759    3.2963 O   0  0  0  0  0  0  0  0  0  0  0  0
    2.8847   -2.9267    4.1436 C   0  0  1  0  0  0  0  0  0  0  0  0
    3.1418   -4.2955    4.8413 C   0  0  0  0  0  0  0  0  0  0  0  0
    3.5297   -0.4073    1.8688 C   0  0  0  0  0  0  0  0  0  0  0  0
    4.2898   -1.8051    1.9606 C   0  0  2  0  0  0  0  0  0  0  0  0
    5.1128   -0.2614   -0.5018 H   0  0  0  0  0  0  0  0  0  0  0  0
    6.3290   -1.4629   -0.9028 H   0  0  0  0  0  0  0  0  0  0  0  0
    6.4269   -0.6226    0.6310 H   0  0  0  0  0  0  0  0  0  0  0  0
    5.6241   -2.9669    0.7011 H   0  0  0  0  0  0  0  0  0  0  0  0
    2.9984   -2.0421   -0.5010 H   0  0  0  0  0  0  0  0  0  0  0  0
    3.6583   -3.4787   -2.1579 H   0  0  0  0  0  0  0  0  0  0  0  0
    2.5406   -4.4831   -0.4249 H   0  0  0  0  0  0  0  0  0  0  0  0
    4.0972   -4.7893    0.2830 H   0  0  0  0  0  0  0  0  0  0  0  0
    1.8400   -3.1469    1.4392 H   0  0  0  0  0  0  0  0  0  0  0  0
    2.8024   -5.6710    2.1614 H   0  0  0  0  0  0  0  0  0  0  0  0
    4.9194   -5.8818    6.2102 H   0  0  0  0  0  0  0  0  0  0  0  0
    6.4043   -5.3511    5.4385 H   0  0  0  0  0  0  0  0  0  0  0  0
    5.2654   -6.3519    4.5578 H   0  0  0  0  0  0  0  0  0  0  0  0
    4.5824   -3.2176    6.7049 H   0  0  0  0  0  0  0  0  0  0  0  0
    5.8694   -2.6454    5.6470 H   0  0  0  0  0  0  0  0  0  0  0  0
    4.5949   -1.7157    4.3770 H   0  0  0  0  0  0  0  0  0  0  0  0
    4.1062    0.8138    7.1207 H   0  0  0  0  0  0  0  0  0  0  0  0
    5.3374   -0.3627    6.7012 H   0  0  0  0  0  0  0  0  0  0  0  0
    3.9315   -0.8533    7.6510 H   0  0  0  0  0  0  0  0  0  0  0  0
    3.7282    1.4775    4.7613 H   0  0  0  0  0  0  0  0  0  0  0  0
    5.4607    1.2812    3.6149 H   0  0  0  0  0  0  0  0  0  0  0  0
    2.5707   -0.7446    3.4079 H   0  0  0  0  0  0  0  0  0  0  0  0
    1.7584    1.9485    3.0447 H   0  0  0  0  0  0  0  0  0  0  0  0
    0.9267    0.4670    2.6625 H   0  0  0  0  0  0  0  0  0  0  0  0
    1.4604    1.7660    5.2546 H   0  0  0  0  0  0  0  0  0  0  0  0
   -0.5700    1.3885    4.3895 H   0  0  0  0  0  0  0  0  0  0  0  0
    1.9708    0.3369    6.6928 H   0  0  0  0  0  0  0  0  0  0  0  0
    0.9170   -3.7608    4.0222 H   0  0  0  0  0  0  0  0  0  0  0  0
    0.9501   -2.2136    2.4361 H   0  0  0  0  0  0  0  0  0  0  0  0
    2.7171   -5.1706    4.3508 H   0  0  0  0  0  0  0  0  0  0  0  0
    2.7826   -4.3346    5.8730 H   0  0  0  0  0  0  0  0  0  0  0  0
    2.6931   -0.4948    1.1721 H   0  0  0  0  0  0  0  0  0  0  0  0
    4.1849    0.3536    1.4461 H   0  0  0  0  0  0  0  0  0  0  0  0
    5.2129   -1.5699    2.4899 H   0  0  0  0  0  0  0  0  0  0  0  0
  1  2  1  0
  1 33  1  0
  1 34  1  0
  1 35  1  0
  2 32  1  0
  2  3  1  0
  2 36  1  1
  3  4  1  0
  3  5  1  0
  3 37  1  6
  4 38  1  0
  5  6  1  0
  5 39  1  0
  5 40  1  0
  6  7  1  0
  6  8  1  0
  6 41  1  6
  7 42  1  0
  8 29  1  0
  8 32  1  0
  8  9  1  1
  9 10  2  0
  9 11  1  0
 11 30  1  0
 11 12  1  1
 11 13  1  0
 12 43  1  0
 12 44  1  0
 12 45  1  0
 13 14  1  0
 13 46  1  0
 13 47  1  0
 14 29  1  0
 14 15  1  0
 14 48  1  6
 15 23  1  0
 15 16  1  1
 15 17  1  0
 16 49  1  0
 16 50  1  0
 16 51  1  0
 17 18  1  0
 17 19  1  0
 17 52  1  1
 18 53  1  0
 19 20  1  0
 19 31  1  0
 19 54  1  1
 20 21  1  0
 20 55  1  0
 20 56  1  0
 21 22  1  0
 21 23  1  0
 21 57  1  1
 22 58  1  0
 23 24  1  0
 23 59  1  1
 24 25  1  0
 25 26  2  0
 25 27  1  0
 27 28  1  0
 27 29  1  0
 27 60  1  6
 28 61  1  0
 29 30  1  1
 30 62  1  0
 30 63  1  0
 31 32  1  0
 31 64  1  0
 31 65  1  0
 32 66  1  1
M  END
>  <i_m_ct_stereo_status>  (186) 
1

>  <s_m_source_file>  (186) 
/var/tmp/pbs.5076255.sched01/tmp25xsusm8/82mdre8bl4.sdf

>  <i_m_source_file_index>  (186) 
14

>  <i_lp_mmshare_version>  (186) 
48012

>  <i_f3d_flags>  (186) 
0

>  <s_epik_input>  (186) 
W09IXVtDQEBIXTFbQ0gyXVtDQEhdKFtPSF0pW0NAQEhdKFtDSDNdKVtDQEhdMltDSDJdW0NAQEhdKFtDQEBIXTNbT0hdKVtDSDJdW0NAQEhdKFtPSF0pW0NAQEhdKE9DKD1PKVtDQEhdNFtPSF0pW0NAQF0zKFtDSDNdKVtDQEhdKFtDQF00NVtDQEBdMTI2KVtDSDJdW0NAQF0oQzY9TykoW0NIM10pW0NIMl01

>  <s_epik_cmdline>  (186) 
J2VwaWtfcHl0aG9uJywgJy1waHQnLCAnMi4wJywgJy1waCcsICc3LjAnLCAnLXRuJywgJzgnLCAnLW1hJywgJzIwMCcsICctaW1hZScsICc8aW5maWxlLm1hZT4nLCAnLW9tYWUnLCAnPG91dGZpbGUubWFlPic=

>  <r_lp_tautomer_probability>  (186) 
1

>  <r_epik_Ionization_Penalty>  (186) 
6.31792e-05

>  <r_epik_Ionization_Penalty_Charging>  (186) 
0

>  <r_epik_Ionization_Penalty_Neutral>  (186) 
6.31792e-05

>  <r_epik_State_Penalty>  (186) 
-0

>  <r_epik_Charging_Adjusted_Penalty>  (186) 
0

>  <i_epik_Tot_Q>  (186) 
0

>  <i_epik_Tot_abs_Q>  (186) 
0

>  <s_epik_Chemistry_Notes>  (186) 
This compound has an ester and may undergo hydrolysis at high or low pH.

>  <s_lp_Force_Field>  (186) 
OPLS3e

>  <r_lp_Energy>  (186) 
154.019

>  <b_lp_Chiralities_Consistent>  (186) 
1

>  <s_lp_Variant>  (186) 
70:0-1

>  <s_i_glide_gridfile>  (186) 
pfpi4k_grid

>  <i_i_glide_lignum>  (186) 
14

>  <i_i_glide_rotatable_bonds>  (186) 
5

>  <r_i_docking_score>  (186) 
-2.52917

>  <r_i_glide_ligand_efficiency>  (186) 
-0.0790365

>  <r_i_glide_ligand_efficiency_sa>  (186) 
-0.250925

>  <r_i_glide_ligand_efficiency_ln>  (186) 
-0.56635

>  <r_i_glide_gscore>  (186) 
-2.52917

>  <r_i_glide_lipo>  (186) 
-0.0640594

>  <r_i_glide_hbond>  (186) 
-0.281397

>  <r_i_glide_metal>  (186) 
-0

>  <r_i_glide_rewards>  (186) 
-0.359733

>  <r_i_glide_evdw>  (186) 
-24.2147

>  <r_i_glide_ecoul>  (186) 
-4.05801

>  <r_i_glide_erotb>  (186) 
0

>  <r_i_glide_esite>  (186) 
-0.00454399

>  <r_i_glide_emodel>  (186) 
-32.8863

>  <r_i_glide_energy>  (186) 
-28.2727

>  <r_i_glide_einternal>  (186) 
1.35788

>  <r_i_glide_intrahb_reward>  (186) 
-0

>  <i_i_glide_confnum>  (186) 
2

>  <i_i_glide_posenum>  (186) 
4

>  <r_i_glide_eff_state_penalty>  (186) 
0

>  <ligand_id>  (186) 
70

>  <original_smiles>  (186) 
CC1C(O)CC(O)C23C(=O)C4(C)CC5C6(C)C(O)C(CC(O)C6OC(=O)C(O)C52C4)CC13

>  <smiles>  (186) 
[H]OC1([H])C(=O)OC2([H])C([H])(O[H])C([H])([H])C3([H])C([H])([H])C4([H])C([H])(C([H])([H])[H])C([H])(O[H])C([H])([H])C([H])(O[H])C45C(=O)C4(C([H])([H])[H])C([H])([H])C([H])(C2(C([H])([H])[H])C3([H])O[H])C15C4([H])[H]

$$$$
70:0:2
     RDKit          3D

 66 71  0  0  1  0  0  0  0  0999 V2000
    6.5818   -1.9795   -0.2085 C   0  0  0  0  0  0  0  0  0  0  0  0
    5.4927   -2.8643    0.4308 C   0  0  2  0  0  0  0  0  0  0  0  0
    4.4496   -3.3813   -0.5730 C   0  0  1  0  0  0  0  0  0  0  0  0
    5.0639   -3.9082   -1.7302 O   0  0  0  0  0  0  0  0  0  0  0  0
    3.6526   -4.5003    0.0928 C   0  0  0  0  0  0  0  0  0  0  0  0
    2.9211   -3.9896    1.3464 C   0  0  1  0  0  0  0  0  0  0  0  0
    2.1172   -5.0644    1.7955 O   0  0  0  0  0  0  0  0  0  0  0  0
    3.8133   -3.2956    2.4563 C   0  0  2  0  0  0  0  0  0  0  0  0
    4.7136   -4.3103    3.2409 C   0  0  0  0  0  0  0  0  0  0  0  0
    5.5552   -5.0447    2.7282 O   0  0  0  0  0  0  0  0  0  0  0  0
    4.3776   -4.3276    4.7630 C   0  0  1  0  0  0  0  0  0  0  0  0
    4.7974   -5.6142    5.4935 C   0  0  0  0  0  0  0  0  0  0  0  0
    4.6769   -3.0093    5.5354 C   0  0  0  0  0  0  0  0  0  0  0  0
    3.9196   -1.9741    4.6723 C   0  0  2  0  0  0  0  0  0  0  0  0
    3.7771   -0.4206    4.9511 C   0  0  1  0  0  0  0  0  0  0  0  0
    4.4374   -0.0520    6.2957 C   0  0  0  0  0  0  0  0  0  0  0  0
    4.5041    0.3590    3.8033 C   0  0  1  0  0  0  0  0  0  0  0  0
    5.8991    0.1384    3.6872 O   0  0  0  0  0  0  0  0  0  0  0  0
    3.7165    0.0596    2.5076 C   0  0  1  0  0  0  0  0  0  0  0  0
    2.5136    0.9922    2.3788 C   0  0  0  0  0  0  0  0  0  0  0  0
    1.8722    1.1528    3.7918 C   0  0  1  0  0  0  0  0  0  0  0  0
    0.4732    1.2803    3.6839 O   0  0  0  0  0  0  0  0  0  0  0  0
    2.2937    0.1423    4.9444 C   0  0  1  0  0  0  0  0  0  0  0  0
    1.2773   -0.7246    5.4483 O   0  0  0  0  0  0  0  0  0  0  0  0
    0.7848   -1.8541    4.8732 C   0  0  0  0  0  0  0  0  0  0  0  0
   -0.1818   -2.4475    5.3522 O   0  0  0  0  0  0  0  0  0  0  0  0
    1.4510   -2.4253    3.6131 C   0  0  1  0  0  0  0  0  0  0  0  0
    1.0433   -1.6965    2.4819 O   0  0  0  0  0  0  0  0  0  0  0  0
    2.9630   -2.8342    3.7558 C   0  0  1  0  0  0  0  0  0  0  0  0
    2.8999   -4.1250    4.6265 C   0  0  0  0  0  0  0  0  0  0  0  0
    4.2996   -0.7585    1.3400 C   0  0  0  0  0  0  0  0  0  0  0  0
    4.7981   -2.2321    1.6856 C   0  0  2  0  0  0  0  0  0  0  0  0
    6.1590   -1.1584   -0.7862 H   0  0  0  0  0  0  0  0  0  0  0  0
    7.2068   -2.5680   -0.8827 H   0  0  0  0  0  0  0  0  0  0  0  0
    7.2475   -1.5669    0.5503 H   0  0  0  0  0  0  0  0  0  0  0  0
    6.0617   -3.7328    0.7510 H   0  0  0  0  0  0  0  0  0  0  0  0
    3.7754   -2.5799   -0.8851 H   0  0  0  0  0  0  0  0  0  0  0  0
    4.4077   -4.3779   -2.2319 H   0  0  0  0  0  0  0  0  0  0  0  0
    2.9212   -4.8885   -0.6156 H   0  0  0  0  0  0  0  0  0  0  0  0
    4.3122   -5.3355    0.3303 H   0  0  0  0  0  0  0  0  0  0  0  0
    2.2256   -3.2427    0.9697 H   0  0  0  0  0  0  0  0  0  0  0  0
    2.6869   -5.7603    2.1008 H   0  0  0  0  0  0  0  0  0  0  0  0
    4.2094   -5.7704    6.3966 H   0  0  0  0  0  0  0  0  0  0  0  0
    5.8436   -5.5750    5.7882 H   0  0  0  0  0  0  0  0  0  0  0  0
    4.6703   -6.4968    4.8693 H   0  0  0  0  0  0  0  0  0  0  0  0
    4.2652   -3.0492    6.5480 H   0  0  0  0  0  0  0  0  0  0  0  0
    5.7485   -2.8167    5.6233 H   0  0  0  0  0  0  0  0  0  0  0  0
    4.8086   -1.8768    4.0946 H   0  0  0  0  0  0  0  0  0  0  0  0
    4.4219    1.0277    6.4504 H   0  0  0  0  0  0  0  0  0  0  0  0
    5.4834   -0.3642    6.3421 H   0  0  0  0  0  0  0  0  0  0  0  0
    3.9077   -0.5084    7.1327 H   0  0  0  0  0  0  0  0  0  0  0  0
    4.4425    1.4254    4.0178 H   0  0  0  0  0  0  0  0  0  0  0  0
    6.0557   -0.7510    3.4040 H   0  0  0  0  0  0  0  0  0  0  0  0
    3.1117   -0.7529    2.7516 H   0  0  0  0  0  0  0  0  0  0  0  0
    2.8220    1.9699    2.0109 H   0  0  0  0  0  0  0  0  0  0  0  0
    1.8036    0.6077    1.6407 H   0  0  0  0  0  0  0  0  0  0  0  0
    2.2169    2.1308    4.1348 H   0  0  0  0  0  0  0  0  0  0  0  0
    0.2793    1.9515    3.0421 H   0  0  0  0  0  0  0  0  0  0  0  0
    2.3103    0.8365    5.7813 H   0  0  0  0  0  0  0  0  0  0  0  0
    0.9197   -3.3668    3.4580 H   0  0  0  0  0  0  0  0  0  0  0  0
    1.4786   -0.8589    2.4610 H   0  0  0  0  0  0  0  0  0  0  0  0
    2.3975   -4.9798    4.1778 H   0  0  0  0  0  0  0  0  0  0  0  0
    2.4166   -3.9710    5.5966 H   0  0  0  0  0  0  0  0  0  0  0  0
    3.5490   -0.8071    0.5473 H   0  0  0  0  0  0  0  0  0  0  0  0
    5.1181   -0.1626    0.9358 H   0  0  0  0  0  0  0  0  0  0  0  0
    5.6775   -2.0827    2.3089 H   0  0  0  0  0  0  0  0  0  0  0  0
  1  2  1  0
  1 33  1  0
  1 34  1  0
  1 35  1  0
  2 32  1  0
  2  3  1  0
  2 36  1  1
  3  4  1  0
  3  5  1  0
  3 37  1  6
  4 38  1  0
  5  6  1  0
  5 39  1  0
  5 40  1  0
  6  7  1  0
  6  8  1  0
  6 41  1  6
  7 42  1  0
  8 29  1  0
  8 32  1  0
  8  9  1  1
  9 10  2  0
  9 11  1  0
 11 30  1  0
 11 12  1  1
 11 13  1  0
 12 43  1  0
 12 44  1  0
 12 45  1  0
 13 14  1  0
 13 46  1  0
 13 47  1  0
 14 29  1  0
 14 15  1  0
 14 48  1  6
 15 23  1  0
 15 16  1  1
 15 17  1  0
 16 49  1  0
 16 50  1  0
 16 51  1  0
 17 18  1  0
 17 19  1  0
 17 52  1  1
 18 53  1  0
 19 20  1  0
 19 31  1  0
 19 54  1  1
 20 21  1  0
 20 55  1  0
 20 56  1  0
 21 22  1  0
 21 23  1  0
 21 57  1  1
 22 58  1  0
 23 24  1  0
 23 59  1  1
 24 25  1  0
 25 26  2  0
 25 27  1  0
 27 28  1  0
 27 29  1  0
 27 60  1  6
 28 61  1  0
 29 30  1  1
 30 62  1  0
 30 63  1  0
 31 32  1  0
 31 64  1  0
 31 65  1  0
 32 66  1  1
M  END
>  <i_m_ct_stereo_status>  (187) 
1

>  <s_m_source_file>  (187) 
/var/tmp/pbs.5076255.sched01/tmp25xsusm8/82mdre8bl4.sdf

>  <i_m_source_file_index>  (187) 
14

>  <i_lp_mmshare_version>  (187) 
48012

>  <i_f3d_flags>  (187) 
0

>  <s_epik_input>  (187) 
W09IXVtDQEBIXTFbQ0gyXVtDQEhdKFtPSF0pW0NAQEhdKFtDSDNdKVtDQEhdMltDSDJdW0NAQEhdKFtDQEBIXTNbT0hdKVtDSDJdW0NAQEhdKFtPSF0pW0NAQEhdKE9DKD1PKVtDQEhdNFtPSF0pW0NAQF0zKFtDSDNdKVtDQEhdKFtDQF00NVtDQEBdMTI2KVtDSDJdW0NAQF0oQzY9TykoW0NIM10pW0NIMl01

>  <s_epik_cmdline>  (187) 
J2VwaWtfcHl0aG9uJywgJy1waHQnLCAnMi4wJywgJy1waCcsICc3LjAnLCAnLXRuJywgJzgnLCAnLW1hJywgJzIwMCcsICctaW1hZScsICc8aW5maWxlLm1hZT4nLCAnLW9tYWUnLCAnPG91dGZpbGUubWFlPic=

>  <r_lp_tautomer_probability>  (187) 
1

>  <r_epik_Ionization_Penalty>  (187) 
6.31792e-05

>  <r_epik_Ionization_Penalty_Charging>  (187) 
0

>  <r_epik_Ionization_Penalty_Neutral>  (187) 
6.31792e-05

>  <r_epik_State_Penalty>  (187) 
-0

>  <r_epik_Charging_Adjusted_Penalty>  (187) 
0

>  <i_epik_Tot_Q>  (187) 
0

>  <i_epik_Tot_abs_Q>  (187) 
0

>  <s_epik_Chemistry_Notes>  (187) 
This compound has an ester and may undergo hydrolysis at high or low pH.

>  <s_lp_Force_Field>  (187) 
OPLS3e

>  <r_lp_Energy>  (187) 
154.019

>  <b_lp_Chiralities_Consistent>  (187) 
1

>  <s_lp_Variant>  (187) 
70:0-1

>  <s_i_glide_gridfile>  (187) 
pfpi4k_grid

>  <i_i_glide_lignum>  (187) 
14

>  <i_i_glide_rotatable_bonds>  (187) 
5

>  <r_i_docking_score>  (187) 
-2.49012

>  <r_i_glide_ligand_efficiency>  (187) 
-0.0778162

>  <r_i_glide_ligand_efficiency_sa>  (187) 
-0.247051

>  <r_i_glide_ligand_efficiency_ln>  (187) 
-0.557606

>  <r_i_glide_gscore>  (187) 
-2.49012

>  <r_i_glide_lipo>  (187) 
-0.303141

>  <r_i_glide_hbond>  (187) 
-0.131874

>  <r_i_glide_metal>  (187) 
-0

>  <r_i_glide_rewards>  (187) 
-0.350431

>  <r_i_glide_evdw>  (187) 
-25.5556

>  <r_i_glide_ecoul>  (187) 
-2.84175

>  <r_i_glide_erotb>  (187) 
0

>  <r_i_glide_esite>  (187) 
-0.000629635

>  <r_i_glide_emodel>  (187) 
-32.482

>  <r_i_glide_energy>  (187) 
-28.3974

>  <r_i_glide_einternal>  (187) 
2.29654

>  <r_i_glide_intrahb_reward>  (187) 
-0

>  <i_i_glide_confnum>  (187) 
2

>  <i_i_glide_posenum>  (187) 
29

>  <r_i_glide_eff_state_penalty>  (187) 
0

>  <ligand_id>  (187) 
70

>  <original_smiles>  (187) 
CC1C(O)CC(O)C23C(=O)C4(C)CC5C6(C)C(O)C(CC(O)C6OC(=O)C(O)C52C4)CC13

>  <smiles>  (187) 
[H]OC1([H])C(=O)OC2([H])C([H])(O[H])C([H])([H])C3([H])C([H])([H])C4([H])C([H])(C([H])([H])[H])C([H])(O[H])C([H])([H])C([H])(O[H])C45C(=O)C4(C([H])([H])[H])C([H])([H])C([H])(C2(C([H])([H])[H])C3([H])O[H])C15C4([H])[H]

$$$$
71:0:0
     RDKit          3D

 49 52  0  0  1  0  0  0  0  0999 V2000
    2.4176   -5.4532    0.3987 C   0  0  0  0  0  0  0  0  0  0  0  0
    3.7620   -4.7932    0.0400 C   0  0  2  0  0  0  0  0  0  0  0  0
    4.9620   -5.7942   -0.0934 C   0  0  0  0  0  0  0  0  0  0  0  0
    6.1945   -5.6349    0.8540 C   0  0  0  0  0  0  0  0  0  0  0  0
    6.3296   -4.2538    1.5554 C   0  0  1  0  0  0  0  0  0  0  0  0
    7.1073   -3.2093    0.6605 C   0  0  1  0  0  0  0  0  0  0  0  0
    6.8025   -3.3696   -0.8128 C   0  0  0  0  0  0  0  0  0  0  0  0
    5.5953   -2.9944   -1.2553 C   0  0  0  0  0  0  0  0  0  0  0  0
    5.1728   -3.2076   -2.7080 C   0  0  0  0  0  0  0  0  0  0  0  0
    4.1235   -2.2192   -3.1828 C   0  0  0  0  0  0  0  0  0  0  0  0
    4.0462   -1.9584   -4.3795 O   0  0  0  0  0  0  0  0  0  0  0  0
    3.2066   -1.6405   -2.2116 C   0  0  0  0  0  0  0  0  0  0  0  0
    3.4445   -1.7198   -0.8925 C   0  0  0  0  0  0  0  0  0  0  0  0
    4.6426   -2.3610   -0.2128 C   0  0  2  0  0  0  0  0  0  0  0  0
    5.5085   -1.2054    0.3960 C   0  0  1  0  0  0  0  0  0  0  0  0
    4.7702   -0.1046    1.1814 C   0  0  0  0  0  0  0  0  0  0  0  0
    6.8523   -1.7213    0.9970 C   0  0  0  0  0  0  0  0  0  0  0  0
    4.0775   -3.4651    0.8036 C   0  0  2  0  0  0  0  0  0  0  0  0
    4.9186   -3.8288    2.0821 C   0  0  0  0  0  0  0  0  0  0  0  0
    4.2907   -4.9948    2.9195 C   0  0  0  0  0  0  0  0  0  0  0  0
    4.9063   -2.7545    3.2086 C   0  0  0  0  0  0  0  0  0  0  0  0
    2.3535   -5.8926    1.3927 H   0  0  0  0  0  0  0  0  0  0  0  0
    2.1744   -6.2388   -0.3126 H   0  0  0  0  0  0  0  0  0  0  0  0
    1.6383   -4.7021    0.3104 H   0  0  0  0  0  0  0  0  0  0  0  0
    3.5343   -4.5026   -0.9822 H   0  0  0  0  0  0  0  0  0  0  0  0
    4.6016   -6.8236   -0.0281 H   0  0  0  0  0  0  0  0  0  0  0  0
    5.3291   -5.7180   -1.1147 H   0  0  0  0  0  0  0  0  0  0  0  0
    6.1540   -6.4147    1.6097 H   0  0  0  0  0  0  0  0  0  0  0  0
    7.1114   -5.8698    0.3070 H   0  0  0  0  0  0  0  0  0  0  0  0
    6.9604   -4.4300    2.4248 H   0  0  0  0  0  0  0  0  0  0  0  0
    8.1699   -3.4073    0.7695 H   0  0  0  0  0  0  0  0  0  0  0  0
    7.5413   -3.8363   -1.4537 H   0  0  0  0  0  0  0  0  0  0  0  0
    6.0488   -3.1367   -3.3527 H   0  0  0  0  0  0  0  0  0  0  0  0
    4.7713   -4.2153   -2.8218 H   0  0  0  0  0  0  0  0  0  0  0  0
    2.3223   -1.1515   -2.5878 H   0  0  0  0  0  0  0  0  0  0  0  0
    2.7243   -1.2727   -0.2156 H   0  0  0  0  0  0  0  0  0  0  0  0
    5.8484   -0.6416   -0.4777 H   0  0  0  0  0  0  0  0  0  0  0  0
    3.9823   -0.4612    1.8411 H   0  0  0  0  0  0  0  0  0  0  0  0
    4.3029    0.6072    0.4980 H   0  0  0  0  0  0  0  0  0  0  0  0
    5.4864    0.4534    1.7795 H   0  0  0  0  0  0  0  0  0  0  0  0
    6.9926   -1.5056    2.0502 H   0  0  0  0  0  0  0  0  0  0  0  0
    7.6565   -1.1375    0.5549 H   0  0  0  0  0  0  0  0  0  0  0  0
    3.1331   -3.0724    1.1813 H   0  0  0  0  0  0  0  0  0  0  0  0
    3.2766   -4.7491    3.2355 H   0  0  0  0  0  0  0  0  0  0  0  0
    4.8748   -5.1918    3.8194 H   0  0  0  0  0  0  0  0  0  0  0  0
    4.2228   -5.9572    2.4191 H   0  0  0  0  0  0  0  0  0  0  0  0
    3.8993   -2.6337    3.6098 H   0  0  0  0  0  0  0  0  0  0  0  0
    5.2080   -1.7581    2.9547 H   0  0  0  0  0  0  0  0  0  0  0  0
    5.5516   -3.0513    4.0355 H   0  0  0  0  0  0  0  0  0  0  0  0
  1  2  1  0
  1 22  1  0
  1 23  1  0
  1 24  1  0
  2 18  1  0
  2  3  1  0
  2 25  1  6
  3  4  1  0
  3 26  1  0
  3 27  1  0
  4  5  1  0
  4 28  1  0
  4 29  1  0
  5 19  1  0
  5  6  1  0
  5 30  1  1
  6 17  1  0
  6  7  1  0
  6 31  1  6
  7  8  2  0
  7 32  1  0
  8 14  1  0
  8  9  1  0
  9 10  1  0
  9 33  1  0
  9 34  1  0
 10 11  2  0
 10 12  1  0
 12 13  2  0
 12 35  1  0
 14 13  1  6
 13 36  1  0
 14 15  1  0
 14 18  1  0
 15 16  1  0
 15 17  1  0
 15 37  1  6
 16 38  1  0
 16 39  1  0
 16 40  1  0
 17 41  1  0
 17 42  1  0
 18 19  1  0
 18 43  1  1
 19 20  1  0
 19 21  1  0
 20 44  1  0
 20 45  1  0
 20 46  1  0
 21 47  1  0
 21 48  1  0
 21 49  1  0
M  END
>  <i_m_ct_stereo_status>  (188) 
1

>  <s_m_source_file>  (188) 
/var/tmp/pbs.5076255.sched01/tmp25xsusm8/82mdre8bl4.sdf

>  <i_m_source_file_index>  (188) 
15

>  <i_lp_mmshare_version>  (188) 
48012

>  <i_f3d_flags>  (188) 
1

>  <s_epik_input>  (188) 
W0NIM11DMShbQ0gzXSlbQ0BASF0yW0NASF0oW0NIM10pW0NIMl1bQ0gyXVtDQEhdMVtDSF0oW0NIMl1bQ0BASF0zW0NIM10pW0NIXT1DKFtDQEBdMjM0KVtDSDJdQyg9TylbQ0hdPVtDSF00

>  <s_epik_cmdline>  (188) 
J2VwaWtfcHl0aG9uJywgJy1waHQnLCAnMi4wJywgJy1waCcsICc3LjAnLCAnLXRuJywgJzgnLCAnLW1hJywgJzIwMCcsICctaW1hZScsICc8aW5maWxlLm1hZT4nLCAnLW9tYWUnLCAnPG91dGZpbGUubWFlPic=

>  <r_lp_tautomer_probability>  (188) 
1

>  <r_epik_Ionization_Penalty>  (188) 
0

>  <r_epik_Ionization_Penalty_Charging>  (188) 
0

>  <r_epik_Ionization_Penalty_Neutral>  (188) 
0

>  <r_epik_State_Penalty>  (188) 
-0

>  <r_epik_Charging_Adjusted_Penalty>  (188) 
0

>  <i_epik_Tot_Q>  (188) 
0

>  <i_epik_Tot_abs_Q>  (188) 
0

>  <s_lp_Force_Field>  (188) 
OPLS3e

>  <r_lp_Energy>  (188) 
98.7575

>  <b_lp_Chiralities_Consistent>  (188) 
1

>  <s_lp_Variant>  (188) 
71:0-1

>  <s_i_glide_gridfile>  (188) 
pfpi4k_grid

>  <i_i_glide_lignum>  (188) 
15

>  <i_i_glide_rotatable_bonds>  (188) 
0

>  <r_i_docking_score>  (188) 
-4.62123

>  <r_i_glide_ligand_efficiency>  (188) 
-0.220059

>  <r_i_glide_ligand_efficiency_sa>  (188) 
-0.607125

>  <r_i_glide_ligand_efficiency_ln>  (188) 
-1.14259

>  <r_i_glide_gscore>  (188) 
-4.62123

>  <r_i_glide_lipo>  (188) 
-1.0089

>  <r_i_glide_hbond>  (188) 
-0.32

>  <r_i_glide_metal>  (188) 
-0

>  <r_i_glide_rewards>  (188) 
-1.6822

>  <r_i_glide_evdw>  (188) 
-20.928

>  <r_i_glide_ecoul>  (188) 
-3.75824

>  <r_i_glide_erotb>  (188) 
0

>  <r_i_glide_esite>  (188) 
0

>  <r_i_glide_emodel>  (188) 
-31.0434

>  <r_i_glide_energy>  (188) 
-24.6863

>  <r_i_glide_einternal>  (188) 
0

>  <r_i_glide_intrahb_reward>  (188) 
-0

>  <i_i_glide_confnum>  (188) 
1

>  <i_i_glide_posenum>  (188) 
8

>  <r_i_glide_eff_state_penalty>  (188) 
0

>  <ligand_id>  (188) 
71

>  <original_smiles>  (188) 
CC1CCC2C3C=C4CC(=O)C=CC4(C(C)C3)C1C2(C)C

>  <smiles>  (188) 
[H]C1=C([H])C23C(=C([H])C([H])(C([H])([H])C2([H])C([H])([H])[H])C2([H])C([H])([H])C([H])([H])C([H])(C([H])([H])[H])C3([H])C2(C([H])([H])[H])C([H])([H])[H])C([H])([H])C1=O

$$$$
71:0:1
     RDKit          3D

 49 52  0  0  1  0  0  0  0  0999 V2000
    3.7934   -0.9647    1.0831 C   0  0  0  0  0  0  0  0  0  0  0  0
    4.3739   -2.1490    1.8845 C   0  0  2  0  0  0  0  0  0  0  0  0
    5.9422   -2.2099    1.9001 C   0  0  0  0  0  0  0  0  0  0  0  0
    6.6767   -3.4572    1.2846 C   0  0  0  0  0  0  0  0  0  0  0  0
    5.8155   -4.7328    1.1157 C   0  0  1  0  0  0  0  0  0  0  0  0
    5.7588   -5.6171    2.4227 C   0  0  1  0  0  0  0  0  0  0  0  0
    5.7244   -4.7856    3.6900 C   0  0  0  0  0  0  0  0  0  0  0  0
    4.6102   -4.1044    3.9851 C   0  0  0  0  0  0  0  0  0  0  0  0
    4.5527   -3.1664    5.1905 C   0  0  0  0  0  0  0  0  0  0  0  0
    3.1513   -2.9659    5.7510 C   0  0  0  0  0  0  0  0  0  0  0  0
    3.0276   -2.6216    6.9264 O   0  0  0  0  0  0  0  0  0  0  0  0
    2.0064   -3.1211    4.8493 C   0  0  0  0  0  0  0  0  0  0  0  0
    2.1328   -3.6977    3.6454 C   0  0  0  0  0  0  0  0  0  0  0  0
    3.4072   -4.2905    3.0339 C   0  0  2  0  0  0  0  0  0  0  0  0
    3.2504   -5.8617    2.9777 C   0  0  1  0  0  0  0  0  0  0  0  0
    1.9043   -6.4421    2.4814 C   0  0  0  0  0  0  0  0  0  0  0  0
    4.5625   -6.5910    2.5149 C   0  0  0  0  0  0  0  0  0  0  0  0
    3.6706   -3.5279    1.6443 C   0  0  2  0  0  0  0  0  0  0  0  0
    4.4561   -4.2779    0.5138 C   0  0  0  0  0  0  0  0  0  0  0  0
    4.7014   -3.4046   -0.7682 C   0  0  0  0  0  0  0  0  0  0  0  0
    3.6604   -5.4039   -0.1458 C   0  0  0  0  0  0  0  0  0  0  0  0
    3.9727   -1.0029    0.0101 H   0  0  0  0  0  0  0  0  0  0  0  0
    4.2046   -0.0199    1.4428 H   0  0  0  0  0  0  0  0  0  0  0  0
    2.7117   -0.9156    1.2256 H   0  0  0  0  0  0  0  0  0  0  0  0
    4.0952   -1.8276    2.8836 H   0  0  0  0  0  0  0  0  0  0  0  0
    6.3628   -1.3004    1.4606 H   0  0  0  0  0  0  0  0  0  0  0  0
    6.2181   -2.1447    2.9470 H   0  0  0  0  0  0  0  0  0  0  0  0
    7.1169   -3.1792    0.3241 H   0  0  0  0  0  0  0  0  0  0  0  0
    7.5519   -3.7221    1.8679 H   0  0  0  0  0  0  0  0  0  0  0  0
    6.3153   -5.3545    0.3677 H   0  0  0  0  0  0  0  0  0  0  0  0
    6.6770   -6.2003    2.4704 H   0  0  0  0  0  0  0  0  0  0  0  0
    6.6139   -4.7221    4.2990 H   0  0  0  0  0  0  0  0  0  0  0  0
    5.2055   -3.5444    5.9745 H   0  0  0  0  0  0  0  0  0  0  0  0
    4.9408   -2.1922    4.9026 H   0  0  0  0  0  0  0  0  0  0  0  0
    1.0544   -2.7337    5.1871 H   0  0  0  0  0  0  0  0  0  0  0  0
    1.2503   -3.7611    3.0214 H   0  0  0  0  0  0  0  0  0  0  0  0
    3.2073   -6.1463    4.0306 H   0  0  0  0  0  0  0  0  0  0  0  0
    1.5098   -5.9341    1.6031 H   0  0  0  0  0  0  0  0  0  0  0  0
    1.1396   -6.3610    3.2551 H   0  0  0  0  0  0  0  0  0  0  0  0
    2.0012   -7.5029    2.2462 H   0  0  0  0  0  0  0  0  0  0  0  0
    4.4779   -7.2074    1.6225 H   0  0  0  0  0  0  0  0  0  0  0  0
    4.8028   -7.3400    3.2698 H   0  0  0  0  0  0  0  0  0  0  0  0
    2.6899   -3.3190    1.2153 H   0  0  0  0  0  0  0  0  0  0  0  0
    3.7611   -3.0376   -1.1799 H   0  0  0  0  0  0  0  0  0  0  0  0
    5.1956   -3.9791   -1.5552 H   0  0  0  0  0  0  0  0  0  0  0  0
    5.3255   -2.5265   -0.6358 H   0  0  0  0  0  0  0  0  0  0  0  0
    2.8061   -4.9928   -0.6870 H   0  0  0  0  0  0  0  0  0  0  0  0
    3.2401   -6.1885    0.4447 H   0  0  0  0  0  0  0  0  0  0  0  0
    4.3014   -5.9202   -0.8577 H   0  0  0  0  0  0  0  0  0  0  0  0
  1  2  1  0
  1 22  1  0
  1 23  1  0
  1 24  1  0
  2 18  1  0
  2  3  1  0
  2 25  1  1
  3  4  1  0
  3 26  1  0
  3 27  1  0
  4  5  1  0
  4 28  1  0
  4 29  1  0
  5 19  1  0
  5  6  1  0
  5 30  1  6
  6 17  1  0
  6  7  1  0
  6 31  1  1
  7  8  2  0
  7 32  1  0
  8 14  1  0
  8  9  1  0
  9 10  1  0
  9 33  1  0
  9 34  1  0
 10 11  2  0
 10 12  1  0
 12 13  2  0
 12 35  1  0
 14 13  1  1
 13 36  1  0
 14 15  1  0
 14 18  1  0
 15 16  1  0
 15 17  1  0
 15 37  1  1
 16 38  1  0
 16 39  1  0
 16 40  1  0
 17 41  1  0
 17 42  1  0
 18 19  1  0
 18 43  1  6
 19 20  1  0
 19 21  1  0
 20 44  1  0
 20 45  1  0
 20 46  1  0
 21 47  1  0
 21 48  1  0
 21 49  1  0
M  END
>  <i_m_ct_stereo_status>  (189) 
1

>  <s_m_source_file>  (189) 
/var/tmp/pbs.5076255.sched01/tmp25xsusm8/82mdre8bl4.sdf

>  <i_m_source_file_index>  (189) 
15

>  <i_lp_mmshare_version>  (189) 
48012

>  <i_f3d_flags>  (189) 
1

>  <s_epik_input>  (189) 
W0NIM11DMShbQ0gzXSlbQ0BASF0yW0NASF0oW0NIM10pW0NIMl1bQ0gyXVtDQEhdMVtDSF0oW0NIMl1bQ0BASF0zW0NIM10pW0NIXT1DKFtDQEBdMjM0KVtDSDJdQyg9TylbQ0hdPVtDSF00

>  <s_epik_cmdline>  (189) 
J2VwaWtfcHl0aG9uJywgJy1waHQnLCAnMi4wJywgJy1waCcsICc3LjAnLCAnLXRuJywgJzgnLCAnLW1hJywgJzIwMCcsICctaW1hZScsICc8aW5maWxlLm1hZT4nLCAnLW9tYWUnLCAnPG91dGZpbGUubWFlPic=

>  <r_lp_tautomer_probability>  (189) 
1

>  <r_epik_Ionization_Penalty>  (189) 
0

>  <r_epik_Ionization_Penalty_Charging>  (189) 
0

>  <r_epik_Ionization_Penalty_Neutral>  (189) 
0

>  <r_epik_State_Penalty>  (189) 
-0

>  <r_epik_Charging_Adjusted_Penalty>  (189) 
0

>  <i_epik_Tot_Q>  (189) 
0

>  <i_epik_Tot_abs_Q>  (189) 
0

>  <s_lp_Force_Field>  (189) 
OPLS3e

>  <r_lp_Energy>  (189) 
98.7575

>  <b_lp_Chiralities_Consistent>  (189) 
1

>  <s_lp_Variant>  (189) 
71:0-1

>  <s_i_glide_gridfile>  (189) 
pfpi4k_grid

>  <i_i_glide_lignum>  (189) 
15

>  <i_i_glide_rotatable_bonds>  (189) 
0

>  <r_i_docking_score>  (189) 
-2.43009

>  <r_i_glide_ligand_efficiency>  (189) 
-0.115719

>  <r_i_glide_ligand_efficiency_sa>  (189) 
-0.319259

>  <r_i_glide_ligand_efficiency_ln>  (189) 
-0.600836

>  <r_i_glide_gscore>  (189) 
-2.43009

>  <r_i_glide_lipo>  (189) 
-0.354389

>  <r_i_glide_hbond>  (189) 
0

>  <r_i_glide_metal>  (189) 
-0

>  <r_i_glide_rewards>  (189) 
-1.46976

>  <r_i_glide_evdw>  (189) 
-9.64048

>  <r_i_glide_ecoul>  (189) 
-0.826163

>  <r_i_glide_erotb>  (189) 
0

>  <r_i_glide_esite>  (189) 
0

>  <r_i_glide_emodel>  (189) 
-13.722

>  <r_i_glide_energy>  (189) 
-10.4666

>  <r_i_glide_einternal>  (189) 
0

>  <r_i_glide_intrahb_reward>  (189) 
-0

>  <i_i_glide_confnum>  (189) 
2

>  <i_i_glide_posenum>  (189) 
16

>  <r_i_glide_eff_state_penalty>  (189) 
0

>  <ligand_id>  (189) 
71

>  <original_smiles>  (189) 
CC1CCC2C3C=C4CC(=O)C=CC4(C(C)C3)C1C2(C)C

>  <smiles>  (189) 
[H]C1=C([H])C23C(=C([H])C([H])(C([H])([H])C2([H])C([H])([H])[H])C2([H])C([H])([H])C([H])([H])C([H])(C([H])([H])[H])C3([H])C2(C([H])([H])[H])C([H])([H])[H])C([H])([H])C1=O

$$$$
71:0:2
     RDKit          3D

 49 52  0  0  1  0  0  0  0  0999 V2000
    4.2274   -0.7330   -1.6096 C   0  0  0  0  0  0  0  0  0  0  0  0
    4.6313   -1.2652   -0.2115 C   0  0  2  0  0  0  0  0  0  0  0  0
    6.0967   -0.9661    0.2860 C   0  0  0  0  0  0  0  0  0  0  0  0
    7.1182   -2.1489    0.4283 C   0  0  0  0  0  0  0  0  0  0  0  0
    6.4724   -3.5517    0.5714 C   0  0  1  0  0  0  0  0  0  0  0  0
    6.0604   -3.8964    2.0414 C   0  0  1  0  0  0  0  0  0  0  0  0
    5.5689   -2.6657    2.8026 C   0  0  0  0  0  0  0  0  0  0  0  0
    4.3651   -2.1744    2.5067 C   0  0  0  0  0  0  0  0  0  0  0  0
    3.8467   -0.8632    3.1447 C   0  0  0  0  0  0  0  0  0  0  0  0
    2.3409   -0.7906    3.1981 C   0  0  0  0  0  0  0  0  0  0  0  0
    1.7989   -0.0664    4.0589 O   0  0  0  0  0  0  0  0  0  0  0  0
    1.5803   -1.4918    2.1827 C   0  0  0  0  0  0  0  0  0  0  0  0
    2.1657   -2.4236    1.4068 C   0  0  0  0  0  0  0  0  0  0  0  0
    3.5707   -2.9485    1.4595 C   0  0  2  0  0  0  0  0  0  0  0  0
    3.5478   -4.4285    2.0264 C   0  0  1  0  0  0  0  0  0  0  0  0
    2.4838   -5.4224    1.4874 C   0  0  0  0  0  0  0  0  0  0  0  0
    4.9937   -4.9895    2.2454 C   0  0  0  0  0  0  0  0  0  0  0  0
    4.1803   -2.7396   -0.0028 C   0  0  2  0  0  0  0  0  0  0  0  0
    5.3510   -3.6512   -0.4700 C   0  0  0  0  0  0  0  0  0  0  0  0
    5.8772   -3.2691   -1.9053 C   0  0  0  0  0  0  0  0  0  0  0  0
    4.9017   -5.0742   -0.7434 C   0  0  0  0  0  0  0  0  0  0  0  0
    4.7334   -1.1268   -2.4804 H   0  0  0  0  0  0  0  0  0  0  0  0
    4.3992    0.3342   -1.6903 H   0  0  0  0  0  0  0  0  0  0  0  0
    3.1552   -0.8605   -1.7676 H   0  0  0  0  0  0  0  0  0  0  0  0
    3.9958   -0.6477    0.4120 H   0  0  0  0  0  0  0  0  0  0  0  0
    6.5397   -0.1993   -0.3281 H   0  0  0  0  0  0  0  0  0  0  0  0
    6.0456   -0.4686    1.2569 H   0  0  0  0  0  0  0  0  0  0  0  0
    7.7842   -2.1665   -0.4374 H   0  0  0  0  0  0  0  0  0  0  0  0
    7.7756   -1.9509    1.2656 H   0  0  0  0  0  0  0  0  0  0  0  0
    7.2312   -4.2867    0.3076 H   0  0  0  0  0  0  0  0  0  0  0  0
    6.9700   -4.2599    2.4849 H   0  0  0  0  0  0  0  0  0  0  0  0
    6.2136   -2.1867    3.4917 H   0  0  0  0  0  0  0  0  0  0  0  0
    4.2401   -0.7912    4.1458 H   0  0  0  0  0  0  0  0  0  0  0  0
    4.2070   -0.0156    2.5617 H   0  0  0  0  0  0  0  0  0  0  0  0
    0.5514   -1.2062    2.0282 H   0  0  0  0  0  0  0  0  0  0  0  0
    1.5958   -2.8510    0.6012 H   0  0  0  0  0  0  0  0  0  0  0  0
    3.1901   -4.2987    3.0545 H   0  0  0  0  0  0  0  0  0  0  0  0
    2.3457   -5.3824    0.4039 H   0  0  0  0  0  0  0  0  0  0  0  0
    1.5050   -5.2280    1.9341 H   0  0  0  0  0  0  0  0  0  0  0  0
    2.7481   -6.4495    1.7530 H   0  0  0  0  0  0  0  0  0  0  0  0
    5.2370   -5.9157    1.7287 H   0  0  0  0  0  0  0  0  0  0  0  0
    5.0506   -5.3079    3.2777 H   0  0  0  0  0  0  0  0  0  0  0  0
    3.3683   -2.9390   -0.7067 H   0  0  0  0  0  0  0  0  0  0  0  0
    5.0834   -3.3165   -2.6546 H   0  0  0  0  0  0  0  0  0  0  0  0
    6.6644   -3.9185   -2.2571 H   0  0  0  0  0  0  0  0  0  0  0  0
    6.3430   -2.2918   -2.0010 H   0  0  0  0  0  0  0  0  0  0  0  0
    4.2071   -4.9809   -1.5462 H   0  0  0  0  0  0  0  0  0  0  0  0
    4.3623   -5.6555   -0.0348 H   0  0  0  0  0  0  0  0  0  0  0  0
    5.7401   -5.7003   -1.0080 H   0  0  0  0  0  0  0  0  0  0  0  0
  1  2  1  0
  1 22  1  0
  1 23  1  0
  1 24  1  0
  2 18  1  0
  2  3  1  0
  2 25  1  1
  3  4  1  0
  3 26  1  0
  3 27  1  0
  4  5  1  0
  4 28  1  0
  4 29  1  0
  5 19  1  0
  5  6  1  0
  5 30  1  6
  6 17  1  0
  6  7  1  0
  6 31  1  1
  7  8  2  0
  7 32  1  0
  8 14  1  0
  8  9  1  0
  9 10  1  0
  9 33  1  0
  9 34  1  0
 10 11  2  0
 10 12  1  0
 12 13  2  0
 12 35  1  0
 14 13  1  6
 13 36  1  0
 14 15  1  0
 14 18  1  0
 15 16  1  0
 15 17  1  0
 15 37  1  1
 16 38  1  0
 16 39  1  0
 16 40  1  0
 17 41  1  0
 17 42  1  0
 18 19  1  0
 18 43  1  6
 19 20  1  0
 19 21  1  0
 20 44  1  0
 20 45  1  0
 20 46  1  0
 21 47  1  0
 21 48  1  0
 21 49  1  0
M  END
>  <i_m_ct_stereo_status>  (190) 
1

>  <s_m_source_file>  (190) 
/var/tmp/pbs.5076255.sched01/tmp25xsusm8/82mdre8bl4.sdf

>  <i_m_source_file_index>  (190) 
15

>  <i_lp_mmshare_version>  (190) 
48012

>  <i_f3d_flags>  (190) 
1

>  <s_epik_input>  (190) 
W0NIM11DMShbQ0gzXSlbQ0BASF0yW0NASF0oW0NIM10pW0NIMl1bQ0gyXVtDQEhdMVtDSF0oW0NIMl1bQ0BASF0zW0NIM10pW0NIXT1DKFtDQEBdMjM0KVtDSDJdQyg9TylbQ0hdPVtDSF00

>  <s_epik_cmdline>  (190) 
J2VwaWtfcHl0aG9uJywgJy1waHQnLCAnMi4wJywgJy1waCcsICc3LjAnLCAnLXRuJywgJzgnLCAnLW1hJywgJzIwMCcsICctaW1hZScsICc8aW5maWxlLm1hZT4nLCAnLW9tYWUnLCAnPG91dGZpbGUubWFlPic=

>  <r_lp_tautomer_probability>  (190) 
1

>  <r_epik_Ionization_Penalty>  (190) 
0

>  <r_epik_Ionization_Penalty_Charging>  (190) 
0

>  <r_epik_Ionization_Penalty_Neutral>  (190) 
0

>  <r_epik_State_Penalty>  (190) 
-0

>  <r_epik_Charging_Adjusted_Penalty>  (190) 
0

>  <i_epik_Tot_Q>  (190) 
0

>  <i_epik_Tot_abs_Q>  (190) 
0

>  <s_lp_Force_Field>  (190) 
OPLS3e

>  <r_lp_Energy>  (190) 
98.7575

>  <b_lp_Chiralities_Consistent>  (190) 
1

>  <s_lp_Variant>  (190) 
71:0-1

>  <s_i_glide_gridfile>  (190) 
pfpi4k_grid

>  <i_i_glide_lignum>  (190) 
15

>  <i_i_glide_rotatable_bonds>  (190) 
0

>  <r_i_docking_score>  (190) 
-2.31742

>  <r_i_glide_ligand_efficiency>  (190) 
-0.110353

>  <r_i_glide_ligand_efficiency_sa>  (190) 
-0.304457

>  <r_i_glide_ligand_efficiency_ln>  (190) 
-0.572978

>  <r_i_glide_gscore>  (190) 
-2.31742

>  <r_i_glide_lipo>  (190) 
-0.592838

>  <r_i_glide_hbond>  (190) 
0

>  <r_i_glide_metal>  (190) 
-0

>  <r_i_glide_rewards>  (190) 
-1.46976

>  <r_i_glide_evdw>  (190) 
-3.13693

>  <r_i_glide_ecoul>  (190) 
-0.625524

>  <r_i_glide_erotb>  (190) 
0

>  <r_i_glide_esite>  (190) 
-0.00415314

>  <r_i_glide_emodel>  (190) 
-6.04625

>  <r_i_glide_energy>  (190) 
-3.76245

>  <r_i_glide_einternal>  (190) 
0

>  <r_i_glide_intrahb_reward>  (190) 
-0

>  <i_i_glide_confnum>  (190) 
1

>  <i_i_glide_posenum>  (190) 
27

>  <r_i_glide_eff_state_penalty>  (190) 
0

>  <ligand_id>  (190) 
71

>  <original_smiles>  (190) 
CC1CCC2C3C=C4CC(=O)C=CC4(C(C)C3)C1C2(C)C

>  <smiles>  (190) 
[H]C1=C([H])C23C(=C([H])C([H])(C([H])([H])C2([H])C([H])([H])[H])C2([H])C([H])([H])C([H])([H])C([H])(C([H])([H])[H])C3([H])C2(C([H])([H])[H])C([H])([H])[H])C([H])([H])C1=O

$$$$
72:0:0
     RDKit          3D

 85 92  0  0  1  0  0  0  0  0999 V2000
    0.2731   -1.4621    9.7181 C   0  0  0  0  0  0  0  0  0  0  0  0
    1.0853   -0.4737    8.8643 C   0  0  2  0  0  0  0  0  0  0  0  0
    0.2151    0.6171    8.2004 C   0  0  0  0  0  0  0  0  0  0  0  0
   -0.1860    0.2644    6.7781 C   0  0  2  0  0  0  0  0  0  0  0  0
   -0.8993   -0.9525    6.5909 O   0  0  0  0  0  0  0  0  0  0  0  0
    0.4421   -0.9241    6.0927 C   0  0  1  0  0  0  0  0  0  0  0  0
    0.5698   -1.2328    4.6155 C   0  0  1  0  0  0  0  0  0  0  0  0
    0.4544   -0.0156    3.7172 C   0  0  0  0  0  0  0  0  0  0  0  0
    0.9879    1.1885    3.9855 C   0  0  0  0  0  0  0  0  0  0  0  0
    0.8668    2.4230    3.1268 C   0  0  0  0  0  0  0  0  0  0  0  0
    2.2084    3.1261    2.8771 C   0  0  0  0  0  0  0  0  0  0  0  0
    1.9030    4.0580    4.0552 C   0  0  0  0  0  0  0  0  0  0  0  0
    0.4265    3.6678    3.9086 C   0  0  0  0  0  0  0  0  0  0  0  0
    1.8907   -2.0276    4.5285 C   0  0  2  0  0  0  0  0  0  0  0  0
    3.1279   -1.1191    4.3262 C   0  0  0  0  0  0  0  0  0  0  0  0
    1.7688   -3.2118    3.5114 C   0  0  1  0  0  0  0  0  0  0  0  0
    2.7789   -3.1845    2.5243 O   0  0  0  0  0  0  0  0  0  0  0  0
    1.8784   -4.5081    4.3383 C   0  0  2  0  0  0  0  0  0  0  0  0
    1.0728   -5.7534    3.8814 C   0  0  1  0  0  0  0  0  0  0  0  0
    1.2764   -6.1810    2.4105 C   0  0  0  0  0  0  0  0  0  0  0  0
    2.4364   -7.1540    2.1905 C   0  0  0  0  0  0  0  0  0  0  0  0
    2.3394   -8.3864    3.1112 C   0  0  2  0  0  0  0  0  0  0  0  0
    1.1367   -9.2854    2.7207 C   0  0  0  0  0  0  0  0  0  0  0  0
    0.9981  -10.5445    3.5826 C   0  0  1  0  0  0  0  0  0  0  0  0
    2.0441  -11.4468    3.2897 O   0  0  0  0  0  0  0  0  0  0  0  0
    0.9882  -10.1790    5.0692 C   0  0  0  0  0  0  0  0  0  0  0  0
    2.1920   -9.3005    5.4463 C   0  0  0  0  0  0  0  0  0  0  0  0
    2.3420   -7.9854    4.6194 C   0  0  1  0  0  0  0  0  0  0  0  0
    3.7352   -7.4264    4.9952 C   0  0  0  0  0  0  0  0  0  0  0  0
    1.1797   -6.9508    4.8897 C   0  0  1  0  0  0  0  0  0  0  0  0
    0.9931   -6.4775    6.3651 C   0  0  0  0  0  0  0  0  0  0  0  0
    1.7231   -5.1702    6.7410 C   0  0  0  0  0  0  0  0  0  0  0  0
    1.3814   -4.0832    5.7157 C   0  0  1  0  0  0  0  0  0  0  0  0
    1.9821   -2.6890    5.9290 C   0  0  2  0  0  0  0  0  0  0  0  0
    1.1602   -1.9212    6.8660 N   0  0  0  0  0  0  0  0  0  0  0  0
    1.9898   -1.2116    7.8507 C   0  0  0  0  0  0  0  0  0  0  0  0
   -0.4159   -2.0399    9.1057 H   0  0  0  0  0  0  0  0  0  0  0  0
   -0.2926   -0.9395   10.4913 H   0  0  0  0  0  0  0  0  0  0  0  0
    0.9371   -2.1682   10.2163 H   0  0  0  0  0  0  0  0  0  0  0  0
    1.7429    0.0454    9.5650 H   0  0  0  0  0  0  0  0  0  0  0  0
   -0.6831    0.8182    8.7815 H   0  0  0  0  0  0  0  0  0  0  0  0
    0.7675    1.5536    8.1548 H   0  0  0  0  0  0  0  0  0  0  0  0
   -0.5631    1.0890    6.1876 H   0  0  0  0  0  0  0  0  0  0  0  0
   -0.2731   -1.8793    4.3828 H   0  0  0  0  0  0  0  0  0  0  0  0
   -0.1097   -0.1506    2.8017 H   0  0  0  0  0  0  0  0  0  0  0  0
    1.5674    1.3180    4.8861 H   0  0  0  0  0  0  0  0  0  0  0  0
    0.2919    2.2509    2.2151 H   0  0  0  0  0  0  0  0  0  0  0  0
    3.0936    2.4994    3.0092 H   0  0  0  0  0  0  0  0  0  0  0  0
    2.2225    3.6498    1.9209 H   0  0  0  0  0  0  0  0  0  0  0  0
    2.3411    3.7180    4.9927 H   0  0  0  0  0  0  0  0  0  0  0  0
    2.1200    5.1091    3.8641 H   0  0  0  0  0  0  0  0  0  0  0  0
   -0.1227    4.3696    3.2798 H   0  0  0  0  0  0  0  0  0  0  0  0
   -0.0930    3.4807    4.8497 H   0  0  0  0  0  0  0  0  0  0  0  0
    4.0599   -1.6748    4.4245 H   0  0  0  0  0  0  0  0  0  0  0  0
    3.1541   -0.3318    5.0782 H   0  0  0  0  0  0  0  0  0  0  0  0
    3.1272   -0.6351    3.3508 H   0  0  0  0  0  0  0  0  0  0  0  0
    0.8121   -3.1876    2.9942 H   0  0  0  0  0  0  0  0  0  0  0  0
    2.6514   -2.4171    1.9849 H   0  0  0  0  0  0  0  0  0  0  0  0
    2.9367   -4.7428    4.4287 H   0  0  0  0  0  0  0  0  0  0  0  0
    0.0338   -5.4242    3.9262 H   0  0  0  0  0  0  0  0  0  0  0  0
    0.3610   -6.6484    2.0512 H   0  0  0  0  0  0  0  0  0  0  0  0
    1.4245   -5.3127    1.7736 H   0  0  0  0  0  0  0  0  0  0  0  0
    2.4506   -7.4743    1.1480 H   0  0  0  0  0  0  0  0  0  0  0  0
    3.3816   -6.6323    2.3376 H   0  0  0  0  0  0  0  0  0  0  0  0
    3.2324   -8.9846    2.9197 H   0  0  0  0  0  0  0  0  0  0  0  0
    0.2015   -8.7335    2.7936 H   0  0  0  0  0  0  0  0  0  0  0  0
    1.2264   -9.5865    1.6779 H   0  0  0  0  0  0  0  0  0  0  0  0
    0.0621  -11.0439    3.3335 H   0  0  0  0  0  0  0  0  0  0  0  0
    1.8294  -12.3022    3.6412 H   0  0  0  0  0  0  0  0  0  0  0  0
    0.0585   -9.6644    5.3112 H   0  0  0  0  0  0  0  0  0  0  0  0
    0.9840  -11.0875    5.6702 H   0  0  0  0  0  0  0  0  0  0  0  0
    2.1755   -9.1047    6.5170 H   0  0  0  0  0  0  0  0  0  0  0  0
    3.0839   -9.9112    5.2938 H   0  0  0  0  0  0  0  0  0  0  0  0
    3.7986   -7.1797    6.0535 H   0  0  0  0  0  0  0  0  0  0  0  0
    4.0183   -6.5448    4.4285 H   0  0  0  0  0  0  0  0  0  0  0  0
    4.5142   -8.1646    4.8013 H   0  0  0  0  0  0  0  0  0  0  0  0
    0.2754   -7.5279    4.7056 H   0  0  0  0  0  0  0  0  0  0  0  0
   -0.0713   -6.3040    6.5243 H   0  0  0  0  0  0  0  0  0  0  0  0
    1.2599   -7.2546    7.0772 H   0  0  0  0  0  0  0  0  0  0  0  0
    1.4159   -4.8572    7.7409 H   0  0  0  0  0  0  0  0  0  0  0  0
    2.8023   -5.3229    6.7882 H   0  0  0  0  0  0  0  0  0  0  0  0
    0.2915   -3.9798    5.6874 H   0  0  0  0  0  0  0  0  0  0  0  0
    3.0219   -2.7970    6.2573 H   0  0  0  0  0  0  0  0  0  0  0  0
    2.6503   -0.4973    7.3441 H   0  0  0  0  0  0  0  0  0  0  0  0
    2.6266   -1.9250    8.3808 H   0  0  0  0  0  0  0  0  0  0  0  0
  1  2  1  0
  1 37  1  0
  1 38  1  0
  1 39  1  0
  2 36  1  0
  2  3  1  0
  2 40  1  1
  3  4  1  0
  3 41  1  0
  3 42  1  0
  4  6  1  0
  4  5  1  0
  4 43  1  6
  6  5  1  1
  6 35  1  0
  6  7  1  0
  7  8  1  0
  7 14  1  0
  7 44  1  6
  8  9  2  3
  8 45  1  0
  9 10  1  0
  9 46  1  0
 10 13  1  0
 10 11  1  0
 10 47  1  0
 11 12  1  0
 11 48  1  0
 11 49  1  0
 12 13  1  0
 12 50  1  0
 12 51  1  0
 13 52  1  0
 13 53  1  0
 14 34  1  0
 14 15  1  6
 14 16  1  0
 15 54  1  0
 15 55  1  0
 15 56  1  0
 16 17  1  0
 16 18  1  0
 16 57  1  6
 17 58  1  0
 18 33  1  0
 18 19  1  0
 18 59  1  1
 19 30  1  0
 19 20  1  0
 19 60  1  6
 20 21  1  0
 20 61  1  0
 20 62  1  0
 21 22  1  0
 21 63  1  0
 21 64  1  0
 22 28  1  0
 22 23  1  0
 22 65  1  1
 23 24  1  0
 23 66  1  0
 23 67  1  0
 24 25  1  0
 24 26  1  0
 24 68  1  6
 25 69  1  0
 26 27  1  0
 26 70  1  0
 26 71  1  0
 27 28  1  0
 27 72  1  0
 27 73  1  0
 28 29  1  1
 28 30  1  0
 29 74  1  0
 29 75  1  0
 29 76  1  0
 30 31  1  0
 30 77  1  6
 31 32  1  0
 31 78  1  0
 31 79  1  0
 32 33  1  0
 32 80  1  0
 32 81  1  0
 33 34  1  0
 33 82  1  6
 34 35  1  0
 34 83  1  1
 35 36  1  0
 36 84  1  0
 36 85  1  0
M  END
>  <i_m_ct_stereo_status>  (191) 
1

>  <s_m_source_file>  (191) 
/var/tmp/pbs.5076255.sched01/tmp25xsusm8/82mdre8bl4.sdf

>  <i_m_source_file_index>  (191) 
16

>  <i_lp_mmshare_version>  (191) 
48012

>  <i_f3d_flags>  (191) 
0

>  <s_epik_input>  (191) 
TzFbQ0BIXShbQ0BAXTEyMylbQ0gyXVtDQEBIXShbQ0gzXSlbQ0gyXU4zW0NAQEhdNFtDQF0oW0NIM10pKFtDQEBIXTIvW0NIXT1bQ0hdL1tDSF01W0NIMl1bQ0gyXVtDSDJdNSlbQ0BASF0oW09IXSlbQ0BASF02W0NAQEhdN1tDQEhdKFtDSDJdW0NIMl1bQ0BASF00NilbQ0BdOChbQ0gzXSlbQ0BIXShbQ0gyXVtDSDJdNylbQ0gyXVtDQEBIXShbT0hdKVtDSDJdW0NIMl04

>  <s_epik_cmdline>  (191) 
J2VwaWtfcHl0aG9uJywgJy1waHQnLCAnMi4wJywgJy1waCcsICc3LjAnLCAnLXRuJywgJzgnLCAnLW1hJywgJzIwMCcsICctaW1hZScsICc8aW5maWxlLm1hZT4nLCAnLW9tYWUnLCAnPG91dGZpbGUubWFlPic=

>  <r_epik_Ionization_Penalty>  (191) 
0.0117577

>  <r_epik_Ionization_Penalty_Charging>  (191) 
0

>  <r_epik_Ionization_Penalty_Neutral>  (191) 
0.0117577

>  <r_epik_State_Penalty>  (191) 
0.00906251

>  <r_epik_Charging_Adjusted_Penalty>  (191) 
0.00906251

>  <i_epik_Tot_Q>  (191) 
0

>  <i_epik_Tot_abs_Q>  (191) 
0

>  <s_lp_Force_Field>  (191) 
OPLS3e

>  <r_lp_Energy>  (191) 
86.9498

>  <b_lp_Chiralities_Consistent>  (191) 
1

>  <s_lp_Variant>  (191) 
72:0-1

>  <s_i_glide_gridfile>  (191) 
pfpi4k_grid

>  <i_i_glide_lignum>  (191) 
16

>  <i_i_glide_rotatable_bonds>  (191) 
4

>  <r_i_docking_score>  (191) 
-2.29386

>  <r_i_glide_ligand_efficiency>  (191) 
-0.0637185

>  <r_i_glide_ligand_efficiency_sa>  (191) 
-0.210394

>  <r_i_glide_ligand_efficiency_ln>  (191) 
-0.500459

>  <r_i_glide_gscore>  (191) 
-2.29386

>  <r_i_glide_lipo>  (191) 
-0.145793

>  <r_i_glide_hbond>  (191) 
-0.151806

>  <r_i_glide_metal>  (191) 
-0

>  <r_i_glide_rewards>  (191) 
-0.0290703

>  <r_i_glide_evdw>  (191) 
-27.7982

>  <r_i_glide_ecoul>  (191) 
-4.85319

>  <r_i_glide_erotb>  (191) 
0.165917

>  <r_i_glide_esite>  (191) 
-0.0152252

>  <r_i_glide_emodel>  (191) 
-35.0858

>  <r_i_glide_energy>  (191) 
-32.6514

>  <r_i_glide_einternal>  (191) 
4.57405

>  <r_i_glide_intrahb_reward>  (191) 
-0

>  <i_i_glide_confnum>  (191) 
4

>  <i_i_glide_posenum>  (191) 
23

>  <r_i_glide_eff_state_penalty>  (191) 
0

>  <ligand_id>  (191) 
72

>  <original_smiles>  (191) 
CC1CC2OC23C(C=CC2CCC2)C2(C)C(O)C4C5CCC6CC(O)CCC6(C)C5CCC4C2N3C1

>  <smiles>  (191) 
[H]OC1([H])C([H])([H])C([H])([H])C2(C([H])([H])[H])C([H])(C([H])([H])C([H])([H])C3([H])C4([H])C([H])(O[H])C5(C([H])([H])[H])C([H])(C([H])=C([H])C6([H])C([H])([H])C([H])([H])C6([H])[H])C67OC6([H])C([H])([H])C([H])(C([H])([H])[H])C([H])([H])N7C5([H])C4([H])C([H])([H])C([H])([H])C32[H])C1([H])[H]

$$$$
72:0:1
     RDKit          3D

 85 92  0  0  1  0  0  0  0  0999 V2000
    5.3688   -1.9455    8.6388 C   0  0  0  0  0  0  0  0  0  0  0  0
    5.6845   -1.0921    7.3997 C   0  0  2  0  0  0  0  0  0  0  0  0
    4.7981    0.1686    7.2675 C   0  0  0  0  0  0  0  0  0  0  0  0
    3.6049   -0.0621    6.3666 C   0  0  2  0  0  0  0  0  0  0  0  0
    2.7207   -1.1199    6.7564 O   0  0  0  0  0  0  0  0  0  0  0  0
    3.4720   -1.3278    5.5510 C   0  0  1  0  0  0  0  0  0  0  0  0
    2.6654   -1.6162    4.3198 C   0  0  1  0  0  0  0  0  0  0  0  0
    2.2681   -0.3568    3.5712 C   0  0  0  0  0  0  0  0  0  0  0  0
    1.0149   -0.0378    3.1900 C   0  0  0  0  0  0  0  0  0  0  0  0
    0.6254    1.2381    2.4524 C   0  0  0  0  0  0  0  0  0  0  0  0
    1.3719    2.5141    2.8895 C   0  0  0  0  0  0  0  0  0  0  0  0
    0.1981    2.8393    3.8182 C   0  0  0  0  0  0  0  0  0  0  0  0
   -0.6647    1.8935    2.9765 C   0  0  0  0  0  0  0  0  0  0  0  0
    3.5422   -2.6051    3.5339 C   0  0  2  0  0  0  0  0  0  0  0  0
    4.5523   -1.9057    2.5929 C   0  0  0  0  0  0  0  0  0  0  0  0
    2.6574   -3.7087    2.8610 C   0  0  1  0  0  0  0  0  0  0  0  0
    2.9021   -3.8236    1.4715 O   0  0  0  0  0  0  0  0  0  0  0  0
    3.0047   -5.0343    3.5694 C   0  0  2  0  0  0  0  0  0  0  0  0
    1.8855   -6.0914    3.7602 C   0  0  1  0  0  0  0  0  0  0  0  0
    1.1193   -6.4910    2.4812 C   0  0  0  0  0  0  0  0  0  0  0  0
    1.7482   -7.6490    1.7036 C   0  0  0  0  0  0  0  0  0  0  0  0
    1.9938   -8.8802    2.5981 C   0  0  2  0  0  0  0  0  0  0  0  0
    0.6497   -9.5250    3.0383 C   0  0  0  0  0  0  0  0  0  0  0  0
    0.8277  -10.7563    3.9329 C   0  0  1  0  0  0  0  0  0  0  0  0
    1.3488  -11.8101    3.1667 O   0  0  0  0  0  0  0  0  0  0  0  0
    1.7561  -10.4610    5.1107 C   0  0  0  0  0  0  0  0  0  0  0  0
    3.0829   -9.8379    4.6494 C   0  0  0  0  0  0  0  0  0  0  0  0
    2.9435   -8.5449    3.7894 C   0  0  1  0  0  0  0  0  0  0  0  0
    4.3670   -8.2641    3.2483 C   0  0  0  0  0  0  0  0  0  0  0  0
    2.3553   -7.3255    4.6042 C   0  0  1  0  0  0  0  0  0  0  0  0
    3.1465   -6.8846    5.8760 C   0  0  0  0  0  0  0  0  0  0  0  0
    4.1703   -5.7474    5.6609 C   0  0  0  0  0  0  0  0  0  0  0  0
    3.4844   -4.5788    4.9441 C   0  0  1  0  0  0  0  0  0  0  0  0
    4.3254   -3.3281    4.6618 C   0  0  2  0  0  0  0  0  0  0  0  0
    4.3460   -2.4610    5.8467 N   0  0  0  0  0  0  0  0  0  0  0  0
    5.6970   -1.9438    6.1126 C   0  0  0  0  0  0  0  0  0  0  0  0
    4.3549   -2.3464    8.5891 H   0  0  0  0  0  0  0  0  0  0  0  0
    5.4606   -1.3617    9.5545 H   0  0  0  0  0  0  0  0  0  0  0  0
    6.0564   -2.7878    8.7118 H   0  0  0  0  0  0  0  0  0  0  0  0
    6.7071   -0.7279    7.5502 H   0  0  0  0  0  0  0  0  0  0  0  0
    4.4414    0.4947    8.2441 H   0  0  0  0  0  0  0  0  0  0  0  0
    5.3717    0.9899    6.8498 H   0  0  0  0  0  0  0  0  0  0  0  0
    3.1090    0.8265    5.9857 H   0  0  0  0  0  0  0  0  0  0  0  0
    1.7527   -2.1052    4.6638 H   0  0  0  0  0  0  0  0  0  0  0  0
    3.0783    0.3162    3.3314 H   0  0  0  0  0  0  0  0  0  0  0  0
    0.2047   -0.7208    3.3979 H   0  0  0  0  0  0  0  0  0  0  0  0
    0.6032    1.0899    1.3698 H   0  0  0  0  0  0  0  0  0  0  0  0
    2.3231    2.3944    3.4022 H   0  0  0  0  0  0  0  0  0  0  0  0
    1.4691    3.2381    2.0832 H   0  0  0  0  0  0  0  0  0  0  0  0
    0.3502    2.4683    4.8330 H   0  0  0  0  0  0  0  0  0  0  0  0
   -0.1152    3.8824    3.8101 H   0  0  0  0  0  0  0  0  0  0  0  0
   -1.2027    2.4322    2.1899 H   0  0  0  0  0  0  0  0  0  0  0  0
   -1.3377    1.2487    3.5417 H   0  0  0  0  0  0  0  0  0  0  0  0
    5.2663   -2.6186    2.1783 H   0  0  0  0  0  0  0  0  0  0  0  0
    5.1328   -1.1546    3.1293 H   0  0  0  0  0  0  0  0  0  0  0  0
    4.0662   -1.4012    1.7596 H   0  0  0  0  0  0  0  0  0  0  0  0
    1.6000   -3.4921    2.9845 H   0  0  0  0  0  0  0  0  0  0  0  0
    2.7076   -2.9958    1.0627 H   0  0  0  0  0  0  0  0  0  0  0  0
    3.8586   -5.4622    3.0506 H   0  0  0  0  0  0  0  0  0  0  0  0
    1.1369   -5.5796    4.3676 H   0  0  0  0  0  0  0  0  0  0  0  0
    0.1050   -6.7725    2.7553 H   0  0  0  0  0  0  0  0  0  0  0  0
    1.0111   -5.6366    1.8185 H   0  0  0  0  0  0  0  0  0  0  0  0
    1.0931   -7.9246    0.8780 H   0  0  0  0  0  0  0  0  0  0  0  0
    2.6758   -7.3178    1.2365 H   0  0  0  0  0  0  0  0  0  0  0  0
    2.4912   -9.6244    1.9703 H   0  0  0  0  0  0  0  0  0  0  0  0
    0.0470   -8.8131    3.5983 H   0  0  0  0  0  0  0  0  0  0  0  0
    0.0583   -9.7952    2.1641 H   0  0  0  0  0  0  0  0  0  0  0  0
   -0.1424  -11.0845    4.3035 H   0  0  0  0  0  0  0  0  0  0  0  0
    1.3997  -12.5988    3.6798 H   0  0  0  0  0  0  0  0  0  0  0  0
    1.2543   -9.8007    5.8178 H   0  0  0  0  0  0  0  0  0  0  0  0
    1.9574  -11.3827    5.6573 H   0  0  0  0  0  0  0  0  0  0  0  0
    3.7299   -9.6829    5.5110 H   0  0  0  0  0  0  0  0  0  0  0  0
    3.5997  -10.5961    4.0563 H   0  0  0  0  0  0  0  0  0  0  0  0
    5.0747   -8.0727    4.0526 H   0  0  0  0  0  0  0  0  0  0  0  0
    4.4138   -7.4278    2.5578 H   0  0  0  0  0  0  0  0  0  0  0  0
    4.7499   -9.1237    2.6963 H   0  0  0  0  0  0  0  0  0  0  0  0
    1.4299   -7.7203    5.0222 H   0  0  0  0  0  0  0  0  0  0  0  0
    2.4233   -6.5267    6.6075 H   0  0  0  0  0  0  0  0  0  0  0  0
    3.6397   -7.7238    6.3619 H   0  0  0  0  0  0  0  0  0  0  0  0
    4.5578   -5.4207    6.6277 H   0  0  0  0  0  0  0  0  0  0  0  0
    5.0295   -6.0939    5.0876 H   0  0  0  0  0  0  0  0  0  0  0  0
    2.6201   -4.2777    5.5440 H   0  0  0  0  0  0  0  0  0  0  0  0
    5.3226   -3.6325    4.3344 H   0  0  0  0  0  0  0  0  0  0  0  0
    6.0391   -1.3298    5.2756 H   0  0  0  0  0  0  0  0  0  0  0  0
    6.3931   -2.7777    6.2268 H   0  0  0  0  0  0  0  0  0  0  0  0
  1  2  1  0
  1 37  1  0
  1 38  1  0
  1 39  1  0
  2 36  1  0
  2  3  1  0
  2 40  1  1
  3  4  1  0
  3 41  1  0
  3 42  1  0
  4  6  1  0
  4  5  1  0
  4 43  1  6
  6  5  1  1
  6 35  1  0
  6  7  1  0
  7  8  1  0
  7 14  1  0
  7 44  1  1
  8  9  2  3
  8 45  1  0
  9 10  1  0
  9 46  1  0
 10 13  1  0
 10 11  1  0
 10 47  1  0
 11 12  1  0
 11 48  1  0
 11 49  1  0
 12 13  1  0
 12 50  1  0
 12 51  1  0
 13 52  1  0
 13 53  1  0
 14 34  1  0
 14 15  1  6
 14 16  1  0
 15 54  1  0
 15 55  1  0
 15 56  1  0
 16 17  1  0
 16 18  1  0
 16 57  1  6
 17 58  1  0
 18 33  1  0
 18 19  1  0
 18 59  1  6
 19 30  1  0
 19 20  1  0
 19 60  1  1
 20 21  1  0
 20 61  1  0
 20 62  1  0
 21 22  1  0
 21 63  1  0
 21 64  1  0
 22 28  1  0
 22 23  1  0
 22 65  1  6
 23 24  1  0
 23 66  1  0
 23 67  1  0
 24 25  1  0
 24 26  1  0
 24 68  1  1
 25 69  1  0
 26 27  1  0
 26 70  1  0
 26 71  1  0
 27 28  1  0
 27 72  1  0
 27 73  1  0
 28 29  1  6
 28 30  1  0
 29 74  1  0
 29 75  1  0
 29 76  1  0
 30 31  1  0
 30 77  1  1
 31 32  1  0
 31 78  1  0
 31 79  1  0
 32 33  1  0
 32 80  1  0
 32 81  1  0
 33 34  1  0
 33 82  1  1
 34 35  1  0
 34 83  1  6
 35 36  1  0
 36 84  1  0
 36 85  1  0
M  END
>  <i_m_ct_stereo_status>  (192) 
1

>  <s_m_source_file>  (192) 
/var/tmp/pbs.5076255.sched01/tmp25xsusm8/82mdre8bl4.sdf

>  <i_m_source_file_index>  (192) 
16

>  <i_lp_mmshare_version>  (192) 
48012

>  <i_f3d_flags>  (192) 
0

>  <s_epik_input>  (192) 
TzFbQ0BIXShbQ0BAXTEyMylbQ0gyXVtDQEBIXShbQ0gzXSlbQ0gyXU4zW0NAQEhdNFtDQF0oW0NIM10pKFtDQEBIXTIvW0NIXT1bQ0hdL1tDSF01W0NIMl1bQ0gyXVtDSDJdNSlbQ0BASF0oW09IXSlbQ0BASF02W0NAQEhdN1tDQEhdKFtDSDJdW0NIMl1bQ0BASF00NilbQ0BdOChbQ0gzXSlbQ0BIXShbQ0gyXVtDSDJdNylbQ0gyXVtDQEBIXShbT0hdKVtDSDJdW0NIMl04

>  <s_epik_cmdline>  (192) 
J2VwaWtfcHl0aG9uJywgJy1waHQnLCAnMi4wJywgJy1waCcsICc3LjAnLCAnLXRuJywgJzgnLCAnLW1hJywgJzIwMCcsICctaW1hZScsICc8aW5maWxlLm1hZT4nLCAnLW9tYWUnLCAnPG91dGZpbGUubWFlPic=

>  <r_epik_Ionization_Penalty>  (192) 
0.0117577

>  <r_epik_Ionization_Penalty_Charging>  (192) 
0

>  <r_epik_Ionization_Penalty_Neutral>  (192) 
0.0117577

>  <r_epik_State_Penalty>  (192) 
0.00906251

>  <r_epik_Charging_Adjusted_Penalty>  (192) 
0.00906251

>  <i_epik_Tot_Q>  (192) 
0

>  <i_epik_Tot_abs_Q>  (192) 
0

>  <s_lp_Force_Field>  (192) 
OPLS3e

>  <r_lp_Energy>  (192) 
86.9498

>  <b_lp_Chiralities_Consistent>  (192) 
1

>  <s_lp_Variant>  (192) 
72:0-1

>  <s_i_glide_gridfile>  (192) 
pfpi4k_grid

>  <i_i_glide_lignum>  (192) 
16

>  <i_i_glide_rotatable_bonds>  (192) 
4

>  <r_i_docking_score>  (192) 
-1.91441

>  <r_i_glide_ligand_efficiency>  (192) 
-0.0531781

>  <r_i_glide_ligand_efficiency_sa>  (192) 
-0.17559

>  <r_i_glide_ligand_efficiency_ln>  (192) 
-0.417673

>  <r_i_glide_gscore>  (192) 
-1.91441

>  <r_i_glide_lipo>  (192) 
-0.0741628

>  <r_i_glide_hbond>  (192) 
-0.243813

>  <r_i_glide_metal>  (192) 
-0

>  <r_i_glide_rewards>  (192) 
-0.0290703

>  <r_i_glide_evdw>  (192) 
-26.4403

>  <r_i_glide_ecoul>  (192) 
-2.74178

>  <r_i_glide_erotb>  (192) 
0.165917

>  <r_i_glide_esite>  (192) 
0

>  <r_i_glide_emodel>  (192) 
-31.8448

>  <r_i_glide_energy>  (192) 
-29.1821

>  <r_i_glide_einternal>  (192) 
2.60679

>  <r_i_glide_intrahb_reward>  (192) 
-0

>  <i_i_glide_confnum>  (192) 
4

>  <i_i_glide_posenum>  (192) 
9

>  <r_i_glide_eff_state_penalty>  (192) 
0

>  <ligand_id>  (192) 
72

>  <original_smiles>  (192) 
CC1CC2OC23C(C=CC2CCC2)C2(C)C(O)C4C5CCC6CC(O)CCC6(C)C5CCC4C2N3C1

>  <smiles>  (192) 
[H]OC1([H])C([H])([H])C([H])([H])C2(C([H])([H])[H])C([H])(C([H])([H])C([H])([H])C3([H])C4([H])C([H])(O[H])C5(C([H])([H])[H])C([H])(C([H])=C([H])C6([H])C([H])([H])C([H])([H])C6([H])[H])C67OC6([H])C([H])([H])C([H])(C([H])([H])[H])C([H])([H])N7C5([H])C4([H])C([H])([H])C([H])([H])C32[H])C1([H])[H]

$$$$
72:0:2
     RDKit          3D

 85 92  0  0  1  0  0  0  0  0999 V2000
    0.5802   -6.9192    7.2811 C   0  0  0  0  0  0  0  0  0  0  0  0
    1.0005   -5.8511    8.3061 C   0  0  2  0  0  0  0  0  0  0  0  0
   -0.1853   -5.0653    8.8962 C   0  0  0  0  0  0  0  0  0  0  0  0
   -0.4262   -3.7614    8.1628 C   0  0  2  0  0  0  0  0  0  0  0  0
   -0.7058   -3.8658    6.7705 O   0  0  0  0  0  0  0  0  0  0  0  0
    0.5401   -3.2621    7.1281 C   0  0  1  0  0  0  0  0  0  0  0  0
    0.7590   -1.8553    6.6012 C   0  0  1  0  0  0  0  0  0  0  0  0
    0.2232   -0.7816    7.5268 C   0  0  0  0  0  0  0  0  0  0  0  0
   -0.4745    0.3001    7.1303 C   0  0  0  0  0  0  0  0  0  0  0  0
   -1.0065    1.3724    8.0691 C   0  0  0  0  0  0  0  0  0  0  0  0
   -2.3770    1.9463    7.6750 C   0  0  0  0  0  0  0  0  0  0  0  0
   -1.6544    3.0934    6.9608 C   0  0  0  0  0  0  0  0  0  0  0  0
   -0.4209    2.7686    7.8101 C   0  0  0  0  0  0  0  0  0  0  0  0
    2.2775   -1.8204    6.3243 C   0  0  2  0  0  0  0  0  0  0  0  0
    3.0973   -1.3700    7.5559 C   0  0  0  0  0  0  0  0  0  0  0  0
    2.5778   -1.0372    4.9976 C   0  0  1  0  0  0  0  0  0  0  0  0
    3.5236   -0.0042    5.1831 O   0  0  0  0  0  0  0  0  0  0  0  0
    3.1307   -2.0732    3.9989 C   0  0  2  0  0  0  0  0  0  0  0  0
    2.8037   -1.8962    2.4929 C   0  0  1  0  0  0  0  0  0  0  0  0
    3.1387   -0.5135    1.8900 C   0  0  0  0  0  0  0  0  0  0  0  0
    4.5669   -0.3916    1.3516 C   0  0  0  0  0  0  0  0  0  0  0  0
    4.9063   -1.5156    0.3569 C   0  0  2  0  0  0  0  0  0  0  0  0
    4.0935   -1.3640   -0.9552 C   0  0  0  0  0  0  0  0  0  0  0  0
    4.4015   -2.4562   -1.9818 C   0  0  1  0  0  0  0  0  0  0  0  0
    5.7204   -2.2992   -2.4433 O   0  0  0  0  0  0  0  0  0  0  0  0
    4.2748   -3.8516   -1.3734 C   0  0  0  0  0  0  0  0  0  0  0  0
    5.0952   -3.9831   -0.0869 C   0  0  0  0  0  0  0  0  0  0  0  0
    4.7658   -2.9263    1.0084 C   0  0  1  0  0  0  0  0  0  0  0  0
    5.8650   -3.1068    2.0698 C   0  0  0  0  0  0  0  0  0  0  0  0
    3.3203   -3.0889    1.6159 C   0  0  1  0  0  0  0  0  0  0  0  0
    2.9909   -4.4685    2.2700 C   0  0  0  0  0  0  0  0  0  0  0  0
    3.2246   -4.5589    3.7942 C   0  0  0  0  0  0  0  0  0  0  0  0
    2.5231   -3.3840    4.4838 C   0  0  1  0  0  0  0  0  0  0  0  0
    2.6029   -3.3057    6.0136 C   0  0  2  0  0  0  0  0  0  0  0  0
    1.5657   -4.1451    6.6132 N   0  0  0  0  0  0  0  0  0  0  0  0
    2.1044   -4.9278    7.7416 C   0  0  0  0  0  0  0  0  0  0  0  0
    0.1106   -6.4650    6.4088 H   0  0  0  0  0  0  0  0  0  0  0  0
   -0.1246   -7.6273    7.7172 H   0  0  0  0  0  0  0  0  0  0  0  0
    1.4463   -7.4857    6.9386 H   0  0  0  0  0  0  0  0  0  0  0  0
    1.4374   -6.4064    9.1388 H   0  0  0  0  0  0  0  0  0  0  0  0
   -1.1020   -5.6448    8.8535 H   0  0  0  0  0  0  0  0  0  0  0  0
   -0.0037   -4.8221    9.9398 H   0  0  0  0  0  0  0  0  0  0  0  0
   -1.0134   -3.0418    8.7016 H   0  0  0  0  0  0  0  0  0  0  0  0
    0.2122   -1.8011    5.6628 H   0  0  0  0  0  0  0  0  0  0  0  0
    0.4349   -0.9027    8.5824 H   0  0  0  0  0  0  0  0  0  0  0  0
   -0.6696    0.4533    6.0778 H   0  0  0  0  0  0  0  0  0  0  0  0
   -0.9536    1.0791    9.1201 H   0  0  0  0  0  0  0  0  0  0  0  0
   -2.9831    1.3202    7.0180 H   0  0  0  0  0  0  0  0  0  0  0  0
   -2.9554    2.2956    8.5331 H   0  0  0  0  0  0  0  0  0  0  0  0
   -1.4950    2.8963    5.9013 H   0  0  0  0  0  0  0  0  0  0  0  0
   -2.0808    4.0821    7.1313 H   0  0  0  0  0  0  0  0  0  0  0  0
   -0.3754    3.3738    8.7195 H   0  0  0  0  0  0  0  0  0  0  0  0
    0.5299    2.7813    7.2725 H   0  0  0  0  0  0  0  0  0  0  0  0
    4.1664   -1.5067    7.3897 H   0  0  0  0  0  0  0  0  0  0  0  0
    2.8361   -1.9577    8.4356 H   0  0  0  0  0  0  0  0  0  0  0  0
    2.9331   -0.3232    7.8038 H   0  0  0  0  0  0  0  0  0  0  0  0
    1.6720   -0.5876    4.5949 H   0  0  0  0  0  0  0  0  0  0  0  0
    3.6132    0.4632    4.3652 H   0  0  0  0  0  0  0  0  0  0  0  0
    4.2047   -2.1358    4.1625 H   0  0  0  0  0  0  0  0  0  0  0  0
    1.7144   -1.9444    2.4494 H   0  0  0  0  0  0  0  0  0  0  0  0
    2.4438   -0.3125    1.0756 H   0  0  0  0  0  0  0  0  0  0  0  0
    2.9532    0.2842    2.6053 H   0  0  0  0  0  0  0  0  0  0  0  0
    4.6853    0.5730    0.8593 H   0  0  0  0  0  0  0  0  0  0  0  0
    5.2773   -0.3780    2.1781 H   0  0  0  0  0  0  0  0  0  0  0  0
    5.9527   -1.3741    0.0797 H   0  0  0  0  0  0  0  0  0  0  0  0
    3.0229   -1.4073   -0.7513 H   0  0  0  0  0  0  0  0  0  0  0  0
    4.2696   -0.3848   -1.4005 H   0  0  0  0  0  0  0  0  0  0  0  0
    3.7186   -2.3679   -2.8303 H   0  0  0  0  0  0  0  0  0  0  0  0
    5.9069   -3.0054   -3.0481 H   0  0  0  0  0  0  0  0  0  0  0  0
    3.2264   -4.0726   -1.1748 H   0  0  0  0  0  0  0  0  0  0  0  0
    4.6192   -4.5975   -2.0913 H   0  0  0  0  0  0  0  0  0  0  0  0
    5.0133   -5.0008    0.2901 H   0  0  0  0  0  0  0  0  0  0  0  0
    6.1449   -3.8833   -0.3701 H   0  0  0  0  0  0  0  0  0  0  0  0
    5.8461   -4.0985    2.5181 H   0  0  0  0  0  0  0  0  0  0  0  0
    5.8240   -2.3743    2.8689 H   0  0  0  0  0  0  0  0  0  0  0  0
    6.8544   -2.9937    1.6230 H   0  0  0  0  0  0  0  0  0  0  0  0
    2.6708   -3.0699    0.7425 H   0  0  0  0  0  0  0  0  0  0  0  0
    1.9335   -4.6683    2.1006 H   0  0  0  0  0  0  0  0  0  0  0  0
    3.5129   -5.2880    1.7809 H   0  0  0  0  0  0  0  0  0  0  0  0
    2.8287   -5.5058    4.1678 H   0  0  0  0  0  0  0  0  0  0  0  0
    4.2890   -4.5581    4.0330 H   0  0  0  0  0  0  0  0  0  0  0  0
    1.4644   -3.4120    4.2031 H   0  0  0  0  0  0  0  0  0  0  0  0
    3.6182   -3.5713    6.3322 H   0  0  0  0  0  0  0  0  0  0  0  0
    2.4744   -4.2612    8.5319 H   0  0  0  0  0  0  0  0  0  0  0  0
    2.9502   -5.5339    7.4037 H   0  0  0  0  0  0  0  0  0  0  0  0
  1  2  1  0
  1 37  1  0
  1 38  1  0
  1 39  1  0
  2 36  1  0
  2  3  1  0
  2 40  1  1
  3  4  1  0
  3 41  1  0
  3 42  1  0
  4  6  1  0
  4  5  1  0
  4 43  1  1
  6  5  1  6
  6 35  1  0
  6  7  1  0
  7  8  1  0
  7 14  1  0
  7 44  1  6
  8  9  2  3
  8 45  1  0
  9 10  1  0
  9 46  1  0
 10 13  1  0
 10 11  1  0
 10 47  1  0
 11 12  1  0
 11 48  1  0
 11 49  1  0
 12 13  1  0
 12 50  1  0
 12 51  1  0
 13 52  1  0
 13 53  1  0
 14 34  1  0
 14 15  1  1
 14 16  1  0
 15 54  1  0
 15 55  1  0
 15 56  1  0
 16 17  1  0
 16 18  1  0
 16 57  1  6
 17 58  1  0
 18 33  1  0
 18 19  1  0
 18 59  1  6
 19 30  1  0
 19 20  1  0
 19 60  1  1
 20 21  1  0
 20 61  1  0
 20 62  1  0
 21 22  1  0
 21 63  1  0
 21 64  1  0
 22 28  1  0
 22 23  1  0
 22 65  1  6
 23 24  1  0
 23 66  1  0
 23 67  1  0
 24 25  1  0
 24 26  1  0
 24 68  1  6
 25 69  1  0
 26 27  1  0
 26 70  1  0
 26 71  1  0
 27 28  1  0
 27 72  1  0
 27 73  1  0
 28 29  1  1
 28 30  1  0
 29 74  1  0
 29 75  1  0
 29 76  1  0
 30 31  1  0
 30 77  1  6
 31 32  1  0
 31 78  1  0
 31 79  1  0
 32 33  1  0
 32 80  1  0
 32 81  1  0
 33 34  1  0
 33 82  1  1
 34 35  1  0
 34 83  1  1
 35 36  1  0
 36 84  1  0
 36 85  1  0
M  END
>  <i_m_ct_stereo_status>  (193) 
1

>  <s_m_source_file>  (193) 
/var/tmp/pbs.5076255.sched01/tmp25xsusm8/82mdre8bl4.sdf

>  <i_m_source_file_index>  (193) 
16

>  <i_lp_mmshare_version>  (193) 
48012

>  <i_f3d_flags>  (193) 
0

>  <s_epik_input>  (193) 
TzFbQ0BIXShbQ0BAXTEyMylbQ0gyXVtDQEBIXShbQ0gzXSlbQ0gyXU4zW0NAQEhdNFtDQF0oW0NIM10pKFtDQEBIXTIvW0NIXT1bQ0hdL1tDSF01W0NIMl1bQ0gyXVtDSDJdNSlbQ0BASF0oW09IXSlbQ0BASF02W0NAQEhdN1tDQEhdKFtDSDJdW0NIMl1bQ0BASF00NilbQ0BdOChbQ0gzXSlbQ0BIXShbQ0gyXVtDSDJdNylbQ0gyXVtDQEBIXShbT0hdKVtDSDJdW0NIMl04

>  <s_epik_cmdline>  (193) 
J2VwaWtfcHl0aG9uJywgJy1waHQnLCAnMi4wJywgJy1waCcsICc3LjAnLCAnLXRuJywgJzgnLCAnLW1hJywgJzIwMCcsICctaW1hZScsICc8aW5maWxlLm1hZT4nLCAnLW9tYWUnLCAnPG91dGZpbGUubWFlPic=

>  <r_epik_Ionization_Penalty>  (193) 
0.0117577

>  <r_epik_Ionization_Penalty_Charging>  (193) 
0

>  <r_epik_Ionization_Penalty_Neutral>  (193) 
0.0117577

>  <r_epik_State_Penalty>  (193) 
0.00906251

>  <r_epik_Charging_Adjusted_Penalty>  (193) 
0.00906251

>  <i_epik_Tot_Q>  (193) 
0

>  <i_epik_Tot_abs_Q>  (193) 
0

>  <s_lp_Force_Field>  (193) 
OPLS3e

>  <r_lp_Energy>  (193) 
86.9498

>  <b_lp_Chiralities_Consistent>  (193) 
1

>  <s_lp_Variant>  (193) 
72:0-1

>  <s_i_glide_gridfile>  (193) 
pfpi4k_grid

>  <i_i_glide_lignum>  (193) 
16

>  <i_i_glide_rotatable_bonds>  (193) 
4

>  <r_i_docking_score>  (193) 
-1.89695

>  <r_i_glide_ligand_efficiency>  (193) 
-0.0526931

>  <r_i_glide_ligand_efficiency_sa>  (193) 
-0.173989

>  <r_i_glide_ligand_efficiency_ln>  (193) 
-0.413863

>  <r_i_glide_gscore>  (193) 
-1.89695

>  <r_i_glide_lipo>  (193) 
-0.324328

>  <r_i_glide_hbond>  (193) 
0

>  <r_i_glide_metal>  (193) 
-0

>  <r_i_glide_rewards>  (193) 
-0.0290703

>  <r_i_glide_evdw>  (193) 
-28.1549

>  <r_i_glide_ecoul>  (193) 
-1.92419

>  <r_i_glide_erotb>  (193) 
0.165917

>  <r_i_glide_esite>  (193) 
-0.0130949

>  <r_i_glide_emodel>  (193) 
-33.2534

>  <r_i_glide_energy>  (193) 
-30.0791

>  <r_i_glide_einternal>  (193) 
1.42333

>  <r_i_glide_intrahb_reward>  (193) 
-0

>  <i_i_glide_confnum>  (193) 
4

>  <i_i_glide_posenum>  (193) 
12

>  <r_i_glide_eff_state_penalty>  (193) 
0

>  <ligand_id>  (193) 
72

>  <original_smiles>  (193) 
CC1CC2OC23C(C=CC2CCC2)C2(C)C(O)C4C5CCC6CC(O)CCC6(C)C5CCC4C2N3C1

>  <smiles>  (193) 
[H]OC1([H])C([H])([H])C([H])([H])C2(C([H])([H])[H])C([H])(C([H])([H])C([H])([H])C3([H])C4([H])C([H])(O[H])C5(C([H])([H])[H])C([H])(C([H])=C([H])C6([H])C([H])([H])C([H])([H])C6([H])[H])C67OC6([H])C([H])([H])C([H])(C([H])([H])[H])C([H])([H])N7C5([H])C4([H])C([H])([H])C([H])([H])C32[H])C1([H])[H]

$$$$
72:1:0
     RDKit          3D

 85 92  0  0  1  0  0  0  0  0999 V2000
    1.3912  -10.5078    3.7246 C   0  0  0  0  0  0  0  0  0  0  0  0
    1.8630  -10.1663    5.1487 C   0  0  2  0  0  0  0  0  0  0  0  0
    0.6639   -9.9092    6.0768 C   0  0  0  0  0  0  0  0  0  0  0  0
    0.2340   -8.4313    6.1487 C   0  0  2  0  0  0  0  0  0  0  0  0
   -0.0277   -7.7389    4.9281 O   0  0  0  0  0  0  0  0  0  0  0  0
    1.1900   -7.4176    5.5890 C   0  0  1  0  0  0  0  0  0  0  0  0
    1.3120   -5.9562    6.0282 C   0  0  1  0  0  0  0  0  0  0  0  0
    0.7813   -5.6024    7.3974 C   0  0  0  0  0  0  0  0  0  0  0  0
    0.8751   -6.2780    8.5627 C   0  0  0  0  0  0  0  0  0  0  0  0
    1.5869   -7.6041    8.8050 C   0  0  0  0  0  0  0  0  0  0  0  0
    0.6928   -8.7195    9.3543 C   0  0  0  0  0  0  0  0  0  0  0  0
    1.1403   -8.3435   10.7581 C   0  0  0  0  0  0  0  0  0  0  0  0
    2.3687   -7.6611   10.1195 C   0  0  0  0  0  0  0  0  0  0  0  0
    2.8122   -5.6299    5.7719 C   0  0  2  0  0  0  0  0  0  0  0  0
    3.7559   -5.8635    6.9714 C   0  0  0  0  0  0  0  0  0  0  0  0
    2.9745   -4.2050    5.1234 C   0  0  1  0  0  0  0  0  0  0  0  0
    3.8793   -3.3566    5.7914 O   0  0  0  0  0  0  0  0  0  0  0  0
    3.4628   -4.4480    3.6735 C   0  0  2  0  0  0  0  0  0  0  0  0
    2.9917   -3.4818    2.5548 C   0  0  1  0  0  0  0  0  0  0  0  0
    3.2172   -1.9775    2.8419 C   0  0  0  0  0  0  0  0  0  0  0  0
    4.5860   -1.4509    2.3955 C   0  0  0  0  0  0  0  0  0  0  0  0
    4.8716   -1.7752    0.9152 C   0  0  2  0  0  0  0  0  0  0  0  0
    3.9228   -0.9823   -0.0205 C   0  0  0  0  0  0  0  0  0  0  0  0
    4.1665   -1.2545   -1.5096 C   0  0  1  0  0  0  0  0  0  0  0  0
    5.4140   -0.6668   -1.8680 O   0  0  0  0  0  0  0  0  0  0  0  0
    4.1495   -2.7501   -1.8126 C   0  0  0  0  0  0  0  0  0  0  0  0
    5.1042   -3.5207   -0.8845 C   0  0  0  0  0  0  0  0  0  0  0  0
    4.8506   -3.3162    0.6420 C   0  0  1  0  0  0  0  0  0  0  0  0
    6.0669   -3.9683    1.3434 C   0  0  0  0  0  0  0  0  0  0  0  0
    3.4708   -3.9205    1.1219 C   0  0  1  0  0  0  0  0  0  0  0  0
    3.2684   -5.4546    0.8891 C   0  0  0  0  0  0  0  0  0  0  0  0
    3.6373   -6.3651    2.0751 C   0  0  0  0  0  0  0  0  0  0  0  0
    2.9569   -5.8448    3.3448 C   0  0  1  0  0  0  0  0  0  0  0  0
    3.1852   -6.6174    4.6433 C   0  0  2  0  0  0  0  0  0  0  0  0
    2.2810   -7.7643    4.6985 N   0  0  0  0  0  0  0  0  0  0  0  0
    2.8915   -9.0146    5.1609 C   0  0  0  0  0  0  0  0  0  0  0  0
    0.8177   -9.6826    3.3001 H   0  0  0  0  0  0  0  0  0  0  0  0
    0.7514  -11.3910    3.7537 H   0  0  0  0  0  0  0  0  0  0  0  0
    2.2429  -10.7232    3.0773 H   0  0  0  0  0  0  0  0  0  0  0  0
    2.3841  -11.0511    5.5333 H   0  0  0  0  0  0  0  0  0  0  0  0
   -0.1801  -10.5331    5.8061 H   0  0  0  0  0  0  0  0  0  0  0  0
    0.9693  -10.2054    7.0700 H   0  0  0  0  0  0  0  0  0  0  0  0
   -0.3974   -8.2060    6.9957 H   0  0  0  0  0  0  0  0  0  0  0  0
    0.6978   -5.4147    5.3136 H   0  0  0  0  0  0  0  0  0  0  0  0
    0.2557   -4.6415    7.4282 H   0  0  0  0  0  0  0  0  0  0  0  0
    0.4228   -5.8240    9.4312 H   0  0  0  0  0  0  0  0  0  0  0  0
    2.1570   -7.9742    7.9596 H   0  0  0  0  0  0  0  0  0  0  0  0
   -0.3843   -8.6130    9.1746 H   0  0  0  0  0  0  0  0  0  0  0  0
    1.0625   -9.7075    9.0931 H   0  0  0  0  0  0  0  0  0  0  0  0
    0.4339   -7.6582   11.2336 H   0  0  0  0  0  0  0  0  0  0  0  0
    1.3550   -9.2197   11.3729 H   0  0  0  0  0  0  0  0  0  0  0  0
    3.2493   -8.3007   10.0549 H   0  0  0  0  0  0  0  0  0  0  0  0
    2.6237   -6.6887   10.5554 H   0  0  0  0  0  0  0  0  0  0  0  0
    4.8026   -5.6651    6.7031 H   0  0  0  0  0  0  0  0  0  0  0  0
    3.6835   -6.8684    7.3451 H   0  0  0  0  0  0  0  0  0  0  0  0
    3.5272   -5.1834    7.7824 H   0  0  0  0  0  0  0  0  0  0  0  0
    2.0256   -3.6788    5.0815 H   0  0  0  0  0  0  0  0  0  0  0  0
    4.7256   -3.8105    5.8363 H   0  0  0  0  0  0  0  0  0  0  0  0
    4.5514   -4.4990    3.6947 H   0  0  0  0  0  0  0  0  0  0  0  0
    1.9045   -3.5872    2.5462 H   0  0  0  0  0  0  0  0  0  0  0  0
    2.4388   -1.4082    2.3355 H   0  0  0  0  0  0  0  0  0  0  0  0
    3.0678   -1.7568    3.8981 H   0  0  0  0  0  0  0  0  0  0  0  0
    4.6212   -0.3701    2.5497 H   0  0  0  0  0  0  0  0  0  0  0  0
    5.3642   -1.8589    3.0415 H   0  0  0  0  0  0  0  0  0  0  0  0
    5.8801   -1.4104    0.7097 H   0  0  0  0  0  0  0  0  0  0  0  0
    2.8816   -1.2303    0.1868 H   0  0  0  0  0  0  0  0  0  0  0  0
    4.0123    0.0856    0.1875 H   0  0  0  0  0  0  0  0  0  0  0  0
    3.3946   -0.7516   -2.0965 H   0  0  0  0  0  0  0  0  0  0  0  0
    5.3463    0.2310   -1.7049 H   0  0  0  0  0  0  0  0  0  0  0  0
    3.1313   -3.1294   -1.7115 H   0  0  0  0  0  0  0  0  0  0  0  0
    4.4276   -2.9151   -2.8548 H   0  0  0  0  0  0  0  0  0  0  0  0
    5.0918   -4.5749   -1.1573 H   0  0  0  0  0  0  0  0  0  0  0  0
    6.1160   -3.1850   -1.1209 H   0  0  0  0  0  0  0  0  0  0  0  0
    6.1248   -5.0366    1.1345 H   0  0  0  0  0  0  0  0  0  0  0  0
    6.0667   -3.8382    2.4217 H   0  0  0  0  0  0  0  0  0  0  0  0
    7.0025   -3.5301    0.9919 H   0  0  0  0  0  0  0  0  0  0  0  0
    2.7365   -3.4654    0.4565 H   0  0  0  0  0  0  0  0  0  0  0  0
    2.2106   -5.6132    0.6890 H   0  0  0  0  0  0  0  0  0  0  0  0
    3.7722   -5.8006   -0.0100 H   0  0  0  0  0  0  0  0  0  0  0  0
    3.3232   -7.3900    1.8670 H   0  0  0  0  0  0  0  0  0  0  0  0
    4.7162   -6.4081    2.2206 H   0  0  0  0  0  0  0  0  0  0  0  0
    1.8760   -5.8044    3.1486 H   0  0  0  0  0  0  0  0  0  0  0  0
    4.2187   -6.9572    4.7039 H   0  0  0  0  0  0  0  0  0  0  0  0
    3.2840   -8.8577    6.1682 H   0  0  0  0  0  0  0  0  0  0  0  0
    3.7256   -9.2364    4.5043 H   0  0  0  0  0  0  0  0  0  0  0  0
  1  2  1  0
  1 37  1  0
  1 38  1  0
  1 39  1  0
  2 36  1  0
  2  3  1  0
  2 40  1  1
  3  4  1  0
  3 41  1  0
  3 42  1  0
  4  6  1  0
  4  5  1  0
  4 43  1  1
  6  5  1  6
  6 35  1  0
  6  7  1  0
  7  8  1  0
  7 14  1  0
  7 44  1  6
  8  9  2  3
  8 45  1  0
  9 10  1  0
  9 46  1  0
 10 13  1  0
 10 11  1  0
 10 47  1  0
 11 12  1  0
 11 48  1  0
 11 49  1  0
 12 13  1  0
 12 50  1  0
 12 51  1  0
 13 52  1  0
 13 53  1  0
 14 34  1  0
 14 15  1  1
 14 16  1  0
 15 54  1  0
 15 55  1  0
 15 56  1  0
 16 17  1  0
 16 18  1  0
 16 57  1  6
 17 58  1  0
 18 33  1  0
 18 19  1  0
 18 59  1  1
 19 30  1  0
 19 20  1  0
 19 60  1  6
 20 21  1  0
 20 61  1  0
 20 62  1  0
 21 22  1  0
 21 63  1  0
 21 64  1  0
 22 28  1  0
 22 23  1  0
 22 65  1  6
 23 24  1  0
 23 66  1  0
 23 67  1  0
 24 25  1  0
 24 26  1  0
 24 68  1  6
 25 69  1  0
 26 27  1  0
 26 70  1  0
 26 71  1  0
 27 28  1  0
 27 72  1  0
 27 73  1  0
 28 29  1  1
 28 30  1  0
 29 74  1  0
 29 75  1  0
 29 76  1  0
 30 31  1  0
 30 77  1  6
 31 32  1  0
 31 78  1  0
 31 79  1  0
 32 33  1  0
 32 80  1  0
 32 81  1  0
 33 34  1  0
 33 82  1  6
 34 35  1  0
 34 83  1  1
 35 36  1  0
 36 84  1  0
 36 85  1  0
M  END
>  <i_m_ct_stereo_status>  (194) 
1

>  <s_m_source_file>  (194) 
/var/tmp/pbs.5076255.sched01/tmp25xsusm8/82mdre8bl4.sdf

>  <i_m_source_file_index>  (194) 
17

>  <i_lp_mmshare_version>  (194) 
48012

>  <i_f3d_flags>  (194) 
0

>  <s_epik_input>  (194) 
TzFbQ0BIXShbQ0BAXTEyMylbQ0gyXVtDQEBIXShbQ0gzXSlbQ0gyXU4zW0NAQEhdNFtDQF0oW0NIM10pKFtDQEBIXTIvW0NIXT1bQ0hdL1tDSF01W0NIMl1bQ0gyXVtDSDJdNSlbQ0BASF0oW09IXSlbQ0BASF02W0NAQEhdN1tDQEhdKFtDSDJdW0NIMl1bQ0BASF00NilbQ0BdOChbQ0gzXSlbQ0BIXShbQ0gyXVtDSDJdNylbQ0gyXVtDQEBIXShbT0hdKVtDSDJdW0NIMl04

>  <s_epik_cmdline>  (194) 
J2VwaWtfcHl0aG9uJywgJy1waHQnLCAnMi4wJywgJy1waCcsICc3LjAnLCAnLXRuJywgJzgnLCAnLW1hJywgJzIwMCcsICctaW1hZScsICc8aW5maWxlLm1hZT4nLCAnLW9tYWUnLCAnPG91dGZpbGUubWFlPic=

>  <r_epik_Ionization_Penalty>  (194) 
0.0117577

>  <r_epik_Ionization_Penalty_Charging>  (194) 
0

>  <r_epik_Ionization_Penalty_Neutral>  (194) 
0.0117577

>  <r_epik_State_Penalty>  (194) 
0.00906251

>  <r_epik_Charging_Adjusted_Penalty>  (194) 
0.00906251

>  <i_epik_Tot_Q>  (194) 
0

>  <i_epik_Tot_abs_Q>  (194) 
0

>  <s_lp_Force_Field>  (194) 
OPLS3e

>  <r_lp_Energy>  (194) 
87.8911

>  <b_lp_Chiralities_Consistent>  (194) 
1

>  <s_lp_Variant>  (194) 
72:0-2

>  <s_i_glide_gridfile>  (194) 
pfpi4k_grid

>  <i_i_glide_lignum>  (194) 
17

>  <i_i_glide_rotatable_bonds>  (194) 
4

>  <r_i_docking_score>  (194) 
-2.58097

>  <r_i_glide_ligand_efficiency>  (194) 
-0.0716935

>  <r_i_glide_ligand_efficiency_sa>  (194) 
-0.236727

>  <r_i_glide_ligand_efficiency_ln>  (194) 
-0.563097

>  <r_i_glide_gscore>  (194) 
-2.58097

>  <r_i_glide_lipo>  (194) 
-0.333261

>  <r_i_glide_hbond>  (194) 
-0.326248

>  <r_i_glide_metal>  (194) 
-0

>  <r_i_glide_rewards>  (194) 
-0.0290703

>  <r_i_glide_evdw>  (194) 
-27.8856

>  <r_i_glide_ecoul>  (194) 
-4.38133

>  <r_i_glide_erotb>  (194) 
0.165917

>  <r_i_glide_esite>  (194) 
-0.00682465

>  <r_i_glide_emodel>  (194) 
-34.3561

>  <r_i_glide_energy>  (194) 
-32.2669

>  <r_i_glide_einternal>  (194) 
5.45862

>  <r_i_glide_intrahb_reward>  (194) 
-0

>  <i_i_glide_confnum>  (194) 
1

>  <i_i_glide_posenum>  (194) 
23

>  <r_i_glide_eff_state_penalty>  (194) 
0

>  <ligand_id>  (194) 
72

>  <original_smiles>  (194) 
CC1CC2OC23C(C=CC2CCC2)C2(C)C(O)C4C5CCC6CC(O)CCC6(C)C5CCC4C2N3C1

>  <smiles>  (194) 
[H]OC1([H])C([H])([H])C([H])([H])C2(C([H])([H])[H])C([H])(C([H])([H])C([H])([H])C3([H])C4([H])C([H])(O[H])C5(C([H])([H])[H])C([H])(C([H])=C([H])C6([H])C([H])([H])C([H])([H])C6([H])[H])C67OC6([H])C([H])([H])C([H])(C([H])([H])[H])C([H])([H])N7C5([H])C4([H])C([H])([H])C([H])([H])C32[H])C1([H])[H]

$$$$
72:1:1
     RDKit          3D

 85 92  0  0  1  0  0  0  0  0999 V2000
    1.0035  -10.1136    4.4117 C   0  0  0  0  0  0  0  0  0  0  0  0
    1.9019   -9.9186    5.6449 C   0  0  2  0  0  0  0  0  0  0  0  0
    1.1268   -9.5191    6.9164 C   0  0  0  0  0  0  0  0  0  0  0  0
    1.0671   -8.0103    7.0647 C   0  0  2  0  0  0  0  0  0  0  0  0
    0.5321   -7.2922    5.9747 O   0  0  0  0  0  0  0  0  0  0  0  0
    1.9262   -7.1365    6.2110 C   0  0  1  0  0  0  0  0  0  0  0  0
    2.3442   -5.7029    6.5038 C   0  0  1  0  0  0  0  0  0  0  0  0
    2.2432   -5.2751    7.9729 C   0  0  0  0  0  0  0  0  0  0  0  0
    1.2919   -4.5094    8.5774 C   0  0  0  0  0  0  0  0  0  0  0  0
    0.0450   -3.8430    8.0017 C   0  0  0  0  0  0  0  0  0  0  0  0
   -1.2699   -4.2333    8.7069 C   0  0  0  0  0  0  0  0  0  0  0  0
   -1.9523   -4.3073    7.3322 C   0  0  0  0  0  0  0  0  0  0  0  0
   -0.5426   -4.5229    6.7541 C   0  0  0  0  0  0  0  0  0  0  0  0
    3.7488   -5.6218    5.8573 C   0  0  2  0  0  0  0  0  0  0  0  0
    4.8706   -6.0789    6.8225 C   0  0  0  0  0  0  0  0  0  0  0  0
    3.9907   -4.2363    5.1645 C   0  0  1  0  0  0  0  0  0  0  0  0
    5.1850   -3.6081    5.5809 O   0  0  0  0  0  0  0  0  0  0  0  0
    4.0144   -4.5146    3.6490 C   0  0  2  0  0  0  0  0  0  0  0  0
    3.4339   -3.4392    2.6871 C   0  0  1  0  0  0  0  0  0  0  0  0
    3.9892   -2.0104    2.8736 C   0  0  0  0  0  0  0  0  0  0  0  0
    5.2557   -1.7140    2.0632 C   0  0  0  0  0  0  0  0  0  0  0  0
    5.0683   -2.0319    0.5715 C   0  0  2  0  0  0  0  0  0  0  0  0
    4.0594   -1.0552   -0.0921 C   0  0  0  0  0  0  0  0  0  0  0  0
    3.8431   -1.3150   -1.5852 C   0  0  1  0  0  0  0  0  0  0  0  0
    5.0143   -0.9698   -2.3000 O   0  0  0  0  0  0  0  0  0  0  0  0
    3.4835   -2.7799   -1.8476 C   0  0  0  0  0  0  0  0  0  0  0  0
    4.5039   -3.7248   -1.1937 C   0  0  0  0  0  0  0  0  0  0  0  0
    4.7071   -3.5376    0.3411 C   0  0  1  0  0  0  0  0  0  0  0  0
    5.9315   -4.4175    0.6942 C   0  0  0  0  0  0  0  0  0  0  0  0
    3.4252   -3.9148    1.1836 C   0  0  1  0  0  0  0  0  0  0  0  0
    2.8993   -5.3775    1.0453 C   0  0  0  0  0  0  0  0  0  0  0  0
    3.4094   -6.3781    2.0996 C   0  0  0  0  0  0  0  0  0  0  0  0
    3.1953   -5.7954    3.4982 C   0  0  1  0  0  0  0  0  0  0  0  0
    3.6278   -6.6414    4.6992 C   0  0  2  0  0  0  0  0  0  0  0  0
    2.5945   -7.6139    5.0381 N   0  0  0  0  0  0  0  0  0  0  0  0
    3.0790   -8.9441    5.3364 C   0  0  0  0  0  0  0  0  0  0  0  0
    0.4982   -9.1925    4.1275 H   0  0  0  0  0  0  0  0  0  0  0  0
    0.2378  -10.8674    4.5965 H   0  0  0  0  0  0  0  0  0  0  0  0
    1.5907  -10.4458    3.5460 H   0  0  0  0  0  0  0  0  0  0  0  0
    2.3208  -10.8794    5.8458 H   0  0  0  0  0  0  0  0  0  0  0  0
    0.0957   -9.8793    6.8712 H   0  0  0  0  0  0  0  0  0  0  0  0
    1.5877   -9.9593    7.8307 H   0  0  0  0  0  0  0  0  0  0  0  0
    0.7692   -7.6651    8.0496 H   0  0  0  0  0  0  0  0  0  0  0  0
    1.7198   -5.0477    5.8920 H   0  0  0  0  0  0  0  0  0  0  0  0
    3.0115   -5.6506    8.6197 H   0  0  0  0  0  0  0  0  0  0  0  0
    1.4331   -4.3396    9.6315 H   0  0  0  0  0  0  0  0  0  0  0  0
    0.1651   -2.7589    7.9020 H   0  0  0  0  0  0  0  0  0  0  0  0
   -1.2195   -5.2091    9.2169 H   0  0  0  0  0  0  0  0  0  0  0  0
   -1.6853   -3.4756    9.3660 H   0  0  0  0  0  0  0  0  0  0  0  0
   -2.5618   -5.1944    7.1710 H   0  0  0  0  0  0  0  0  0  0  0  0
   -2.4386   -3.4068    6.9678 H   0  0  0  0  0  0  0  0  0  0  0  0
   -0.3543   -3.9927    5.8034 H   0  0  0  0  0  0  0  0  0  0  0  0
   -0.3722   -5.5845    6.7411 H   0  0  0  0  0  0  0  0  0  0  0  0
    5.8115   -6.2145    6.2984 H   0  0  0  0  0  0  0  0  0  0  0  0
    4.6124   -7.0336    7.2777 H   0  0  0  0  0  0  0  0  0  0  0  0
    5.0332   -5.3639    7.6300 H   0  0  0  0  0  0  0  0  0  0  0  0
    3.1746   -3.5367    5.3946 H   0  0  0  0  0  0  0  0  0  0  0  0
    5.9173   -4.1821    5.3909 H   0  0  0  0  0  0  0  0  0  0  0  0
    5.0389   -4.7569    3.3806 H   0  0  0  0  0  0  0  0  0  0  0  0
    2.3860   -3.3574    2.9795 H   0  0  0  0  0  0  0  0  0  0  0  0
    3.2163   -1.2958    2.5827 H   0  0  0  0  0  0  0  0  0  0  0  0
    4.1781   -1.8041    3.9218 H   0  0  0  0  0  0  0  0  0  0  0  0
    5.5288   -0.6643    2.1821 H   0  0  0  0  0  0  0  0  0  0  0  0
    6.0942   -2.2687    2.4753 H   0  0  0  0  0  0  0  0  0  0  0  0
    6.0245   -1.8453    0.0890 H   0  0  0  0  0  0  0  0  0  0  0  0
    3.0854   -1.1300    0.3804 H   0  0  0  0  0  0  0  0  0  0  0  0
    4.3861   -0.0216    0.0587 H   0  0  0  0  0  0  0  0  0  0  0  0
    3.0408   -0.6820   -1.9541 H   0  0  0  0  0  0  0  0  0  0  0  0
    4.7867   -0.9721   -3.2199 H   0  0  0  0  0  0  0  0  0  0  0  0
    2.4873   -2.9785   -1.4657 H   0  0  0  0  0  0  0  0  0  0  0  0
    3.4277   -2.9703   -2.9221 H   0  0  0  0  0  0  0  0  0  0  0  0
    4.2397   -4.7480   -1.4258 H   0  0  0  0  0  0  0  0  0  0  0  0
    5.4549   -3.5712   -1.7013 H   0  0  0  0  0  0  0  0  0  0  0  0
    5.7401   -5.4710    0.4965 H   0  0  0  0  0  0  0  0  0  0  0  0
    6.2472   -4.3230    1.7247 H   0  0  0  0  0  0  0  0  0  0  0  0
    6.7985   -4.1401    0.0932 H   0  0  0  0  0  0  0  0  0  0  0  0
    2.6411   -3.3203    0.7333 H   0  0  0  0  0  0  0  0  0  0  0  0
    1.8075   -5.3430    1.1428 H   0  0  0  0  0  0  0  0  0  0  0  0
    3.0758   -5.7755    0.0538 H   0  0  0  0  0  0  0  0  0  0  0  0
    2.8687   -7.3227    1.9996 H   0  0  0  0  0  0  0  0  0  0  0  0
    4.4643   -6.6099    1.9460 H   0  0  0  0  0  0  0  0  0  0  0  0
    2.1360   -5.5598    3.6075 H   0  0  0  0  0  0  0  0  0  0  0  0
    4.5784   -7.1412    4.4842 H   0  0  0  0  0  0  0  0  0  0  0  0
    3.7631   -8.9206    6.1882 H   0  0  0  0  0  0  0  0  0  0  0  0
    3.6435   -9.3223    4.4770 H   0  0  0  0  0  0  0  0  0  0  0  0
  1  2  1  0
  1 37  1  0
  1 38  1  0
  1 39  1  0
  2 36  1  0
  2  3  1  0
  2 40  1  1
  3  4  1  0
  3 41  1  0
  3 42  1  0
  4  6  1  0
  4  5  1  0
  4 43  1  1
  6  5  1  6
  6 35  1  0
  6  7  1  0
  7  8  1  0
  7 14  1  0
  7 44  1  6
  8  9  2  3
  8 45  1  0
  9 10  1  0
  9 46  1  0
 10 13  1  0
 10 11  1  0
 10 47  1  0
 11 12  1  0
 11 48  1  0
 11 49  1  0
 12 13  1  0
 12 50  1  0
 12 51  1  0
 13 52  1  0
 13 53  1  0
 14 34  1  0
 14 15  1  1
 14 16  1  0
 15 54  1  0
 15 55  1  0
 15 56  1  0
 16 17  1  0
 16 18  1  0
 16 57  1  6
 17 58  1  0
 18 33  1  0
 18 19  1  0
 18 59  1  6
 19 30  1  0
 19 20  1  0
 19 60  1  1
 20 21  1  0
 20 61  1  0
 20 62  1  0
 21 22  1  0
 21 63  1  0
 21 64  1  0
 22 28  1  0
 22 23  1  0
 22 65  1  6
 23 24  1  0
 23 66  1  0
 23 67  1  0
 24 25  1  0
 24 26  1  0
 24 68  1  6
 25 69  1  0
 26 27  1  0
 26 70  1  0
 26 71  1  0
 27 28  1  0
 27 72  1  0
 27 73  1  0
 28 29  1  1
 28 30  1  0
 29 74  1  0
 29 75  1  0
 29 76  1  0
 30 31  1  0
 30 77  1  6
 31 32  1  0
 31 78  1  0
 31 79  1  0
 32 33  1  0
 32 80  1  0
 32 81  1  0
 33 34  1  0
 33 82  1  1
 34 35  1  0
 34 83  1  6
 35 36  1  0
 36 84  1  0
 36 85  1  0
M  END
>  <i_m_ct_stereo_status>  (195) 
1

>  <s_m_source_file>  (195) 
/var/tmp/pbs.5076255.sched01/tmp25xsusm8/82mdre8bl4.sdf

>  <i_m_source_file_index>  (195) 
17

>  <i_lp_mmshare_version>  (195) 
48012

>  <i_f3d_flags>  (195) 
0

>  <s_epik_input>  (195) 
TzFbQ0BIXShbQ0BAXTEyMylbQ0gyXVtDQEBIXShbQ0gzXSlbQ0gyXU4zW0NAQEhdNFtDQF0oW0NIM10pKFtDQEBIXTIvW0NIXT1bQ0hdL1tDSF01W0NIMl1bQ0gyXVtDSDJdNSlbQ0BASF0oW09IXSlbQ0BASF02W0NAQEhdN1tDQEhdKFtDSDJdW0NIMl1bQ0BASF00NilbQ0BdOChbQ0gzXSlbQ0BIXShbQ0gyXVtDSDJdNylbQ0gyXVtDQEBIXShbT0hdKVtDSDJdW0NIMl04

>  <s_epik_cmdline>  (195) 
J2VwaWtfcHl0aG9uJywgJy1waHQnLCAnMi4wJywgJy1waCcsICc3LjAnLCAnLXRuJywgJzgnLCAnLW1hJywgJzIwMCcsICctaW1hZScsICc8aW5maWxlLm1hZT4nLCAnLW9tYWUnLCAnPG91dGZpbGUubWFlPic=

>  <r_epik_Ionization_Penalty>  (195) 
0.0117577

>  <r_epik_Ionization_Penalty_Charging>  (195) 
0

>  <r_epik_Ionization_Penalty_Neutral>  (195) 
0.0117577

>  <r_epik_State_Penalty>  (195) 
0.00906251

>  <r_epik_Charging_Adjusted_Penalty>  (195) 
0.00906251

>  <i_epik_Tot_Q>  (195) 
0

>  <i_epik_Tot_abs_Q>  (195) 
0

>  <s_lp_Force_Field>  (195) 
OPLS3e

>  <r_lp_Energy>  (195) 
87.8911

>  <b_lp_Chiralities_Consistent>  (195) 
1

>  <s_lp_Variant>  (195) 
72:0-2

>  <s_i_glide_gridfile>  (195) 
pfpi4k_grid

>  <i_i_glide_lignum>  (195) 
17

>  <i_i_glide_rotatable_bonds>  (195) 
4

>  <r_i_docking_score>  (195) 
-1.94084

>  <r_i_glide_ligand_efficiency>  (195) 
-0.0539122

>  <r_i_glide_ligand_efficiency_sa>  (195) 
-0.178014

>  <r_i_glide_ligand_efficiency_ln>  (195) 
-0.423439

>  <r_i_glide_gscore>  (195) 
-1.94084

>  <r_i_glide_lipo>  (195) 
-0.371545

>  <r_i_glide_hbond>  (195) 
0

>  <r_i_glide_metal>  (195) 
-0

>  <r_i_glide_rewards>  (195) 
-0.0290703

>  <r_i_glide_evdw>  (195) 
-30.9171

>  <r_i_glide_ecoul>  (195) 
-1.06248

>  <r_i_glide_erotb>  (195) 
0.165917

>  <r_i_glide_esite>  (195) 
-0.000914564

>  <r_i_glide_emodel>  (195) 
-33.187

>  <r_i_glide_energy>  (195) 
-31.9796

>  <r_i_glide_einternal>  (195) 
2.94264

>  <r_i_glide_intrahb_reward>  (195) 
-0

>  <i_i_glide_confnum>  (195) 
2

>  <i_i_glide_posenum>  (195) 
6

>  <r_i_glide_eff_state_penalty>  (195) 
0

>  <ligand_id>  (195) 
72

>  <original_smiles>  (195) 
CC1CC2OC23C(C=CC2CCC2)C2(C)C(O)C4C5CCC6CC(O)CCC6(C)C5CCC4C2N3C1

>  <smiles>  (195) 
[H]OC1([H])C([H])([H])C([H])([H])C2(C([H])([H])[H])C([H])(C([H])([H])C([H])([H])C3([H])C4([H])C([H])(O[H])C5(C([H])([H])[H])C([H])(C([H])=C([H])C6([H])C([H])([H])C([H])([H])C6([H])[H])C67OC6([H])C([H])([H])C([H])(C([H])([H])[H])C([H])([H])N7C5([H])C4([H])C([H])([H])C([H])([H])C32[H])C1([H])[H]

$$$$
72:1:2
     RDKit          3D

 85 92  0  0  1  0  0  0  0  0999 V2000
    0.7108  -10.3177    3.4067 C   0  0  0  0  0  0  0  0  0  0  0  0
    1.6220  -10.2633    4.6415 C   0  0  2  0  0  0  0  0  0  0  0  0
    0.8629   -9.9518    5.9503 C   0  0  0  0  0  0  0  0  0  0  0  0
    0.8838   -8.4956    6.3065 C   0  0  2  0  0  0  0  0  0  0  0  0
    0.3414   -7.5997    5.3306 O   0  0  0  0  0  0  0  0  0  0  0  0
    1.7587   -7.5271    5.5569 C   0  0  1  0  0  0  0  0  0  0  0  0
    2.2873   -6.1853    5.9454 C   0  0  1  0  0  0  0  0  0  0  0  0
    2.2383   -5.9579    7.4537 C   0  0  0  0  0  0  0  0  0  0  0  0
    1.6157   -4.9655    8.1195 C   0  0  0  0  0  0  0  0  0  0  0  0
    0.7682   -3.8458    7.5411 C   0  0  0  0  0  0  0  0  0  0  0  0
   -0.3026   -3.3252    8.5214 C   0  0  0  0  0  0  0  0  0  0  0  0
   -1.3218   -4.2421    7.8360 C   0  0  0  0  0  0  0  0  0  0  0  0
   -0.3977   -4.2742    6.6260 C   0  0  0  0  0  0  0  0  0  0  0  0
    3.6739   -6.1292    5.2928 C   0  0  2  0  0  0  0  0  0  0  0  0
    4.7784   -6.7244    6.1886 C   0  0  0  0  0  0  0  0  0  0  0  0
    3.9531   -4.6852    4.7469 C   0  0  1  0  0  0  0  0  0  0  0  0
    5.1865   -4.1572    5.2013 O   0  0  0  0  0  0  0  0  0  0  0  0
    3.9522   -4.8024    3.2097 C   0  0  2  0  0  0  0  0  0  0  0  0
    3.4008   -3.6152    2.3762 C   0  0  1  0  0  0  0  0  0  0  0  0
    4.0124   -2.2342    2.6995 C   0  0  0  0  0  0  0  0  0  0  0  0
    5.2798   -1.9026    1.9068 C   0  0  0  0  0  0  0  0  0  0  0  0
    5.0634   -2.0611    0.3907 C   0  0  2  0  0  0  0  0  0  0  0  0
    4.0832   -0.9856   -0.1478 C   0  0  0  0  0  0  0  0  0  0  0  0
    3.8413   -1.0988   -1.6582 C   0  0  1  0  0  0  0  0  0  0  0  0
    5.0055   -0.6976   -2.3283 O   0  0  0  0  0  0  0  0  0  0  0  0
    3.4324   -2.5070   -2.0677 C   0  0  0  0  0  0  0  0  0  0  0  0
    4.4343   -3.5365   -1.5283 C   0  0  0  0  0  0  0  0  0  0  0  0
    4.6462   -3.5127    0.0127 C   0  0  1  0  0  0  0  0  0  0  0  0
    5.8312   -4.4744    0.2507 C   0  0  0  0  0  0  0  0  0  0  0  0
    3.3609   -3.9210    0.8404 C   0  0  1  0  0  0  0  0  0  0  0  0
    2.7637   -5.3338    0.5644 C   0  0  0  0  0  0  0  0  0  0  0  0
    3.2509   -6.4692    1.4896 C   0  0  0  0  0  0  0  0  0  0  0  0
    3.0821   -6.0288    2.9469 C   0  0  1  0  0  0  0  0  0  0  0  0
    3.4775   -7.0278    4.0403 C   0  0  2  0  0  0  0  0  0  0  0  0
    2.3564   -7.9436    4.2860 N   0  0  0  0  0  0  0  0  0  0  0  0
    2.8324   -9.3298    4.4282 C   0  0  0  0  0  0  0  0  0  0  0  0
    0.2376   -9.3516    3.2214 H   0  0  0  0  0  0  0  0  0  0  0  0
   -0.0754  -11.0570    3.5482 H   0  0  0  0  0  0  0  0  0  0  0  0
    1.2829  -10.5967    2.5234 H   0  0  0  0  0  0  0  0  0  0  0  0
    2.0195  -11.2834    4.7562 H   0  0  0  0  0  0  0  0  0  0  0  0
   -0.1671  -10.3113    5.9186 H   0  0  0  0  0  0  0  0  0  0  0  0
    1.3521  -10.4533    6.7673 H   0  0  0  0  0  0  0  0  0  0  0  0
    0.6304   -8.2601    7.3356 H   0  0  0  0  0  0  0  0  0  0  0  0
    1.6625   -5.4571    5.4368 H   0  0  0  0  0  0  0  0  0  0  0  0
    2.7814   -6.6734    8.0543 H   0  0  0  0  0  0  0  0  0  0  0  0
    1.7289   -4.9412    9.1913 H   0  0  0  0  0  0  0  0  0  0  0  0
    1.3791   -3.0242    7.1480 H   0  0  0  0  0  0  0  0  0  0  0  0
   -0.1374   -3.5330    9.5815 H   0  0  0  0  0  0  0  0  0  0  0  0
   -0.5160   -2.2654    8.3581 H   0  0  0  0  0  0  0  0  0  0  0  0
   -1.3878   -5.2215    8.3175 H   0  0  0  0  0  0  0  0  0  0  0  0
   -2.3085   -3.8343    7.6382 H   0  0  0  0  0  0  0  0  0  0  0  0
   -0.6281   -3.5091    5.8829 H   0  0  0  0  0  0  0  0  0  0  0  0
   -0.3797   -5.2661    6.1933 H   0  0  0  0  0  0  0  0  0  0  0  0
    5.7175   -6.8383    5.6437 H   0  0  0  0  0  0  0  0  0  0  0  0
    4.4911   -7.7152    6.5421 H   0  0  0  0  0  0  0  0  0  0  0  0
    4.9679   -6.1092    7.0666 H   0  0  0  0  0  0  0  0  0  0  0  0
    3.1807   -3.9878    5.0546 H   0  0  0  0  0  0  0  0  0  0  0  0
    5.8708   -4.7455    4.9402 H   0  0  0  0  0  0  0  0  0  0  0  0
    4.9628   -5.0573    2.9037 H   0  0  0  0  0  0  0  0  0  0  0  0
    2.3581   -3.5267    2.6916 H   0  0  0  0  0  0  0  0  0  0  0  0
    3.2639   -1.4693    2.5013 H   0  0  0  0  0  0  0  0  0  0  0  0
    4.2260   -2.1488    3.7633 H   0  0  0  0  0  0  0  0  0  0  0  0
    5.5958   -0.8824    2.1272 H   0  0  0  0  0  0  0  0  0  0  0  0
    6.1001   -2.5364    2.2439 H   0  0  0  0  0  0  0  0  0  0  0  0
    6.0278   -1.8563   -0.0815 H   0  0  0  0  0  0  0  0  0  0  0  0
    3.1089   -1.0653    0.3344 H   0  0  0  0  0  0  0  0  0  0  0  0
    4.4532    0.0119    0.0895 H   0  0  0  0  0  0  0  0  0  0  0  0
    3.0509   -0.4412   -2.0033 H   0  0  0  0  0  0  0  0  0  0  0  0
    4.7723   -0.5791   -3.2321 H   0  0  0  0  0  0  0  0  0  0  0  0
    2.4260   -2.7027   -1.6930 H   0  0  0  0  0  0  0  0  0  0  0  0
    3.3539   -2.5686   -3.1523 H   0  0  0  0  0  0  0  0  0  0  0  0
    4.1818   -4.5337   -1.8618 H   0  0  0  0  0  0  0  0  0  0  0  0
    5.3849   -3.3337   -2.0253 H   0  0  0  0  0  0  0  0  0  0  0  0
    5.5909   -5.4891   -0.0610 H   0  0  0  0  0  0  0  0  0  0  0  0
    6.1629   -4.5077    1.2829 H   0  0  0  0  0  0  0  0  0  0  0  0
    6.6998   -4.1684   -0.3323 H   0  0  0  0  0  0  0  0  0  0  0  0
    2.5867   -3.2563    0.4541 H   0  0  0  0  0  0  0  0  0  0  0  0
    1.6851   -5.2781    0.6769 H   0  0  0  0  0  0  0  0  0  0  0  0
    2.9310   -5.6304   -0.4604 H   0  0  0  0  0  0  0  0  0  0  0  0
    2.6695   -7.3731    1.2938 H   0  0  0  0  0  0  0  0  0  0  0  0
    4.2905   -6.7247    1.2864 H   0  0  0  0  0  0  0  0  0  0  0  0
    2.0282   -5.7640    3.0886 H   0  0  0  0  0  0  0  0  0  0  0  0
    4.3999   -7.5413    3.7527 H   0  0  0  0  0  0  0  0  0  0  0  0
    3.5237   -9.4111    5.2772 H   0  0  0  0  0  0  0  0  0  0  0  0
    3.3692   -9.6247    3.5237 H   0  0  0  0  0  0  0  0  0  0  0  0
  1  2  1  0
  1 37  1  0
  1 38  1  0
  1 39  1  0
  2 36  1  0
  2  3  1  0
  2 40  1  1
  3  4  1  0
  3 41  1  0
  3 42  1  0
  4  6  1  0
  4  5  1  0
  4 43  1  1
  6  5  1  6
  6 35  1  0
  6  7  1  0
  7  8  1  0
  7 14  1  0
  7 44  1  6
  8  9  2  3
  8 45  1  0
  9 10  1  0
  9 46  1  0
 10 13  1  0
 10 11  1  0
 10 47  1  0
 11 12  1  0
 11 48  1  0
 11 49  1  0
 12 13  1  0
 12 50  1  0
 12 51  1  0
 13 52  1  0
 13 53  1  0
 14 34  1  0
 14 15  1  1
 14 16  1  0
 15 54  1  0
 15 55  1  0
 15 56  1  0
 16 17  1  0
 16 18  1  0
 16 57  1  6
 17 58  1  0
 18 33  1  0
 18 19  1  0
 18 59  1  6
 19 30  1  0
 19 20  1  0
 19 60  1  1
 20 21  1  0
 20 61  1  0
 20 62  1  0
 21 22  1  0
 21 63  1  0
 21 64  1  0
 22 28  1  0
 22 23  1  0
 22 65  1  6
 23 24  1  0
 23 66  1  0
 23 67  1  0
 24 25  1  0
 24 26  1  0
 24 68  1  6
 25 69  1  0
 26 27  1  0
 26 70  1  0
 26 71  1  0
 27 28  1  0
 27 72  1  0
 27 73  1  0
 28 29  1  6
 28 30  1  0
 29 74  1  0
 29 75  1  0
 29 76  1  0
 30 31  1  0
 30 77  1  6
 31 32  1  0
 31 78  1  0
 31 79  1  0
 32 33  1  0
 32 80  1  0
 32 81  1  0
 33 34  1  0
 33 82  1  1
 34 35  1  0
 34 83  1  6
 35 36  1  0
 36 84  1  0
 36 85  1  0
M  END
>  <i_m_ct_stereo_status>  (196) 
1

>  <s_m_source_file>  (196) 
/var/tmp/pbs.5076255.sched01/tmp25xsusm8/82mdre8bl4.sdf

>  <i_m_source_file_index>  (196) 
17

>  <i_lp_mmshare_version>  (196) 
48012

>  <i_f3d_flags>  (196) 
0

>  <s_epik_input>  (196) 
TzFbQ0BIXShbQ0BAXTEyMylbQ0gyXVtDQEBIXShbQ0gzXSlbQ0gyXU4zW0NAQEhdNFtDQF0oW0NIM10pKFtDQEBIXTIvW0NIXT1bQ0hdL1tDSF01W0NIMl1bQ0gyXVtDSDJdNSlbQ0BASF0oW09IXSlbQ0BASF02W0NAQEhdN1tDQEhdKFtDSDJdW0NIMl1bQ0BASF00NilbQ0BdOChbQ0gzXSlbQ0BIXShbQ0gyXVtDSDJdNylbQ0gyXVtDQEBIXShbT0hdKVtDSDJdW0NIMl04

>  <s_epik_cmdline>  (196) 
J2VwaWtfcHl0aG9uJywgJy1waHQnLCAnMi4wJywgJy1waCcsICc3LjAnLCAnLXRuJywgJzgnLCAnLW1hJywgJzIwMCcsICctaW1hZScsICc8aW5maWxlLm1hZT4nLCAnLW9tYWUnLCAnPG91dGZpbGUubWFlPic=

>  <r_epik_Ionization_Penalty>  (196) 
0.0117577

>  <r_epik_Ionization_Penalty_Charging>  (196) 
0

>  <r_epik_Ionization_Penalty_Neutral>  (196) 
0.0117577

>  <r_epik_State_Penalty>  (196) 
0.00906251

>  <r_epik_Charging_Adjusted_Penalty>  (196) 
0.00906251

>  <i_epik_Tot_Q>  (196) 
0

>  <i_epik_Tot_abs_Q>  (196) 
0

>  <s_lp_Force_Field>  (196) 
OPLS3e

>  <r_lp_Energy>  (196) 
87.8911

>  <b_lp_Chiralities_Consistent>  (196) 
1

>  <s_lp_Variant>  (196) 
72:0-2

>  <s_i_glide_gridfile>  (196) 
pfpi4k_grid

>  <i_i_glide_lignum>  (196) 
17

>  <i_i_glide_rotatable_bonds>  (196) 
4

>  <r_i_docking_score>  (196) 
-1.75543

>  <r_i_glide_ligand_efficiency>  (196) 
-0.0487618

>  <r_i_glide_ligand_efficiency_sa>  (196) 
-0.161008

>  <r_i_glide_ligand_efficiency_ln>  (196) 
-0.382986

>  <r_i_glide_gscore>  (196) 
-1.75543

>  <r_i_glide_lipo>  (196) 
-0.298523

>  <r_i_glide_hbond>  (196) 
0

>  <r_i_glide_metal>  (196) 
-0

>  <r_i_glide_rewards>  (196) 
-0.0290703

>  <r_i_glide_evdw>  (196) 
-27.5773

>  <r_i_glide_ecoul>  (196) 
-1.40441

>  <r_i_glide_erotb>  (196) 
0.165917

>  <r_i_glide_esite>  (196) 
-0.00422224

>  <r_i_glide_emodel>  (196) 
-30.9448

>  <r_i_glide_energy>  (196) 
-28.9817

>  <r_i_glide_einternal>  (196) 
2.87473

>  <r_i_glide_intrahb_reward>  (196) 
-0

>  <i_i_glide_confnum>  (196) 
1

>  <i_i_glide_posenum>  (196) 
11

>  <r_i_glide_eff_state_penalty>  (196) 
0

>  <ligand_id>  (196) 
72

>  <original_smiles>  (196) 
CC1CC2OC23C(C=CC2CCC2)C2(C)C(O)C4C5CCC6CC(O)CCC6(C)C5CCC4C2N3C1

>  <smiles>  (196) 
[H]OC1([H])C([H])([H])C([H])([H])C2(C([H])([H])[H])C([H])(C([H])([H])C([H])([H])C3([H])C4([H])C([H])(O[H])C5(C([H])([H])[H])C([H])(C([H])=C([H])C6([H])C([H])([H])C([H])([H])C6([H])[H])C67OC6([H])C([H])([H])C([H])(C([H])([H])[H])C([H])([H])N7C5([H])C4([H])C([H])([H])C([H])([H])C32[H])C1([H])[H]

$$$$
72:2:0
     RDKit          3D

 86 93  0  0  1  0  0  0  0  0999 V2000
    3.6209   -1.0332   -2.5750 C   0  0  0  0  0  0  0  0  0  0  0  0
    4.6020   -1.8506   -1.7306 C   0  0  2  0  0  0  0  0  0  0  0  0
    4.3751   -3.3780   -1.8570 C   0  0  0  0  0  0  0  0  0  0  0  0
    3.5825   -3.9707   -0.7206 C   0  0  2  0  0  0  0  0  0  0  0  0
    2.2544   -3.4648   -0.4772 O   0  0  0  0  0  0  0  0  0  0  0  0
    3.2474   -3.1807    0.5405 C   0  0  1  0  0  0  0  0  0  0  0  0
    2.9084   -3.6245    1.9277 C   0  0  1  0  0  0  0  0  0  0  0  0
    3.3542   -5.0465    2.2801 C   0  0  0  0  0  0  0  0  0  0  0  0
    2.5484   -5.9938    2.7925 C   0  0  0  0  0  0  0  0  0  0  0  0
    2.9854   -7.4097    3.1559 C   0  0  0  0  0  0  0  0  0  0  0  0
    3.6732   -8.1860    2.0181 C   0  0  0  0  0  0  0  0  0  0  0  0
    2.3219   -8.8243    1.6836 C   0  0  0  0  0  0  0  0  0  0  0  0
    1.8508   -8.4485    3.0897 C   0  0  0  0  0  0  0  0  0  0  0  0
    3.4931   -2.4989    2.8202 C   0  0  2  0  0  0  0  0  0  0  0  0
    4.9714   -2.7369    3.2052 C   0  0  0  0  0  0  0  0  0  0  0  0
    2.5391   -2.2218    4.0310 C   0  0  1  0  0  0  0  0  0  0  0  0
    3.1885   -2.3177    5.2929 O   0  0  0  0  0  0  0  0  0  0  0  0
    1.9633   -0.8079    3.8127 C   0  0  2  0  0  0  0  0  0  0  0  0
    0.5068   -0.5220    4.2791 C   0  0  1  0  0  0  0  0  0  0  0  0
    0.1841   -0.8837    5.7494 C   0  0  0  0  0  0  0  0  0  0  0  0
    0.4776    0.2350    6.7548 C   0  0  0  0  0  0  0  0  0  0  0  0
   -0.2061    1.5590    6.3548 C   0  0  2  0  0  0  0  0  0  0  0  0
   -1.7493    1.4548    6.5009 C   0  0  0  0  0  0  0  0  0  0  0  0
   -2.4721    2.7593    6.1448 C   0  0  1  0  0  0  0  0  0  0  0  0
   -2.2203    3.7389    7.1326 O   0  0  0  0  0  0  0  0  0  0  0  0
   -2.0560    3.2531    4.7550 C   0  0  0  0  0  0  0  0  0  0  0  0
   -0.5274    3.3629    4.6337 C   0  0  0  0  0  0  0  0  0  0  0  0
    0.2588    2.0532    4.9525 C   0  0  1  0  0  0  0  0  0  0  0  0
    1.7432    2.4882    5.0282 C   0  0  0  0  0  0  0  0  0  0  0  0
    0.0170    0.9121    3.8839 C   0  0  1  0  0  0  0  0  0  0  0  0
    0.3815    1.2486    2.4034 C   0  0  0  0  0  0  0  0  0  0  0  0
    1.8068    0.8416    1.9598 C   0  0  0  0  0  0  0  0  0  0  0  0
    2.0439   -0.6310    2.2945 C   0  0  1  0  0  0  0  0  0  0  0  0
    3.3967   -1.2562    1.8747 C   0  0  2  0  0  0  0  0  0  0  0  0
    3.4412   -1.7382    0.4859 N   0  0  1  0  0  0  0  0  0  0  0  0
    4.6517   -1.3694   -0.2574 C   0  0  0  0  0  0  0  0  0  0  0  0
    2.5992   -1.1389   -2.2098 H   0  0  0  0  0  0  0  0  0  0  0  0
    3.6308   -1.3223   -3.6259 H   0  0  0  0  0  0  0  0  0  0  0  0
    3.8762    0.0267   -2.5347 H   0  0  0  0  0  0  0  0  0  0  0  0
    5.5803   -1.6630   -2.1829 H   0  0  0  0  0  0  0  0  0  0  0  0
    3.8626   -3.6216   -2.7911 H   0  0  0  0  0  0  0  0  0  0  0  0
    5.3285   -3.8921   -1.8962 H   0  0  0  0  0  0  0  0  0  0  0  0
    3.6358   -5.0616   -0.6335 H   0  0  0  0  0  0  0  0  0  0  0  0
    1.8163   -3.6083    1.9915 H   0  0  0  0  0  0  0  0  0  0  0  0
    4.3967   -5.2843    2.1143 H   0  0  0  0  0  0  0  0  0  0  0  0
    1.5112   -5.7604    2.9837 H   0  0  0  0  0  0  0  0  0  0  0  0
    3.5295   -7.4358    4.0990 H   0  0  0  0  0  0  0  0  0  0  0  0
    4.1032   -7.5868    1.2176 H   0  0  0  0  0  0  0  0  0  0  0  0
    4.3903   -8.9230    2.3894 H   0  0  0  0  0  0  0  0  0  0  0  0
    1.7726   -8.2788    0.9107 H   0  0  0  0  0  0  0  0  0  0  0  0
    2.3532   -9.8900    1.4724 H   0  0  0  0  0  0  0  0  0  0  0  0
    2.0014   -9.2706    3.7991 H   0  0  0  0  0  0  0  0  0  0  0  0
    0.8373   -8.0617    3.1530 H   0  0  0  0  0  0  0  0  0  0  0  0
    5.4053   -1.8649    3.6996 H   0  0  0  0  0  0  0  0  0  0  0  0
    5.5863   -2.9384    2.3267 H   0  0  0  0  0  0  0  0  0  0  0  0
    5.0907   -3.5850    3.8800 H   0  0  0  0  0  0  0  0  0  0  0  0
    1.7250   -2.9381    4.0498 H   0  0  0  0  0  0  0  0  0  0  0  0
    3.8739   -1.6884    5.3417 H   0  0  0  0  0  0  0  0  0  0  0  0
    2.6562   -0.1043    4.2645 H   0  0  0  0  0  0  0  0  0  0  0  0
   -0.1016   -1.2178    3.6977 H   0  0  0  0  0  0  0  0  0  0  0  0
   -0.8687   -1.1444    5.8183 H   0  0  0  0  0  0  0  0  0  0  0  0
    0.7125   -1.7877    6.0524 H   0  0  0  0  0  0  0  0  0  0  0  0
    0.1502   -0.0648    7.7496 H   0  0  0  0  0  0  0  0  0  0  0  0
    1.5556    0.3726    6.8459 H   0  0  0  0  0  0  0  0  0  0  0  0
    0.1098    2.3020    7.0928 H   0  0  0  0  0  0  0  0  0  0  0  0
   -2.1385    0.6781    5.8423 H   0  0  0  0  0  0  0  0  0  0  0  0
   -2.0147    1.1550    7.5120 H   0  0  0  0  0  0  0  0  0  0  0  0
   -3.5477    2.5879    6.1509 H   0  0  0  0  0  0  0  0  0  0  0  0
   -2.4984    3.4071    7.9628 H   0  0  0  0  0  0  0  0  0  0  0  0
   -2.4399    2.5774    3.9878 H   0  0  0  0  0  0  0  0  0  0  0  0
   -2.5176    4.2162    4.5531 H   0  0  0  0  0  0  0  0  0  0  0  0
   -0.2658    3.7642    3.6549 H   0  0  0  0  0  0  0  0  0  0  0  0
   -0.2145    4.1380    5.3379 H   0  0  0  0  0  0  0  0  0  0  0  0
    2.0968    2.8919    4.0818 H   0  0  0  0  0  0  0  0  0  0  0  0
    2.4169    1.6891    5.3237 H   0  0  0  0  0  0  0  0  0  0  0  0
    1.8820    3.2763    5.7701 H   0  0  0  0  0  0  0  0  0  0  0  0
   -1.0693    0.8198    3.8484 H   0  0  0  0  0  0  0  0  0  0  0  0
   -0.3168    0.7203    1.7566 H   0  0  0  0  0  0  0  0  0  0  0  0
    0.2226    2.3030    2.1721 H   0  0  0  0  0  0  0  0  0  0  0  0
    1.8967    0.9926    0.8879 H   0  0  0  0  0  0  0  0  0  0  0  0
    2.5595    1.4740    2.4276 H   0  0  0  0  0  0  0  0  0  0  0  0
    1.2536   -1.2164    1.8197 H   0  0  0  0  0  0  0  0  0  0  0  0
    4.1899   -0.5371    2.1054 H   0  0  0  0  0  0  0  0  0  0  0  0
    5.5419   -1.8028    0.2212 H   0  0  0  0  0  0  0  0  0  0  0  0
    4.8001   -0.2845   -0.2480 H   0  0  0  0  0  0  0  0  0  0  0  0
    2.6288   -1.3503   -0.0233 H   0  0  0  0  0  0  0  0  0  0  0  0
  1  2  1  0
  1 37  1  0
  1 38  1  0
  1 39  1  0
  2 36  1  0
  2  3  1  0
  2 40  1  6
  3  4  1  0
  3 41  1  0
  3 42  1  0
  4  6  1  0
  4  5  1  0
  4 43  1  1
  6  5  1  6
  6 35  1  0
  6  7  1  0
  7  8  1  0
  7 14  1  0
  7 44  1  6
  8  9  2  3
  8 45  1  0
  9 10  1  0
  9 46  1  0
 10 13  1  0
 10 11  1  0
 10 47  1  0
 11 12  1  0
 11 48  1  0
 11 49  1  0
 12 13  1  0
 12 50  1  0
 12 51  1  0
 13 52  1  0
 13 53  1  0
 14 34  1  0
 14 15  1  1
 14 16  1  0
 15 54  1  0
 15 55  1  0
 15 56  1  0
 16 17  1  0
 16 18  1  0
 16 57  1  1
 17 58  1  0
 18 33  1  0
 18 19  1  0
 18 59  1  1
 19 30  1  0
 19 20  1  0
 19 60  1  6
 20 21  1  0
 20 61  1  0
 20 62  1  0
 21 22  1  0
 21 63  1  0
 21 64  1  0
 22 28  1  0
 22 23  1  0
 22 65  1  1
 23 24  1  0
 23 66  1  0
 23 67  1  0
 24 25  1  0
 24 26  1  0
 24 68  1  6
 25 69  1  0
 26 27  1  0
 26 70  1  0
 26 71  1  0
 27 28  1  0
 27 72  1  0
 27 73  1  0
 28 29  1  1
 28 30  1  0
 29 74  1  0
 29 75  1  0
 29 76  1  0
 30 31  1  0
 30 77  1  6
 31 32  1  0
 31 78  1  0
 31 79  1  0
 32 33  1  0
 32 80  1  0
 32 81  1  0
 33 34  1  0
 33 82  1  6
 34 35  1  0
 34 83  1  1
 35 36  1  0
 35 86  1  6
 36 84  1  0
 36 85  1  0
M  CHG  1  35   1
M  END
>  <i_m_ct_stereo_status>  (197) 
1

>  <s_m_source_file>  (197) 
/var/tmp/pbs.5076255.sched01/tmp25xsusm8/82mdre8bl4.sdf

>  <i_m_source_file_index>  (197) 
18

>  <i_lp_mmshare_version>  (197) 
48012

>  <i_f3d_flags>  (197) 
0

>  <s_epik_input>  (197) 
TzFbQ0BIXShbQ0BAXTEyMylbQ0gyXVtDQEBIXShbQ0gzXSlbQ0gyXU4zW0NAQEhdNFtDQF0oW0NIM10pKFtDQEBIXTIvW0NIXT1bQ0hdL1tDSF01W0NIMl1bQ0gyXVtDSDJdNSlbQ0BASF0oW09IXSlbQ0BASF02W0NAQEhdN1tDQEhdKFtDSDJdW0NIMl1bQ0BASF00NilbQ0BdOChbQ0gzXSlbQ0BIXShbQ0gyXVtDSDJdNylbQ0gyXVtDQEBIXShbT0hdKVtDSDJdW0NIMl04

>  <s_epik_cmdline>  (197) 
J2VwaWtfcHl0aG9uJywgJy1waHQnLCAnMi4wJywgJy1waCcsICc3LjAnLCAnLXRuJywgJzgnLCAnLW1hJywgJzIwMCcsICctaW1hZScsICc8aW5maWxlLm1hZT4nLCAnLW9tYWUnLCAnPG91dGZpbGUubWFlPic=

>  <r_epik_Ionization_Penalty>  (197) 
2.32851

>  <r_epik_Ionization_Penalty_Charging>  (197) 
2.32851

>  <r_epik_Ionization_Penalty_Neutral>  (197) 
3.22818e-06

>  <r_epik_State_Penalty>  (197) 
2.48122

>  <r_epik_Charging_Adjusted_Penalty>  (197) 
4.80973

>  <i_epik_Tot_Q>  (197) 
1

>  <i_epik_Tot_abs_Q>  (197) 
1

>  <s_lp_Force_Field>  (197) 
OPLS3e

>  <r_lp_Energy>  (197) 
85.935

>  <b_lp_Chiralities_Consistent>  (197) 
1

>  <s_lp_Variant>  (197) 
72:0-3

>  <s_i_glide_gridfile>  (197) 
pfpi4k_grid

>  <i_i_glide_lignum>  (197) 
18

>  <i_i_glide_rotatable_bonds>  (197) 
4

>  <r_i_docking_score>  (197) 
-2.82167

>  <r_i_glide_ligand_efficiency>  (197) 
-0.0783798

>  <r_i_glide_ligand_efficiency_sa>  (197) 
-0.258805

>  <r_i_glide_ligand_efficiency_ln>  (197) 
-0.615613

>  <r_i_glide_gscore>  (197) 
-2.82167

>  <r_i_glide_lipo>  (197) 
-0.165685

>  <r_i_glide_hbond>  (197) 
-0.178953

>  <r_i_glide_metal>  (197) 
-0

>  <r_i_glide_rewards>  (197) 
-0.022198

>  <r_i_glide_evdw>  (197) 
-36.7813

>  <r_i_glide_ecoul>  (197) 
-4.751

>  <r_i_glide_erotb>  (197) 
0.165301

>  <r_i_glide_esite>  (197) 
-0.0684259

>  <r_i_glide_emodel>  (197) 
-47.6164

>  <r_i_glide_energy>  (197) 
-41.5323

>  <r_i_glide_einternal>  (197) 
2.65766

>  <r_i_glide_intrahb_reward>  (197) 
-0

>  <i_i_glide_confnum>  (197) 
4

>  <i_i_glide_posenum>  (197) 
19

>  <r_i_glide_eff_state_penalty>  (197) 
0

>  <ligand_id>  (197) 
72

>  <original_smiles>  (197) 
CC1CC2OC23C(C=CC2CCC2)C2(C)C(O)C4C5CCC6CC(O)CCC6(C)C5CCC4C2N3C1

>  <smiles>  (197) 
[H]OC1([H])C([H])([H])C([H])([H])C2(C([H])([H])[H])C([H])(C([H])([H])C([H])([H])C3([H])C4([H])C([H])(O[H])C5(C([H])([H])[H])C([H])(C([H])=C([H])C6([H])C([H])([H])C([H])([H])C6([H])[H])C67OC6([H])C([H])([H])C([H])(C([H])([H])[H])C([H])([H])[N+]7([H])C5([H])C4([H])C([H])([H])C([H])([H])C32[H])C1([H])[H]

$$$$
72:2:1
     RDKit          3D

 86 93  0  0  1  0  0  0  0  0999 V2000
    3.6211   -1.0617   -2.5851 C   0  0  0  0  0  0  0  0  0  0  0  0
    4.6035   -1.8799   -1.7417 C   0  0  2  0  0  0  0  0  0  0  0  0
    4.3779   -3.4102   -1.8591 C   0  0  0  0  0  0  0  0  0  0  0  0
    3.5902   -3.9991   -0.7178 C   0  0  2  0  0  0  0  0  0  0  0  0
    2.2611   -3.4938   -0.4740 O   0  0  0  0  0  0  0  0  0  0  0  0
    3.2563   -3.2031    0.5407 C   0  0  1  0  0  0  0  0  0  0  0  0
    2.9209   -3.6423    1.9295 C   0  0  1  0  0  0  0  0  0  0  0  0
    3.3693   -5.0620    2.2872 C   0  0  0  0  0  0  0  0  0  0  0  0
    2.5677   -6.0070    2.8085 C   0  0  0  0  0  0  0  0  0  0  0  0
    3.0066   -7.4217    3.1756 C   0  0  0  0  0  0  0  0  0  0  0  0
    3.7270   -8.1889    2.0517 C   0  0  0  0  0  0  0  0  0  0  0  0
    2.3887   -8.8367    1.6835 C   0  0  0  0  0  0  0  0  0  0  0  0
    1.8819   -8.4686    3.0792 C   0  0  0  0  0  0  0  0  0  0  0  0
    3.5069   -2.5130    2.8159 C   0  0  2  0  0  0  0  0  0  0  0  0
    4.9864   -2.7474    3.1975 C   0  0  0  0  0  0  0  0  0  0  0  0
    2.5563   -2.2318    4.0283 C   0  0  1  0  0  0  0  0  0  0  0  0
    3.2096   -2.3206    5.2889 O   0  0  0  0  0  0  0  0  0  0  0  0
    1.9786   -0.8192    3.8058 C   0  0  2  0  0  0  0  0  0  0  0  0
    0.5229   -0.5328    4.2750 C   0  0  1  0  0  0  0  0  0  0  0  0
    0.2047   -0.8888    5.7476 C   0  0  0  0  0  0  0  0  0  0  0  0
    0.5005    0.2343    6.7469 C   0  0  0  0  0  0  0  0  0  0  0  0
   -0.1851    1.5563    6.3440 C   0  0  2  0  0  0  0  0  0  0  0  0
   -1.7282    1.4529    6.4949 C   0  0  0  0  0  0  0  0  0  0  0  0
   -2.4532    2.7541    6.1311 C   0  0  1  0  0  0  0  0  0  0  0  0
   -2.2038    3.7425    7.1091 O   0  0  0  0  0  0  0  0  0  0  0  0
   -2.0402    3.2424    4.7393 C   0  0  0  0  0  0  0  0  0  0  0  0
   -0.5122    3.3538    4.6143 C   0  0  0  0  0  0  0  0  0  0  0  0
    0.2751    2.0457    4.9379 C   0  0  1  0  0  0  0  0  0  0  0  0
    1.7590    2.4822    5.0074 C   0  0  0  0  0  0  0  0  0  0  0  0
    0.0304    0.8993    3.8751 C   0  0  1  0  0  0  0  0  0  0  0  0
    0.3914    1.2296    2.3927 C   0  0  0  0  0  0  0  0  0  0  0  0
    1.8161    0.8230    1.9474 C   0  0  0  0  0  0  0  0  0  0  0  0
    2.0545   -0.6480    2.2873 C   0  0  1  0  0  0  0  0  0  0  0  0
    3.4070   -1.2733    1.8660 C   0  0  2  0  0  0  0  0  0  0  0  0
    3.4486   -1.7613    0.4790 N   0  0  1  0  0  0  0  0  0  0  0  0
    4.6570   -1.3948   -0.2695 C   0  0  0  0  0  0  0  0  0  0  0  0
    2.6060   -1.1730   -2.2134 H   0  0  0  0  0  0  0  0  0  0  0  0
    3.6275   -1.3596   -3.6333 H   0  0  0  0  0  0  0  0  0  0  0  0
    3.8757   -0.0017   -2.5498 H   0  0  0  0  0  0  0  0  0  0  0  0
    5.5830   -1.6957   -2.1963 H   0  0  0  0  0  0  0  0  0  0  0  0
    3.8622   -3.6579   -2.7902 H   0  0  0  0  0  0  0  0  0  0  0  0
    5.3316   -3.9239   -1.9003 H   0  0  0  0  0  0  0  0  0  0  0  0
    3.6449   -5.0892   -0.6252 H   0  0  0  0  0  0  0  0  0  0  0  0
    1.8288   -3.6268    1.9965 H   0  0  0  0  0  0  0  0  0  0  0  0
    4.4115   -5.2986    2.1165 H   0  0  0  0  0  0  0  0  0  0  0  0
    1.5313   -5.7736    3.0053 H   0  0  0  0  0  0  0  0  0  0  0  0
    3.5275   -7.4473    4.1315 H   0  0  0  0  0  0  0  0  0  0  0  0
    4.1714   -7.5849    1.2629 H   0  0  0  0  0  0  0  0  0  0  0  0
    4.4409   -8.9214    2.4379 H   0  0  0  0  0  0  0  0  0  0  0  0
    1.8516   -8.2931    0.9008 H   0  0  0  0  0  0  0  0  0  0  0  0
    2.4335   -9.9014    1.4693 H   0  0  0  0  0  0  0  0  0  0  0  0
    2.0222   -9.2921    3.7891 H   0  0  0  0  0  0  0  0  0  0  0  0
    0.8643   -8.0898    3.1202 H   0  0  0  0  0  0  0  0  0  0  0  0
    5.4174   -1.8719    3.6876 H   0  0  0  0  0  0  0  0  0  0  0  0
    5.5997   -2.9511    2.3182 H   0  0  0  0  0  0  0  0  0  0  0  0
    5.1087   -3.5925    3.8753 H   0  0  0  0  0  0  0  0  0  0  0  0
    1.7434   -2.9489    4.0520 H   0  0  0  0  0  0  0  0  0  0  0  0
    3.8903   -1.6863    5.3346 H   0  0  0  0  0  0  0  0  0  0  0  0
    2.6724   -0.1133    4.2526 H   0  0  0  0  0  0  0  0  0  0  0  0
   -0.0861   -1.2316    3.6978 H   0  0  0  0  0  0  0  0  0  0  0  0
   -0.8476   -1.1500    5.8202 H   0  0  0  0  0  0  0  0  0  0  0  0
    0.7355   -1.7907    6.0524 H   0  0  0  0  0  0  0  0  0  0  0  0
    0.1758   -0.0615    7.7437 H   0  0  0  0  0  0  0  0  0  0  0  0
    1.5786    0.3730    6.8344 H   0  0  0  0  0  0  0  0  0  0  0  0
    0.1364    2.2983    7.0797 H   0  0  0  0  0  0  0  0  0  0  0  0
   -2.1189    0.6716    5.8422 H   0  0  0  0  0  0  0  0  0  0  0  0
   -1.9931    1.1618    7.5086 H   0  0  0  0  0  0  0  0  0  0  0  0
   -3.5288    2.5825    6.1404 H   0  0  0  0  0  0  0  0  0  0  0  0
   -1.2807    3.8556    7.1922 H   0  0  0  0  0  0  0  0  0  0  0  0
   -2.4256    2.5624    3.9762 H   0  0  0  0  0  0  0  0  0  0  0  0
   -2.5055    4.2033    4.5333 H   0  0  0  0  0  0  0  0  0  0  0  0
   -0.2542    3.7487    3.6314 H   0  0  0  0  0  0  0  0  0  0  0  0
   -0.1953    4.1346    5.3095 H   0  0  0  0  0  0  0  0  0  0  0  0
    2.1090    2.8820    4.0578 H   0  0  0  0  0  0  0  0  0  0  0  0
    2.4341    1.6846    5.3039 H   0  0  0  0  0  0  0  0  0  0  0  0
    1.9002    3.2737    5.7453 H   0  0  0  0  0  0  0  0  0  0  0  0
   -1.0563    0.8057    3.8433 H   0  0  0  0  0  0  0  0  0  0  0  0
   -0.3079    0.6977    1.7502 H   0  0  0  0  0  0  0  0  0  0  0  0
    0.2303    2.2824    2.1569 H   0  0  0  0  0  0  0  0  0  0  0  0
    1.9023    0.9681    0.8786 H   0  0  0  0  0  0  0  0  0  0  0  0
    2.5687    1.4572    2.4134 H   0  0  0  0  0  0  0  0  0  0  0  0
    1.2641   -1.2363    1.8168 H   0  0  0  0  0  0  0  0  0  0  0  0
    4.2003   -0.5528    2.0908 H   0  0  0  0  0  0  0  0  0  0  0  0
    5.5489   -1.8244    0.2087 H   0  0  0  0  0  0  0  0  0  0  0  0
    4.8032   -0.3093   -0.2654 H   0  0  0  0  0  0  0  0  0  0  0  0
    2.6336   -1.3769   -0.0301 H   0  0  0  0  0  0  0  0  0  0  0  0
  1  2  1  0
  1 37  1  0
  1 38  1  0
  1 39  1  0
  2 36  1  0
  2  3  1  0
  2 40  1  6
  3  4  1  0
  3 41  1  0
  3 42  1  0
  4  6  1  0
  4  5  1  0
  4 43  1  1
  6  5  1  6
  6 35  1  0
  6  7  1  0
  7  8  1  0
  7 14  1  0
  7 44  1  6
  8  9  2  3
  8 45  1  0
  9 10  1  0
  9 46  1  0
 10 13  1  0
 10 11  1  0
 10 47  1  0
 11 12  1  0
 11 48  1  0
 11 49  1  0
 12 13  1  0
 12 50  1  0
 12 51  1  0
 13 52  1  0
 13 53  1  0
 14 34  1  0
 14 15  1  1
 14 16  1  0
 15 54  1  0
 15 55  1  0
 15 56  1  0
 16 17  1  0
 16 18  1  0
 16 57  1  1
 17 58  1  0
 18 33  1  0
 18 19  1  0
 18 59  1  1
 19 30  1  0
 19 20  1  0
 19 60  1  6
 20 21  1  0
 20 61  1  0
 20 62  1  0
 21 22  1  0
 21 63  1  0
 21 64  1  0
 22 28  1  0
 22 23  1  0
 22 65  1  1
 23 24  1  0
 23 66  1  0
 23 67  1  0
 24 25  1  0
 24 26  1  0
 24 68  1  6
 25 69  1  0
 26 27  1  0
 26 70  1  0
 26 71  1  0
 27 28  1  0
 27 72  1  0
 27 73  1  0
 28 29  1  1
 28 30  1  0
 29 74  1  0
 29 75  1  0
 29 76  1  0
 30 31  1  0
 30 77  1  6
 31 32  1  0
 31 78  1  0
 31 79  1  0
 32 33  1  0
 32 80  1  0
 32 81  1  0
 33 34  1  0
 33 82  1  6
 34 35  1  0
 34 83  1  1
 35 36  1  0
 35 86  1  6
 36 84  1  0
 36 85  1  0
M  CHG  1  35   1
M  END
>  <i_m_ct_stereo_status>  (198) 
1

>  <s_m_source_file>  (198) 
/var/tmp/pbs.5076255.sched01/tmp25xsusm8/82mdre8bl4.sdf

>  <i_m_source_file_index>  (198) 
18

>  <i_lp_mmshare_version>  (198) 
48012

>  <i_f3d_flags>  (198) 
0

>  <s_epik_input>  (198) 
TzFbQ0BIXShbQ0BAXTEyMylbQ0gyXVtDQEBIXShbQ0gzXSlbQ0gyXU4zW0NAQEhdNFtDQF0oW0NIM10pKFtDQEBIXTIvW0NIXT1bQ0hdL1tDSF01W0NIMl1bQ0gyXVtDSDJdNSlbQ0BASF0oW09IXSlbQ0BASF02W0NAQEhdN1tDQEhdKFtDSDJdW0NIMl1bQ0BASF00NilbQ0BdOChbQ0gzXSlbQ0BIXShbQ0gyXVtDSDJdNylbQ0gyXVtDQEBIXShbT0hdKVtDSDJdW0NIMl04

>  <s_epik_cmdline>  (198) 
J2VwaWtfcHl0aG9uJywgJy1waHQnLCAnMi4wJywgJy1waCcsICc3LjAnLCAnLXRuJywgJzgnLCAnLW1hJywgJzIwMCcsICctaW1hZScsICc8aW5maWxlLm1hZT4nLCAnLW9tYWUnLCAnPG91dGZpbGUubWFlPic=

>  <r_epik_Ionization_Penalty>  (198) 
2.32851

>  <r_epik_Ionization_Penalty_Charging>  (198) 
2.32851

>  <r_epik_Ionization_Penalty_Neutral>  (198) 
3.22818e-06

>  <r_epik_State_Penalty>  (198) 
2.48122

>  <r_epik_Charging_Adjusted_Penalty>  (198) 
4.80973

>  <i_epik_Tot_Q>  (198) 
1

>  <i_epik_Tot_abs_Q>  (198) 
1

>  <s_lp_Force_Field>  (198) 
OPLS3e

>  <r_lp_Energy>  (198) 
85.935

>  <b_lp_Chiralities_Consistent>  (198) 
1

>  <s_lp_Variant>  (198) 
72:0-3

>  <s_i_glide_gridfile>  (198) 
pfpi4k_grid

>  <i_i_glide_lignum>  (198) 
18

>  <i_i_glide_rotatable_bonds>  (198) 
4

>  <r_i_docking_score>  (198) 
-2.81783

>  <r_i_glide_ligand_efficiency>  (198) 
-0.078273

>  <r_i_glide_ligand_efficiency_sa>  (198) 
-0.258452

>  <r_i_glide_ligand_efficiency_ln>  (198) 
-0.614774

>  <r_i_glide_gscore>  (198) 
-2.81783

>  <r_i_glide_lipo>  (198) 
-0.163203

>  <r_i_glide_hbond>  (198) 
-0.174191

>  <r_i_glide_metal>  (198) 
-0

>  <r_i_glide_rewards>  (198) 
-0.022198

>  <r_i_glide_evdw>  (198) 
-36.761

>  <r_i_glide_ecoul>  (198) 
-4.7927

>  <r_i_glide_erotb>  (198) 
0.165301

>  <r_i_glide_esite>  (198) 
-0.066586

>  <r_i_glide_emodel>  (198) 
-47.8021

>  <r_i_glide_energy>  (198) 
-41.5537

>  <r_i_glide_einternal>  (198) 
2.30298

>  <r_i_glide_intrahb_reward>  (198) 
-0

>  <i_i_glide_confnum>  (198) 
4

>  <i_i_glide_posenum>  (198) 
1

>  <r_i_glide_eff_state_penalty>  (198) 
0

>  <ligand_id>  (198) 
72

>  <original_smiles>  (198) 
CC1CC2OC23C(C=CC2CCC2)C2(C)C(O)C4C5CCC6CC(O)CCC6(C)C5CCC4C2N3C1

>  <smiles>  (198) 
[H]OC1([H])C([H])([H])C([H])([H])C2(C([H])([H])[H])C([H])(C([H])([H])C([H])([H])C3([H])C4([H])C([H])(O[H])C5(C([H])([H])[H])C([H])(C([H])=C([H])C6([H])C([H])([H])C([H])([H])C6([H])[H])C67OC6([H])C([H])([H])C([H])(C([H])([H])[H])C([H])([H])[N+]7([H])C5([H])C4([H])C([H])([H])C([H])([H])C32[H])C1([H])[H]

$$$$
72:2:2
     RDKit          3D

 86 93  0  0  1  0  0  0  0  0999 V2000
    7.8895   -6.3606    0.8737 C   0  0  0  0  0  0  0  0  0  0  0  0
    7.5109   -7.2101    2.0962 C   0  0  2  0  0  0  0  0  0  0  0  0
    6.7626   -8.5190    1.7390 C   0  0  0  0  0  0  0  0  0  0  0  0
    5.2615   -8.3867    1.8888 C   0  0  2  0  0  0  0  0  0  0  0  0
    4.5905   -7.3581    1.1349 O   0  0  0  0  0  0  0  0  0  0  0  0
    4.6043   -7.1950    2.5758 C   0  0  1  0  0  0  0  0  0  0  0  0
    3.2779   -7.0057    3.2499 C   0  0  1  0  0  0  0  0  0  0  0  0
    2.6324   -8.3013    3.7099 C   0  0  0  0  0  0  0  0  0  0  0  0
    1.4687   -8.8117    3.2543 C   0  0  0  0  0  0  0  0  0  0  0  0
    0.8051  -10.1016    3.7379 C   0  0  0  0  0  0  0  0  0  0  0  0
    1.0950  -10.5018    5.1952 C   0  0  0  0  0  0  0  0  0  0  0  0
    2.2075  -11.4339    4.6929 C   0  0  0  0  0  0  0  0  0  0  0  0
    1.5528  -11.3738    3.3106 C   0  0  0  0  0  0  0  0  0  0  0  0
    3.5702   -5.9831    4.3739 C   0  0  2  0  0  0  0  0  0  0  0  0
    4.0568   -6.6288    5.6949 C   0  0  0  0  0  0  0  0  0  0  0  0
    2.3447   -5.0195    4.5340 C   0  0  1  0  0  0  0  0  0  0  0  0
    1.8452   -4.9684    5.8612 O   0  0  0  0  0  0  0  0  0  0  0  0
    2.8381   -3.6355    4.0717 C   0  0  2  0  0  0  0  0  0  0  0  0
    1.8237   -2.7001    3.3659 C   0  0  1  0  0  0  0  0  0  0  0  0
    0.5082   -2.4532    4.1296 C   0  0  0  0  0  0  0  0  0  0  0  0
    0.5268   -1.2744    5.1012 C   0  0  0  0  0  0  0  0  0  0  0  0
    1.0163    0.0186    4.4184 C   0  0  2  0  0  0  0  0  0  0  0  0
   -0.0310    0.5426    3.3980 C   0  0  0  0  0  0  0  0  0  0  0  0
    0.3970    1.8415    2.7068 C   0  0  1  0  0  0  0  0  0  0  0  0
    0.3569    2.9293    3.6103 O   0  0  0  0  0  0  0  0  0  0  0  0
    1.7964    1.7090    2.1021 C   0  0  0  0  0  0  0  0  0  0  0  0
    2.8129    1.1957    3.1319 C   0  0  0  0  0  0  0  0  0  0  0  0
    2.4443   -0.1467    3.8256 C   0  0  1  0  0  0  0  0  0  0  0  0
    3.4654   -0.2933    4.9773 C   0  0  0  0  0  0  0  0  0  0  0  0
    2.4719   -1.3820    2.8409 C   0  0  1  0  0  0  0  0  0  0  0  0
    3.8178   -1.6721    2.1014 C   0  0  0  0  0  0  0  0  0  0  0  0
    4.7568   -2.6953    2.7903 C   0  0  0  0  0  0  0  0  0  0  0  0
    3.9769   -3.9799    3.0956 C   0  0  1  0  0  0  0  0  0  0  0  0
    4.7422   -5.1639    3.7516 C   0  0  2  0  0  0  0  0  0  0  0  0
    5.4363   -6.0328    2.8021 N   0  0  1  0  0  0  0  0  0  0  0  0
    6.7964   -6.3783    3.1946 C   0  0  0  0  0  0  0  0  0  0  0  0
    7.0044   -5.9703    0.3698 H   0  0  0  0  0  0  0  0  0  0  0  0
    8.4647   -6.9413    0.1480 H   0  0  0  0  0  0  0  0  0  0  0  0
    8.5152   -5.5183    1.1672 H   0  0  0  0  0  0  0  0  0  0  0  0
    8.4841   -7.5448    2.4940 H   0  0  0  0  0  0  0  0  0  0  0  0
    6.9705   -8.8333    0.7163 H   0  0  0  0  0  0  0  0  0  0  0  0
    7.0868   -9.3259    2.3793 H   0  0  0  0  0  0  0  0  0  0  0  0
    4.7089   -9.3376    1.8998 H   0  0  0  0  0  0  0  0  0  0  0  0
    2.6188   -6.5757    2.4905 H   0  0  0  0  0  0  0  0  0  0  0  0
    3.1730   -8.8191    4.4849 H   0  0  0  0  0  0  0  0  0  0  0  0
    0.9290   -8.2843    2.4788 H   0  0  0  0  0  0  0  0  0  0  0  0
   -0.2609  -10.1226    3.5024 H   0  0  0  0  0  0  0  0  0  0  0  0
    1.4043   -9.6922    5.8579 H   0  0  0  0  0  0  0  0  0  0  0  0
    0.2715  -11.0677    5.6398 H   0  0  0  0  0  0  0  0  0  0  0  0
    3.1992  -10.9800    4.6876 H   0  0  0  0  0  0  0  0  0  0  0  0
    2.2442  -12.4106    5.1663 H   0  0  0  0  0  0  0  0  0  0  0  0
    0.8762  -12.2181    3.1587 H   0  0  0  0  0  0  0  0  0  0  0  0
    2.2537  -11.2655    2.4842 H   0  0  0  0  0  0  0  0  0  0  0  0
    4.4017   -5.8785    6.4080 H   0  0  0  0  0  0  0  0  0  0  0  0
    4.8995   -7.3014    5.5208 H   0  0  0  0  0  0  0  0  0  0  0  0
    3.2811   -7.2123    6.1890 H   0  0  0  0  0  0  0  0  0  0  0  0
    1.5179   -5.3417    3.9087 H   0  0  0  0  0  0  0  0  0  0  0  0
    2.5295   -4.7178    6.4515 H   0  0  0  0  0  0  0  0  0  0  0  0
    3.2768   -3.1460    4.9367 H   0  0  0  0  0  0  0  0  0  0  0  0
    1.5129   -3.2603    2.4823 H   0  0  0  0  0  0  0  0  0  0  0  0
   -0.2521   -2.2539    3.3934 H   0  0  0  0  0  0  0  0  0  0  0  0
    0.1688   -3.3511    4.6473 H   0  0  0  0  0  0  0  0  0  0  0  0
   -0.4709   -1.1169    5.5121 H   0  0  0  0  0  0  0  0  0  0  0  0
    1.1528   -1.5211    5.9590 H   0  0  0  0  0  0  0  0  0  0  0  0
    1.0615    0.7797    5.2016 H   0  0  0  0  0  0  0  0  0  0  0  0
   -0.1850   -0.1885    2.6060 H   0  0  0  0  0  0  0  0  0  0  0  0
   -1.0011    0.6888    3.8705 H   0  0  0  0  0  0  0  0  0  0  0  0
   -0.3069    2.0804    1.9054 H   0  0  0  0  0  0  0  0  0  0  0  0
    0.4579    3.7105    3.0900 H   0  0  0  0  0  0  0  0  0  0  0  0
    1.7599    1.0295    1.2503 H   0  0  0  0  0  0  0  0  0  0  0  0
    2.1171    2.6730    1.7062 H   0  0  0  0  0  0  0  0  0  0  0  0
    3.8002    1.1503    2.6767 H   0  0  0  0  0  0  0  0  0  0  0  0
    2.9013    1.9748    3.8928 H   0  0  0  0  0  0  0  0  0  0  0  0
    4.4875   -0.3580    4.6105 H   0  0  0  0  0  0  0  0  0  0  0  0
    3.2825   -1.1560    5.6120 H   0  0  0  0  0  0  0  0  0  0  0  0
    3.4287    0.5706    5.6422 H   0  0  0  0  0  0  0  0  0  0  0  0
    1.8209   -1.0668    2.0235 H   0  0  0  0  0  0  0  0  0  0  0  0
    3.5765   -2.0667    1.1153 H   0  0  0  0  0  0  0  0  0  0  0  0
    4.3768   -0.7545    1.9074 H   0  0  0  0  0  0  0  0  0  0  0  0
    5.5996   -2.9080    2.1293 H   0  0  0  0  0  0  0  0  0  0  0  0
    5.1755   -2.2784    3.7061 H   0  0  0  0  0  0  0  0  0  0  0  0
    3.5382   -4.3409    2.1632 H   0  0  0  0  0  0  0  0  0  0  0  0
    5.3764   -4.7513    4.5377 H   0  0  0  0  0  0  0  0  0  0  0  0
    6.8207   -6.9499    4.1288 H   0  0  0  0  0  0  0  0  0  0  0  0
    7.4134   -5.4916    3.3771 H   0  0  0  0  0  0  0  0  0  0  0  0
    5.4990   -5.5503    1.9174 H   0  0  0  0  0  0  0  0  0  0  0  0
  1  2  1  0
  1 37  1  0
  1 38  1  0
  1 39  1  0
  2 36  1  0
  2  3  1  0
  2 40  1  1
  3  4  1  0
  3 41  1  0
  3 42  1  0
  4  6  1  0
  4  5  1  0
  4 43  1  1
  6  5  1  6
  6 35  1  0
  6  7  1  0
  7  8  1  0
  7 14  1  0
  7 44  1  6
  8  9  2  3
  8 45  1  0
  9 10  1  0
  9 46  1  0
 10 13  1  0
 10 11  1  0
 10 47  1  0
 11 12  1  0
 11 48  1  0
 11 49  1  0
 12 13  1  0
 12 50  1  0
 12 51  1  0
 13 52  1  0
 13 53  1  0
 14 34  1  0
 14 15  1  1
 14 16  1  0
 15 54  1  0
 15 55  1  0
 15 56  1  0
 16 17  1  0
 16 18  1  0
 16 57  1  6
 17 58  1  0
 18 33  1  0
 18 19  1  0
 18 59  1  1
 19 30  1  0
 19 20  1  0
 19 60  1  6
 20 21  1  0
 20 61  1  0
 20 62  1  0
 21 22  1  0
 21 63  1  0
 21 64  1  0
 22 28  1  0
 22 23  1  0
 22 65  1  1
 23 24  1  0
 23 66  1  0
 23 67  1  0
 24 25  1  0
 24 26  1  0
 24 68  1  6
 25 69  1  0
 26 27  1  0
 26 70  1  0
 26 71  1  0
 27 28  1  0
 27 72  1  0
 27 73  1  0
 28 29  1  1
 28 30  1  0
 29 74  1  0
 29 75  1  0
 29 76  1  0
 30 31  1  0
 30 77  1  6
 31 32  1  0
 31 78  1  0
 31 79  1  0
 32 33  1  0
 32 80  1  0
 32 81  1  0
 33 34  1  0
 33 82  1  6
 34 35  1  0
 34 83  1  1
 35 36  1  0
 35 86  1  6
 36 84  1  0
 36 85  1  0
M  CHG  1  35   1
M  END
>  <i_m_ct_stereo_status>  (199) 
1

>  <s_m_source_file>  (199) 
/var/tmp/pbs.5076255.sched01/tmp25xsusm8/82mdre8bl4.sdf

>  <i_m_source_file_index>  (199) 
18

>  <i_lp_mmshare_version>  (199) 
48012

>  <i_f3d_flags>  (199) 
0

>  <s_epik_input>  (199) 
TzFbQ0BIXShbQ0BAXTEyMylbQ0gyXVtDQEBIXShbQ0gzXSlbQ0gyXU4zW0NAQEhdNFtDQF0oW0NIM10pKFtDQEBIXTIvW0NIXT1bQ0hdL1tDSF01W0NIMl1bQ0gyXVtDSDJdNSlbQ0BASF0oW09IXSlbQ0BASF02W0NAQEhdN1tDQEhdKFtDSDJdW0NIMl1bQ0BASF00NilbQ0BdOChbQ0gzXSlbQ0BIXShbQ0gyXVtDSDJdNylbQ0gyXVtDQEBIXShbT0hdKVtDSDJdW0NIMl04

>  <s_epik_cmdline>  (199) 
J2VwaWtfcHl0aG9uJywgJy1waHQnLCAnMi4wJywgJy1waCcsICc3LjAnLCAnLXRuJywgJzgnLCAnLW1hJywgJzIwMCcsICctaW1hZScsICc8aW5maWxlLm1hZT4nLCAnLW9tYWUnLCAnPG91dGZpbGUubWFlPic=

>  <r_epik_Ionization_Penalty>  (199) 
2.32851

>  <r_epik_Ionization_Penalty_Charging>  (199) 
2.32851

>  <r_epik_Ionization_Penalty_Neutral>  (199) 
3.22818e-06

>  <r_epik_State_Penalty>  (199) 
2.48122

>  <r_epik_Charging_Adjusted_Penalty>  (199) 
4.80973

>  <i_epik_Tot_Q>  (199) 
1

>  <i_epik_Tot_abs_Q>  (199) 
1

>  <s_lp_Force_Field>  (199) 
OPLS3e

>  <r_lp_Energy>  (199) 
85.935

>  <b_lp_Chiralities_Consistent>  (199) 
1

>  <s_lp_Variant>  (199) 
72:0-3

>  <s_i_glide_gridfile>  (199) 
pfpi4k_grid

>  <i_i_glide_lignum>  (199) 
18

>  <i_i_glide_rotatable_bonds>  (199) 
4

>  <r_i_docking_score>  (199) 
-2.50816

>  <r_i_glide_ligand_efficiency>  (199) 
-0.0696711

>  <r_i_glide_ligand_efficiency_sa>  (199) 
-0.230049

>  <r_i_glide_ligand_efficiency_ln>  (199) 
-0.547213

>  <r_i_glide_gscore>  (199) 
-2.50816

>  <r_i_glide_lipo>  (199) 
-0.456633

>  <r_i_glide_hbond>  (199) 
0

>  <r_i_glide_metal>  (199) 
-0

>  <r_i_glide_rewards>  (199) 
-0.022198

>  <r_i_glide_evdw>  (199) 
-31.8578

>  <r_i_glide_ecoul>  (199) 
-4.01161

>  <r_i_glide_erotb>  (199) 
0.165301

>  <r_i_glide_esite>  (199) 
0

>  <r_i_glide_emodel>  (199) 
-40.4057

>  <r_i_glide_energy>  (199) 
-35.8694

>  <r_i_glide_einternal>  (199) 
3.61552

>  <r_i_glide_intrahb_reward>  (199) 
-0

>  <i_i_glide_confnum>  (199) 
4

>  <i_i_glide_posenum>  (199) 
10

>  <r_i_glide_eff_state_penalty>  (199) 
0

>  <ligand_id>  (199) 
72

>  <original_smiles>  (199) 
CC1CC2OC23C(C=CC2CCC2)C2(C)C(O)C4C5CCC6CC(O)CCC6(C)C5CCC4C2N3C1

>  <smiles>  (199) 
[H]OC1([H])C([H])([H])C([H])([H])C2(C([H])([H])[H])C([H])(C([H])([H])C([H])([H])C3([H])C4([H])C([H])(O[H])C5(C([H])([H])[H])C([H])(C([H])=C([H])C6([H])C([H])([H])C([H])([H])C6([H])[H])C67OC6([H])C([H])([H])C([H])(C([H])([H])[H])C([H])([H])[N+]7([H])C5([H])C4([H])C([H])([H])C([H])([H])C32[H])C1([H])[H]

$$$$
72:3:0
     RDKit          3D

 86 93  0  0  1  0  0  0  0  0999 V2000
    3.4872  -11.4751    3.2590 C   0  0  0  0  0  0  0  0  0  0  0  0
    4.1085  -11.0493    4.5913 C   0  0  2  0  0  0  0  0  0  0  0  0
    3.0673  -10.9672    5.7216 C   0  0  0  0  0  0  0  0  0  0  0  0
    2.5426   -9.5842    5.9915 C   0  0  2  0  0  0  0  0  0  0  0  0
    1.9215   -8.8602    4.9071 O   0  0  0  0  0  0  0  0  0  0  0  0
    3.1988   -8.3502    5.3661 C   0  0  1  0  0  0  0  0  0  0  0  0
    3.1982   -6.9036    5.7663 C   0  0  1  0  0  0  0  0  0  0  0  0
    2.9121   -6.6557    7.2439 C   0  0  0  0  0  0  0  0  0  0  0  0
    1.9496   -5.8743    7.7757 C   0  0  0  0  0  0  0  0  0  0  0  0
    0.9102   -5.0340    7.0481 C   0  0  0  0  0  0  0  0  0  0  0  0
    0.5869   -3.7074    7.7650 C   0  0  0  0  0  0  0  0  0  0  0  0
   -0.5868   -4.4102    8.4599 C   0  0  0  0  0  0  0  0  0  0  0  0
   -0.5269   -5.4721    7.3647 C   0  0  0  0  0  0  0  0  0  0  0  0
    4.5823   -6.3953    5.2727 C   0  0  2  0  0  0  0  0  0  0  0  0
    5.7141   -6.6136    6.3005 C   0  0  0  0  0  0  0  0  0  0  0  0
    4.4573   -4.9316    4.7328 C   0  0  1  0  0  0  0  0  0  0  0  0
    5.3673   -4.0242    5.3408 O   0  0  0  0  0  0  0  0  0  0  0  0
    4.6862   -5.0081    3.2082 C   0  0  2  0  0  0  0  0  0  0  0  0
    3.8914   -4.0326    2.2966 C   0  0  1  0  0  0  0  0  0  0  0  0
    3.9913   -2.5317    2.6591 C   0  0  0  0  0  0  0  0  0  0  0  0
    5.1643   -1.7923    1.9986 C   0  0  0  0  0  0  0  0  0  0  0  0
    5.1710   -1.9930    0.4675 C   0  0  2  0  0  0  0  0  0  0  0  0
    3.9737   -1.2684   -0.1976 C   0  0  0  0  0  0  0  0  0  0  0  0
    3.9466   -1.4111   -1.7244 C   0  0  1  0  0  0  0  0  0  0  0  0
    5.0079   -0.6662   -2.2844 O   0  0  0  0  0  0  0  0  0  0  0  0
    4.0448   -2.8824   -2.1464 C   0  0  0  0  0  0  0  0  0  0  0  0
    5.2470   -3.5743   -1.4806 C   0  0  0  0  0  0  0  0  0  0  0  0
    5.2880   -3.4965    0.0786 C   0  0  1  0  0  0  0  0  0  0  0  0
    6.6873   -4.0211    0.4704 C   0  0  0  0  0  0  0  0  0  0  0  0
    4.1234   -4.3123    0.7696 C   0  0  1  0  0  0  0  0  0  0  0  0
    4.0437   -5.8368    0.4501 C   0  0  0  0  0  0  0  0  0  0  0  0
    4.7638   -6.7753    1.4509 C   0  0  0  0  0  0  0  0  0  0  0  0
    4.2897   -6.4516    2.8693 C   0  0  1  0  0  0  0  0  0  0  0  0
    4.8382   -7.3122    4.0322 C   0  0  2  0  0  0  0  0  0  0  0  0
    4.1127   -8.5733    4.2568 N   0  0  1  0  0  0  0  0  0  0  0  0
    4.9551   -9.7616    4.4483 C   0  0  0  0  0  0  0  0  0  0  0  0
    2.7858  -10.7369    2.8711 H   0  0  0  0  0  0  0  0  0  0  0  0
    2.9662  -12.4307    3.3418 H   0  0  0  0  0  0  0  0  0  0  0  0
    4.2781  -11.6181    2.5282 H   0  0  0  0  0  0  0  0  0  0  0  0
    4.7797  -11.8679    4.8614 H   0  0  0  0  0  0  0  0  0  0  0  0
    2.2135  -11.6240    5.5143 H   0  0  0  0  0  0  0  0  0  0  0  0
    3.4974  -11.3423    6.6452 H   0  0  0  0  0  0  0  0  0  0  0  0
    2.0223   -9.4530    6.9463 H   0  0  0  0  0  0  0  0  0  0  0  0
    2.4079   -6.4393    5.1794 H   0  0  0  0  0  0  0  0  0  0  0  0
    3.5647   -7.1666    7.9445 H   0  0  0  0  0  0  0  0  0  0  0  0
    1.8982   -5.8255    8.8560 H   0  0  0  0  0  0  0  0  0  0  0  0
    1.0887   -4.9032    5.9848 H   0  0  0  0  0  0  0  0  0  0  0  0
    1.3675   -3.3432    8.4358 H   0  0  0  0  0  0  0  0  0  0  0  0
    0.2552   -2.9318    7.0758 H   0  0  0  0  0  0  0  0  0  0  0  0
   -0.3140   -4.8098    9.4434 H   0  0  0  0  0  0  0  0  0  0  0  0
   -1.5176   -3.8495    8.5047 H   0  0  0  0  0  0  0  0  0  0  0  0
   -1.2253   -5.2678    6.5487 H   0  0  0  0  0  0  0  0  0  0  0  0
   -0.6044   -6.4983    7.7162 H   0  0  0  0  0  0  0  0  0  0  0  0
    6.6952   -6.3861    5.8781 H   0  0  0  0  0  0  0  0  0  0  0  0
    5.7498   -7.6456    6.6431 H   0  0  0  0  0  0  0  0  0  0  0  0
    5.5916   -5.9851    7.1868 H   0  0  0  0  0  0  0  0  0  0  0  0
    3.4607   -4.5395    4.9258 H   0  0  0  0  0  0  0  0  0  0  0  0
    6.2423   -4.2925    5.1656 H   0  0  0  0  0  0  0  0  0  0  0  0
    5.7531   -4.9066    3.0372 H   0  0  0  0  0  0  0  0  0  0  0  0
    2.8450   -4.2762    2.4884 H   0  0  0  0  0  0  0  0  0  0  0  0
    3.0670   -2.0373    2.3602 H   0  0  0  0  0  0  0  0  0  0  0  0
    4.0384   -2.3911    3.7362 H   0  0  0  0  0  0  0  0  0  0  0  0
    5.1045   -0.7314    2.2302 H   0  0  0  0  0  0  0  0  0  0  0  0
    6.1001   -2.1278    2.4379 H   0  0  0  0  0  0  0  0  0  0  0  0
    6.0702   -1.4803    0.0997 H   0  0  0  0  0  0  0  0  0  0  0  0
    3.0278   -1.6644    0.1744 H   0  0  0  0  0  0  0  0  0  0  0  0
    3.9709   -0.2120    0.0780 H   0  0  0  0  0  0  0  0  0  0  0  0
    3.0124   -0.9953   -2.1135 H   0  0  0  0  0  0  0  0  0  0  0  0
    4.8864    0.2417   -2.0388 H   0  0  0  0  0  0  0  0  0  0  0  0
    3.1228   -3.4030   -1.8793 H   0  0  0  0  0  0  0  0  0  0  0  0
    4.1206   -2.9556   -3.2268 H   0  0  0  0  0  0  0  0  0  0  0  0
    5.3034   -4.6035   -1.8325 H   0  0  0  0  0  0  0  0  0  0  0  0
    6.1436   -3.0996   -1.8804 H   0  0  0  0  0  0  0  0  0  0  0  0
    6.8337   -5.0565    0.1626 H   0  0  0  0  0  0  0  0  0  0  0  0
    6.8891   -3.9649    1.5409 H   0  0  0  0  0  0  0  0  0  0  0  0
    7.4742   -3.4413   -0.0068 H   0  0  0  0  0  0  0  0  0  0  0  0
    3.2201   -3.9189    0.2959 H   0  0  0  0  0  0  0  0  0  0  0  0
    2.9946   -6.1213    0.4434 H   0  0  0  0  0  0  0  0  0  0  0  0
    4.3955   -6.0559   -0.5569 H   0  0  0  0  0  0  0  0  0  0  0  0
    4.5370   -7.8150    1.1944 H   0  0  0  0  0  0  0  0  0  0  0  0
    5.8430   -6.6677    1.3745 H   0  0  0  0  0  0  0  0  0  0  0  0
    3.1983   -6.5309    2.8861 H   0  0  0  0  0  0  0  0  0  0  0  0
    5.9093   -7.4609    3.8732 H   0  0  0  0  0  0  0  0  0  0  0  0
    5.5776   -9.6464    5.3491 H   0  0  0  0  0  0  0  0  0  0  0  0
    5.6429   -9.8875    3.6110 H   0  0  0  0  0  0  0  0  0  0  0  0
    3.5296   -8.7624    3.4318 H   0  0  0  0  0  0  0  0  0  0  0  0
  1  2  1  0
  1 37  1  0
  1 38  1  0
  1 39  1  0
  2 36  1  0
  2  3  1  0
  2 40  1  1
  3  4  1  0
  3 41  1  0
  3 42  1  0
  4  6  1  0
  4  5  1  0
  4 43  1  1
  6  5  1  6
  6 35  1  0
  6  7  1  0
  7  8  1  0
  7 14  1  0
  7 44  1  6
  8  9  2  3
  8 45  1  0
  9 10  1  0
  9 46  1  0
 10 13  1  0
 10 11  1  0
 10 47  1  0
 11 12  1  0
 11 48  1  0
 11 49  1  0
 12 13  1  0
 12 50  1  0
 12 51  1  0
 13 52  1  0
 13 53  1  0
 14 34  1  0
 14 15  1  1
 14 16  1  0
 15 54  1  0
 15 55  1  0
 15 56  1  0
 16 17  1  0
 16 18  1  0
 16 57  1  6
 17 58  1  0
 18 33  1  0
 18 19  1  0
 18 59  1  1
 19 30  1  0
 19 20  1  0
 19 60  1  6
 20 21  1  0
 20 61  1  0
 20 62  1  0
 21 22  1  0
 21 63  1  0
 21 64  1  0
 22 28  1  0
 22 23  1  0
 22 65  1  6
 23 24  1  0
 23 66  1  0
 23 67  1  0
 24 25  1  0
 24 26  1  0
 24 68  1  6
 25 69  1  0
 26 27  1  0
 26 70  1  0
 26 71  1  0
 27 28  1  0
 27 72  1  0
 27 73  1  0
 28 29  1  1
 28 30  1  0
 29 74  1  0
 29 75  1  0
 29 76  1  0
 30 31  1  0
 30 77  1  6
 31 32  1  0
 31 78  1  0
 31 79  1  0
 32 33  1  0
 32 80  1  0
 32 81  1  0
 33 34  1  0
 33 82  1  6
 34 35  1  0
 34 83  1  6
 35 36  1  0
 35 86  1  6
 36 84  1  0
 36 85  1  0
M  CHG  1  35   1
M  END
>  <i_m_ct_stereo_status>  (200) 
1

>  <s_m_source_file>  (200) 
/var/tmp/pbs.5076255.sched01/tmp25xsusm8/82mdre8bl4.sdf

>  <i_m_source_file_index>  (200) 
19

>  <i_lp_mmshare_version>  (200) 
48012

>  <i_f3d_flags>  (200) 
0

>  <s_epik_input>  (200) 
TzFbQ0BIXShbQ0BAXTEyMylbQ0gyXVtDQEBIXShbQ0gzXSlbQ0gyXU4zW0NAQEhdNFtDQF0oW0NIM10pKFtDQEBIXTIvW0NIXT1bQ0hdL1tDSF01W0NIMl1bQ0gyXVtDSDJdNSlbQ0BASF0oW09IXSlbQ0BASF02W0NAQEhdN1tDQEhdKFtDSDJdW0NIMl1bQ0BASF00NilbQ0BdOChbQ0gzXSlbQ0BIXShbQ0gyXVtDSDJdNylbQ0gyXVtDQEBIXShbT0hdKVtDSDJdW0NIMl04

>  <s_epik_cmdline>  (200) 
J2VwaWtfcHl0aG9uJywgJy1waHQnLCAnMi4wJywgJy1waCcsICc3LjAnLCAnLXRuJywgJzgnLCAnLW1hJywgJzIwMCcsICctaW1hZScsICc8aW5maWxlLm1hZT4nLCAnLW9tYWUnLCAnPG91dGZpbGUubWFlPic=

>  <r_epik_Ionization_Penalty>  (200) 
2.32851

>  <r_epik_Ionization_Penalty_Charging>  (200) 
2.32851

>  <r_epik_Ionization_Penalty_Neutral>  (200) 
3.22818e-06

>  <r_epik_State_Penalty>  (200) 
2.48122

>  <r_epik_Charging_Adjusted_Penalty>  (200) 
4.80973

>  <i_epik_Tot_Q>  (200) 
1

>  <i_epik_Tot_abs_Q>  (200) 
1

>  <s_lp_Force_Field>  (200) 
OPLS3e

>  <r_lp_Energy>  (200) 
87.5518

>  <b_lp_Chiralities_Consistent>  (200) 
1

>  <s_lp_Variant>  (200) 
72:0-4

>  <s_i_glide_gridfile>  (200) 
pfpi4k_grid

>  <i_i_glide_lignum>  (200) 
19

>  <i_i_glide_rotatable_bonds>  (200) 
4

>  <r_i_docking_score>  (200) 
-2.98448

>  <r_i_glide_ligand_efficiency>  (200) 
-0.0829021

>  <r_i_glide_ligand_efficiency_sa>  (200) 
-0.273737

>  <r_i_glide_ligand_efficiency_ln>  (200) 
-0.651132

>  <r_i_glide_gscore>  (200) 
-2.98448

>  <r_i_glide_lipo>  (200) 
-0.602152

>  <r_i_glide_hbond>  (200) 
-0.297586

>  <r_i_glide_metal>  (200) 
-0

>  <r_i_glide_rewards>  (200) 
-0.022198

>  <r_i_glide_evdw>  (200) 
-29.6744

>  <r_i_glide_ecoul>  (200) 
-4.95862

>  <r_i_glide_erotb>  (200) 
0.165301

>  <r_i_glide_esite>  (200) 
-0.000329766

>  <r_i_glide_emodel>  (200) 
-41.2407

>  <r_i_glide_energy>  (200) 
-34.633

>  <r_i_glide_einternal>  (200) 
0.627354

>  <r_i_glide_intrahb_reward>  (200) 
-0

>  <i_i_glide_confnum>  (200) 
1

>  <i_i_glide_posenum>  (200) 
27

>  <r_i_glide_eff_state_penalty>  (200) 
0

>  <ligand_id>  (200) 
72

>  <original_smiles>  (200) 
CC1CC2OC23C(C=CC2CCC2)C2(C)C(O)C4C5CCC6CC(O)CCC6(C)C5CCC4C2N3C1

>  <smiles>  (200) 
[H]OC1([H])C([H])([H])C([H])([H])C2(C([H])([H])[H])C([H])(C([H])([H])C([H])([H])C3([H])C4([H])C([H])(O[H])C5(C([H])([H])[H])C([H])(C([H])=C([H])C6([H])C([H])([H])C([H])([H])C6([H])[H])C67OC6([H])C([H])([H])C([H])(C([H])([H])[H])C([H])([H])[N+]7([H])C5([H])C4([H])C([H])([H])C([H])([H])C32[H])C1([H])[H]

$$$$
72:3:1
     RDKit          3D

 86 93  0  0  1  0  0  0  0  0999 V2000
    0.8562  -10.7415    4.5134 C   0  0  0  0  0  0  0  0  0  0  0  0
    1.9709  -11.3037    3.6219 C   0  0  2  0  0  0  0  0  0  0  0  0
    3.1297  -11.9331    4.4348 C   0  0  0  0  0  0  0  0  0  0  0  0
    4.3208  -11.0298    4.6380 C   0  0  2  0  0  0  0  0  0  0  0  0
    4.0971   -9.7607    5.2579 O   0  0  0  0  0  0  0  0  0  0  0  0
    4.4415   -9.7223    3.8651 C   0  0  1  0  0  0  0  0  0  0  0  0
    5.6229   -8.8584    3.5331 C   0  0  1  0  0  0  0  0  0  0  0  0
    6.9732   -9.5874    3.5477 C   0  0  0  0  0  0  0  0  0  0  0  0
    8.1814   -9.0652    3.8206 C   0  0  0  0  0  0  0  0  0  0  0  0
    8.5523   -7.6207    4.1840 C   0  0  0  0  0  0  0  0  0  0  0  0
    9.5664   -7.5025    5.3394 C   0  0  0  0  0  0  0  0  0  0  0  0
    8.7652   -6.2965    5.8459 C   0  0  0  0  0  0  0  0  0  0  0  0
    7.5711   -6.8380    5.0940 C   0  0  0  0  0  0  0  0  0  0  0  0
    5.2275   -8.2105    2.1802 C   0  0  2  0  0  0  0  0  0  0  0  0
    5.6012   -9.0903    0.9657 C   0  0  0  0  0  0  0  0  0  0  0  0
    5.7572   -6.7335    2.0975 C   0  0  1  0  0  0  0  0  0  0  0  0
    6.5244   -6.4828    0.9273 O   0  0  0  0  0  0  0  0  0  0  0  0
    4.5130   -5.8167    2.1580 C   0  0  2  0  0  0  0  0  0  0  0  0
    4.6379   -4.4608    2.9141 C   0  0  1  0  0  0  0  0  0  0  0  0
    5.8127   -3.5525    2.4786 C   0  0  0  0  0  0  0  0  0  0  0  0
    5.4931   -2.5844    1.3404 C   0  0  0  0  0  0  0  0  0  0  0  0
    4.2340   -1.7423    1.6293 C   0  0  2  0  0  0  0  0  0  0  0  0
    4.4700   -0.7224    2.7785 C   0  0  0  0  0  0  0  0  0  0  0  0
    3.2419    0.1456    3.0874 C   0  0  1  0  0  0  0  0  0  0  0  0
    3.0122    1.0506    2.0293 O   0  0  0  0  0  0  0  0  0  0  0  0
    2.0005   -0.7229    3.3193 C   0  0  0  0  0  0  0  0  0  0  0  0
    1.7876   -1.7131    2.1609 C   0  0  0  0  0  0  0  0  0  0  0  0
    2.9942   -2.6561    1.8550 C   0  0  1  0  0  0  0  0  0  0  0  0
    2.6776   -3.3677    0.5153 C   0  0  0  0  0  0  0  0  0  0  0  0
    3.2754   -3.6908    3.0167 C   0  0  1  0  0  0  0  0  0  0  0  0
    2.1022   -4.6500    3.4142 C   0  0  0  0  0  0  0  0  0  0  0  0
    2.0993   -6.0386    2.7271 C   0  0  0  0  0  0  0  0  0  0  0  0
    3.4794   -6.6887    2.8747 C   0  0  1  0  0  0  0  0  0  0  0  0
    3.6844   -8.1046    2.2971 C   0  0  2  0  0  0  0  0  0  0  0  0
    3.2352   -9.1919    3.2148 N   0  0  1  0  0  0  0  0  0  0  0  0
    2.4450  -10.2683    2.5804 C   0  0  0  0  0  0  0  0  0  0  0  0
    1.2027   -9.9094    5.1293 H   0  0  0  0  0  0  0  0  0  0  0  0
    0.4629  -11.5137    5.1797 H   0  0  0  0  0  0  0  0  0  0  0  0
    0.0187  -10.3960    3.9035 H   0  0  0  0  0  0  0  0  0  0  0  0
    1.5166  -12.1170    3.0647 H   0  0  0  0  0  0  0  0  0  0  0  0
    2.7784  -12.2734    5.4110 H   0  0  0  0  0  0  0  0  0  0  0  0
    3.4867  -12.8275    3.9160 H   0  0  0  0  0  0  0  0  0  0  0  0
    5.2305  -11.5256    4.9663 H   0  0  0  0  0  0  0  0  0  0  0  0
    5.6227   -8.0799    4.2903 H   0  0  0  0  0  0  0  0  0  0  0  0
    6.9356  -10.6463    3.3072 H   0  0  0  0  0  0  0  0  0  0  0  0
    9.0277   -9.7370    3.7684 H   0  0  0  0  0  0  0  0  0  0  0  0
    8.9008   -7.0676    3.3042 H   0  0  0  0  0  0  0  0  0  0  0  0
    9.5280   -8.3412    6.0393 H   0  0  0  0  0  0  0  0  0  0  0  0
   10.5926   -7.2580    5.0491 H   0  0  0  0  0  0  0  0  0  0  0  0
    8.5718   -6.2426    6.9181 H   0  0  0  0  0  0  0  0  0  0  0  0
    9.0801   -5.3443    5.4263 H   0  0  0  0  0  0  0  0  0  0  0  0
    7.0064   -6.0178    4.6821 H   0  0  0  0  0  0  0  0  0  0  0  0
    6.9744   -7.4943    5.7381 H   0  0  0  0  0  0  0  0  0  0  0  0
    5.1783   -8.6689    0.0510 H   0  0  0  0  0  0  0  0  0  0  0  0
    5.2253  -10.1086    1.0718 H   0  0  0  0  0  0  0  0  0  0  0  0
    6.6867   -9.1544    0.8455 H   0  0  0  0  0  0  0  0  0  0  0  0
    6.4033   -6.5264    2.8952 H   0  0  0  0  0  0  0  0  0  0  0  0
    7.3642   -6.8918    1.0702 H   0  0  0  0  0  0  0  0  0  0  0  0
    4.1568   -5.6489    1.1392 H   0  0  0  0  0  0  0  0  0  0  0  0
    4.8868   -4.7390    3.9430 H   0  0  0  0  0  0  0  0  0  0  0  0
    6.0698   -2.9354    3.3397 H   0  0  0  0  0  0  0  0  0  0  0  0
    6.6814   -4.1544    2.2257 H   0  0  0  0  0  0  0  0  0  0  0  0
    6.3426   -1.9188    1.1833 H   0  0  0  0  0  0  0  0  0  0  0  0
    5.3921   -3.1427    0.4095 H   0  0  0  0  0  0  0  0  0  0  0  0
    4.0450   -1.1464    0.7327 H   0  0  0  0  0  0  0  0  0  0  0  0
    4.7279   -1.2457    3.6978 H   0  0  0  0  0  0  0  0  0  0  0  0
    5.3264   -0.0877    2.5441 H   0  0  0  0  0  0  0  0  0  0  0  0
    3.4288    0.7389    3.9836 H   0  0  0  0  0  0  0  0  0  0  0  0
    3.7095    1.6974    2.0291 H   0  0  0  0  0  0  0  0  0  0  0  0
    2.0942   -1.2607    4.2625 H   0  0  0  0  0  0  0  0  0  0  0  0
    1.1207   -0.0855    3.4242 H   0  0  0  0  0  0  0  0  0  0  0  0
    0.8731   -2.2656    2.3604 H   0  0  0  0  0  0  0  0  0  0  0  0
    1.5715   -1.1203    1.2756 H   0  0  0  0  0  0  0  0  0  0  0  0
    1.8349   -4.0442    0.6304 H   0  0  0  0  0  0  0  0  0  0  0  0
    3.4868   -3.9759    0.1213 H   0  0  0  0  0  0  0  0  0  0  0  0
    2.4278   -2.6472   -0.2700 H   0  0  0  0  0  0  0  0  0  0  0  0
    3.3813   -3.0608    3.8979 H   0  0  0  0  0  0  0  0  0  0  0  0
    2.1811   -4.8293    4.4887 H   0  0  0  0  0  0  0  0  0  0  0  0
    1.1332   -4.1788    3.2805 H   0  0  0  0  0  0  0  0  0  0  0  0
    1.3207   -6.6653    3.1720 H   0  0  0  0  0  0  0  0  0  0  0  0
    1.8557   -5.9465    1.6693 H   0  0  0  0  0  0  0  0  0  0  0  0
    3.7135   -6.7203    3.9456 H   0  0  0  0  0  0  0  0  0  0  0  0
    3.1927   -8.1689    1.3205 H   0  0  0  0  0  0  0  0  0  0  0  0
    3.0553  -10.7498    1.8111 H   0  0  0  0  0  0  0  0  0  0  0  0
    1.5848   -9.8284    2.0741 H   0  0  0  0  0  0  0  0  0  0  0  0
    2.6659   -8.7923    3.9654 H   0  0  0  0  0  0  0  0  0  0  0  0
  1  2  1  0
  1 37  1  0
  1 38  1  0
  1 39  1  0
  2 36  1  0
  2  3  1  0
  2 40  1  6
  3  4  1  0
  3 41  1  0
  3 42  1  0
  4  6  1  0
  4  5  1  0
  4 43  1  1
  6  5  1  1
  6 35  1  0
  6  7  1  0
  7  8  1  0
  7 14  1  0
  7 44  1  1
  8  9  2  3
  8 45  1  0
  9 10  1  0
  9 46  1  0
 10 13  1  0
 10 11  1  0
 10 47  1  0
 11 12  1  0
 11 48  1  0
 11 49  1  0
 12 13  1  0
 12 50  1  0
 12 51  1  0
 13 52  1  0
 13 53  1  0
 14 34  1  0
 14 15  1  6
 14 16  1  0
 15 54  1  0
 15 55  1  0
 15 56  1  0
 16 17  1  0
 16 18  1  0
 16 57  1  1
 17 58  1  0
 18 33  1  0
 18 19  1  0
 18 59  1  6
 19 30  1  0
 19 20  1  0
 19 60  1  1
 20 21  1  0
 20 61  1  0
 20 62  1  0
 21 22  1  0
 21 63  1  0
 21 64  1  0
 22 28  1  0
 22 23  1  0
 22 65  1  6
 23 24  1  0
 23 66  1  0
 23 67  1  0
 24 25  1  0
 24 26  1  0
 24 68  1  1
 25 69  1  0
 26 27  1  0
 26 70  1  0
 26 71  1  0
 27 28  1  0
 27 72  1  0
 27 73  1  0
 28 29  1  6
 28 30  1  0
 29 74  1  0
 29 75  1  0
 29 76  1  0
 30 31  1  0
 30 77  1  1
 31 32  1  0
 31 78  1  0
 31 79  1  0
 32 33  1  0
 32 80  1  0
 32 81  1  0
 33 34  1  0
 33 82  1  1
 34 35  1  0
 34 83  1  6
 35 36  1  0
 35 86  1  1
 36 84  1  0
 36 85  1  0
M  CHG  1  35   1
M  END
>  <i_m_ct_stereo_status>  (201) 
1

>  <s_m_source_file>  (201) 
/var/tmp/pbs.5076255.sched01/tmp25xsusm8/82mdre8bl4.sdf

>  <i_m_source_file_index>  (201) 
19

>  <i_lp_mmshare_version>  (201) 
48012

>  <i_f3d_flags>  (201) 
0

>  <s_epik_input>  (201) 
TzFbQ0BIXShbQ0BAXTEyMylbQ0gyXVtDQEBIXShbQ0gzXSlbQ0gyXU4zW0NAQEhdNFtDQF0oW0NIM10pKFtDQEBIXTIvW0NIXT1bQ0hdL1tDSF01W0NIMl1bQ0gyXVtDSDJdNSlbQ0BASF0oW09IXSlbQ0BASF02W0NAQEhdN1tDQEhdKFtDSDJdW0NIMl1bQ0BASF00NilbQ0BdOChbQ0gzXSlbQ0BIXShbQ0gyXVtDSDJdNylbQ0gyXVtDQEBIXShbT0hdKVtDSDJdW0NIMl04

>  <s_epik_cmdline>  (201) 
J2VwaWtfcHl0aG9uJywgJy1waHQnLCAnMi4wJywgJy1waCcsICc3LjAnLCAnLXRuJywgJzgnLCAnLW1hJywgJzIwMCcsICctaW1hZScsICc8aW5maWxlLm1hZT4nLCAnLW9tYWUnLCAnPG91dGZpbGUubWFlPic=

>  <r_epik_Ionization_Penalty>  (201) 
2.32851

>  <r_epik_Ionization_Penalty_Charging>  (201) 
2.32851

>  <r_epik_Ionization_Penalty_Neutral>  (201) 
3.22818e-06

>  <r_epik_State_Penalty>  (201) 
2.48122

>  <r_epik_Charging_Adjusted_Penalty>  (201) 
4.80973

>  <i_epik_Tot_Q>  (201) 
1

>  <i_epik_Tot_abs_Q>  (201) 
1

>  <s_lp_Force_Field>  (201) 
OPLS3e

>  <r_lp_Energy>  (201) 
87.5518

>  <b_lp_Chiralities_Consistent>  (201) 
1

>  <s_lp_Variant>  (201) 
72:0-4

>  <s_i_glide_gridfile>  (201) 
pfpi4k_grid

>  <i_i_glide_lignum>  (201) 
19

>  <i_i_glide_rotatable_bonds>  (201) 
4

>  <r_i_docking_score>  (201) 
-2.69089

>  <r_i_glide_ligand_efficiency>  (201) 
-0.0747471

>  <r_i_glide_ligand_efficiency_sa>  (201) 
-0.246809

>  <r_i_glide_ligand_efficiency_ln>  (201) 
-0.58708

>  <r_i_glide_gscore>  (201) 
-2.69089

>  <r_i_glide_lipo>  (201) 
-0.386925

>  <r_i_glide_hbond>  (201) 
-0.32

>  <r_i_glide_metal>  (201) 
-0

>  <r_i_glide_rewards>  (201) 
-0.022198

>  <r_i_glide_evdw>  (201) 
-27.0049

>  <r_i_glide_ecoul>  (201) 
-5.07177

>  <r_i_glide_erotb>  (201) 
0.165301

>  <r_i_glide_esite>  (201) 
-0.0160595

>  <r_i_glide_emodel>  (201) 
-35.0671

>  <r_i_glide_energy>  (201) 
-32.0767

>  <r_i_glide_einternal>  (201) 
3.76693

>  <r_i_glide_intrahb_reward>  (201) 
-0

>  <i_i_glide_confnum>  (201) 
2

>  <i_i_glide_posenum>  (201) 
30

>  <r_i_glide_eff_state_penalty>  (201) 
0

>  <ligand_id>  (201) 
72

>  <original_smiles>  (201) 
CC1CC2OC23C(C=CC2CCC2)C2(C)C(O)C4C5CCC6CC(O)CCC6(C)C5CCC4C2N3C1

>  <smiles>  (201) 
[H]OC1([H])C([H])([H])C([H])([H])C2(C([H])([H])[H])C([H])(C([H])([H])C([H])([H])C3([H])C4([H])C([H])(O[H])C5(C([H])([H])[H])C([H])(C([H])=C([H])C6([H])C([H])([H])C([H])([H])C6([H])[H])C67OC6([H])C([H])([H])C([H])(C([H])([H])[H])C([H])([H])[N+]7([H])C5([H])C4([H])C([H])([H])C([H])([H])C32[H])C1([H])[H]

$$$$
72:3:2
     RDKit          3D

 86 93  0  0  1  0  0  0  0  0999 V2000
    1.6085  -10.5909    4.0124 C   0  0  0  0  0  0  0  0  0  0  0  0
    2.4630  -10.2504    5.2492 C   0  0  2  0  0  0  0  0  0  0  0  0
    1.6185   -9.8432    6.4802 C   0  0  0  0  0  0  0  0  0  0  0  0
    1.4769   -8.3730    6.6851 C   0  0  2  0  0  0  0  0  0  0  0  0
    0.9167   -7.5711    5.6159 O   0  0  0  0  0  0  0  0  0  0  0  0
    2.3330   -7.3738    5.9015 C   0  0  1  0  0  0  0  0  0  0  0  0
    2.7242   -5.9577    6.1876 C   0  0  1  0  0  0  0  0  0  0  0  0
    2.6768   -5.5777    7.6657 C   0  0  0  0  0  0  0  0  0  0  0  0
    1.7315   -4.8590    8.3032 C   0  0  0  0  0  0  0  0  0  0  0  0
    0.4546   -4.2743    7.7283 C   0  0  0  0  0  0  0  0  0  0  0  0
    0.0046   -2.9929    8.4556 C   0  0  0  0  0  0  0  0  0  0  0  0
   -0.8936   -3.8600    9.3504 C   0  0  0  0  0  0  0  0  0  0  0  0
   -0.8084   -4.9527    8.2864 C   0  0  0  0  0  0  0  0  0  0  0  0
    4.1208   -5.8310    5.5127 C   0  0  2  0  0  0  0  0  0  0  0  0
    5.2900   -6.2678    6.4227 C   0  0  0  0  0  0  0  0  0  0  0  0
    4.2784   -4.4132    4.8710 C   0  0  1  0  0  0  0  0  0  0  0  0
    5.4429   -3.7316    5.3159 O   0  0  0  0  0  0  0  0  0  0  0  0
    4.3039   -4.6255    3.3422 C   0  0  2  0  0  0  0  0  0  0  0  0
    3.6606   -3.5360    2.4417 C   0  0  1  0  0  0  0  0  0  0  0  0
    4.1565   -2.0885    2.6699 C   0  0  0  0  0  0  0  0  0  0  0  0
    5.3851   -1.6950    1.8363 C   0  0  0  0  0  0  0  0  0  0  0  0
    5.1620   -1.9762    0.3352 C   0  0  2  0  0  0  0  0  0  0  0  0
    4.0992   -1.0252   -0.2582 C   0  0  0  0  0  0  0  0  0  0  0  0
    3.8486   -1.2465   -1.7536 C   0  0  1  0  0  0  0  0  0  0  0  0
    4.9717   -0.8101   -2.4758 O   0  0  0  0  0  0  0  0  0  0  0  0
    3.5533   -2.7095   -2.0693 C   0  0  0  0  0  0  0  0  0  0  0  0
    4.6366   -3.6230   -1.4754 C   0  0  0  0  0  0  0  0  0  0  0  0
    4.8729   -3.4781    0.0591 C   0  0  1  0  0  0  0  0  0  0  0  0
    6.1407   -4.3087    0.3438 C   0  0  0  0  0  0  0  0  0  0  0  0
    3.6366   -3.9443    0.9266 C   0  0  1  0  0  0  0  0  0  0  0  0
    3.1546   -5.4150    0.7369 C   0  0  0  0  0  0  0  0  0  0  0  0
    3.7461   -6.4482    1.7337 C   0  0  0  0  0  0  0  0  0  0  0  0
    3.5375   -5.9438    3.1645 C   0  0  1  0  0  0  0  0  0  0  0  0
    3.9991   -6.8534    4.3314 C   0  0  2  0  0  0  0  0  0  0  0  0
    3.0301   -7.8731    4.7349 N   0  0  1  0  0  0  0  0  0  0  0  0
    3.5759   -9.2209    4.9249 C   0  0  0  0  0  0  0  0  0  0  0  0
    1.0581   -9.7238    3.6528 H   0  0  0  0  0  0  0  0  0  0  0  0
    0.8882  -11.3816    4.2427 H   0  0  0  0  0  0  0  0  0  0  0  0
    2.2380  -10.9646    3.2056 H   0  0  0  0  0  0  0  0  0  0  0  0
    2.9438  -11.1934    5.5235 H   0  0  0  0  0  0  0  0  0  0  0  0
    0.6113  -10.2808    6.4252 H   0  0  0  0  0  0  0  0  0  0  0  0
    2.0735  -10.2551    7.3752 H   0  0  0  0  0  0  0  0  0  0  0  0
    1.1299   -8.0573    7.6773 H   0  0  0  0  0  0  0  0  0  0  0  0
    2.0059   -5.3387    5.6523 H   0  0  0  0  0  0  0  0  0  0  0  0
    3.4985   -5.9149    8.2888 H   0  0  0  0  0  0  0  0  0  0  0  0
    1.8855   -4.6792    9.3601 H   0  0  0  0  0  0  0  0  0  0  0  0
    0.4397   -4.1721    6.6474 H   0  0  0  0  0  0  0  0  0  0  0  0
    0.7910   -2.4506    8.9839 H   0  0  0  0  0  0  0  0  0  0  0  0
   -0.5633   -2.3356    7.8014 H   0  0  0  0  0  0  0  0  0  0  0  0
   -0.3983   -4.1469   10.2862 H   0  0  0  0  0  0  0  0  0  0  0  0
   -1.8932   -3.4734    9.5439 H   0  0  0  0  0  0  0  0  0  0  0  0
   -1.6499   -4.9159    7.5879 H   0  0  0  0  0  0  0  0  0  0  0  0
   -0.6585   -5.9598    8.6689 H   0  0  0  0  0  0  0  0  0  0  0  0
    6.2351   -6.3180    5.8799 H   0  0  0  0  0  0  0  0  0  0  0  0
    5.1160   -7.2534    6.8486 H   0  0  0  0  0  0  0  0  0  0  0  0
    5.4448   -5.5777    7.2579 H   0  0  0  0  0  0  0  0  0  0  0  0
    3.4336   -3.7790    5.1321 H   0  0  0  0  0  0  0  0  0  0  0  0
    6.1976   -4.2295    5.0998 H   0  0  0  0  0  0  0  0  0  0  0  0
    5.3361   -4.8002    3.0580 H   0  0  0  0  0  0  0  0  0  0  0  0
    2.6173   -3.5053    2.7601 H   0  0  0  0  0  0  0  0  0  0  0  0
    3.3479   -1.3982    2.4294 H   0  0  0  0  0  0  0  0  0  0  0  0
    4.3681   -1.9082    3.7204 H   0  0  0  0  0  0  0  0  0  0  0  0
    5.6097   -0.6417    1.9843 H   0  0  0  0  0  0  0  0  0  0  0  0
    6.2558   -2.2295    2.2020 H   0  0  0  0  0  0  0  0  0  0  0  0
    6.1076   -1.7174   -0.1647 H   0  0  0  0  0  0  0  0  0  0  0  0
    3.1372   -1.1512    0.2409 H   0  0  0  0  0  0  0  0  0  0  0  0
    4.3840    0.0164   -0.0849 H   0  0  0  0  0  0  0  0  0  0  0  0
    2.9902   -0.6581   -2.0883 H   0  0  0  0  0  0  0  0  0  0  0  0
    4.7243   -0.7701   -3.3822 H   0  0  0  0  0  0  0  0  0  0  0  0
    2.5722   -2.9670   -1.6659 H   0  0  0  0  0  0  0  0  0  0  0  0
    3.4774   -2.8532   -3.1414 H   0  0  0  0  0  0  0  0  0  0  0  0
    4.4178   -4.6483   -1.7439 H   0  0  0  0  0  0  0  0  0  0  0  0
    5.5646   -3.3978   -2.0012 H   0  0  0  0  0  0  0  0  0  0  0  0
    5.9977   -5.3630    0.1037 H   0  0  0  0  0  0  0  0  0  0  0  0
    6.4765   -4.2481    1.3807 H   0  0  0  0  0  0  0  0  0  0  0  0
    6.9789   -3.9650   -0.2573 H   0  0  0  0  0  0  0  0  0  0  0  0
    2.8035   -3.3651    0.5170 H   0  0  0  0  0  0  0  0  0  0  0  0
    2.0772   -5.4337    0.8637 H   0  0  0  0  0  0  0  0  0  0  0  0
    3.3263   -5.7669   -0.2788 H   0  0  0  0  0  0  0  0  0  0  0  0
    3.2497   -7.4135    1.5860 H   0  0  0  0  0  0  0  0  0  0  0  0
    4.8024   -6.6119    1.5380 H   0  0  0  0  0  0  0  0  0  0  0  0
    2.4686   -5.7519    3.3015 H   0  0  0  0  0  0  0  0  0  0  0  0
    4.9790   -7.2636    4.0761 H   0  0  0  0  0  0  0  0  0  0  0  0
    4.3075   -9.2244    5.7489 H   0  0  0  0  0  0  0  0  0  0  0  0
    4.1109   -9.5617    4.0374 H   0  0  0  0  0  0  0  0  0  0  0  0
    2.3230   -7.9615    3.9877 H   0  0  0  0  0  0  0  0  0  0  0  0
  1  2  1  0
  1 37  1  0
  1 38  1  0
  1 39  1  0
  2 36  1  0
  2  3  1  0
  2 40  1  1
  3  4  1  0
  3 41  1  0
  3 42  1  0
  4  6  1  0
  4  5  1  0
  4 43  1  1
  6  5  1  6
  6 35  1  0
  6  7  1  0
  7  8  1  0
  7 14  1  0
  7 44  1  6
  8  9  2  3
  8 45  1  0
  9 10  1  0
  9 46  1  0
 10 13  1  0
 10 11  1  0
 10 47  1  0
 11 12  1  0
 11 48  1  0
 11 49  1  0
 12 13  1  0
 12 50  1  0
 12 51  1  0
 13 52  1  0
 13 53  1  0
 14 34  1  0
 14 15  1  1
 14 16  1  0
 15 54  1  0
 15 55  1  0
 15 56  1  0
 16 17  1  0
 16 18  1  0
 16 57  1  6
 17 58  1  0
 18 33  1  0
 18 19  1  0
 18 59  1  6
 19 30  1  0
 19 20  1  0
 19 60  1  1
 20 21  1  0
 20 61  1  0
 20 62  1  0
 21 22  1  0
 21 63  1  0
 21 64  1  0
 22 28  1  0
 22 23  1  0
 22 65  1  6
 23 24  1  0
 23 66  1  0
 23 67  1  0
 24 25  1  0
 24 26  1  0
 24 68  1  6
 25 69  1  0
 26 27  1  0
 26 70  1  0
 26 71  1  0
 27 28  1  0
 27 72  1  0
 27 73  1  0
 28 29  1  1
 28 30  1  0
 29 74  1  0
 29 75  1  0
 29 76  1  0
 30 31  1  0
 30 77  1  6
 31 32  1  0
 31 78  1  0
 31 79  1  0
 32 33  1  0
 32 80  1  0
 32 81  1  0
 33 34  1  0
 33 82  1  1
 34 35  1  0
 34 83  1  6
 35 36  1  0
 35 86  1  6
 36 84  1  0
 36 85  1  0
M  CHG  1  35   1
M  END
>  <i_m_ct_stereo_status>  (202) 
1

>  <s_m_source_file>  (202) 
/var/tmp/pbs.5076255.sched01/tmp25xsusm8/82mdre8bl4.sdf

>  <i_m_source_file_index>  (202) 
19

>  <i_lp_mmshare_version>  (202) 
48012

>  <i_f3d_flags>  (202) 
0

>  <s_epik_input>  (202) 
TzFbQ0BIXShbQ0BAXTEyMylbQ0gyXVtDQEBIXShbQ0gzXSlbQ0gyXU4zW0NAQEhdNFtDQF0oW0NIM10pKFtDQEBIXTIvW0NIXT1bQ0hdL1tDSF01W0NIMl1bQ0gyXVtDSDJdNSlbQ0BASF0oW09IXSlbQ0BASF02W0NAQEhdN1tDQEhdKFtDSDJdW0NIMl1bQ0BASF00NilbQ0BdOChbQ0gzXSlbQ0BIXShbQ0gyXVtDSDJdNylbQ0gyXVtDQEBIXShbT0hdKVtDSDJdW0NIMl04

>  <s_epik_cmdline>  (202) 
J2VwaWtfcHl0aG9uJywgJy1waHQnLCAnMi4wJywgJy1waCcsICc3LjAnLCAnLXRuJywgJzgnLCAnLW1hJywgJzIwMCcsICctaW1hZScsICc8aW5maWxlLm1hZT4nLCAnLW9tYWUnLCAnPG91dGZpbGUubWFlPic=

>  <r_epik_Ionization_Penalty>  (202) 
2.32851

>  <r_epik_Ionization_Penalty_Charging>  (202) 
2.32851

>  <r_epik_Ionization_Penalty_Neutral>  (202) 
3.22818e-06

>  <r_epik_State_Penalty>  (202) 
2.48122

>  <r_epik_Charging_Adjusted_Penalty>  (202) 
4.80973

>  <i_epik_Tot_Q>  (202) 
1

>  <i_epik_Tot_abs_Q>  (202) 
1

>  <s_lp_Force_Field>  (202) 
OPLS3e

>  <r_lp_Energy>  (202) 
87.5518

>  <b_lp_Chiralities_Consistent>  (202) 
1

>  <s_lp_Variant>  (202) 
72:0-4

>  <s_i_glide_gridfile>  (202) 
pfpi4k_grid

>  <i_i_glide_lignum>  (202) 
19

>  <i_i_glide_rotatable_bonds>  (202) 
4

>  <r_i_docking_score>  (202) 
-2.05115

>  <r_i_glide_ligand_efficiency>  (202) 
-0.0569763

>  <r_i_glide_ligand_efficiency_sa>  (202) 
-0.188132

>  <r_i_glide_ligand_efficiency_ln>  (202) 
-0.447505

>  <r_i_glide_gscore>  (202) 
-2.05115

>  <r_i_glide_lipo>  (202) 
-0.355196

>  <r_i_glide_hbond>  (202) 
0

>  <r_i_glide_metal>  (202) 
-0

>  <r_i_glide_rewards>  (202) 
-0.022198

>  <r_i_glide_evdw>  (202) 
-28.2097

>  <r_i_glide_ecoul>  (202) 
-2.85394

>  <r_i_glide_erotb>  (202) 
0.165301

>  <r_i_glide_esite>  (202) 
-0.00047721

>  <r_i_glide_emodel>  (202) 
-34.8297

>  <r_i_glide_energy>  (202) 
-31.0636

>  <r_i_glide_einternal>  (202) 
1.57137

>  <r_i_glide_intrahb_reward>  (202) 
-0

>  <i_i_glide_confnum>  (202) 
1

>  <i_i_glide_posenum>  (202) 
8

>  <r_i_glide_eff_state_penalty>  (202) 
0

>  <ligand_id>  (202) 
72

>  <original_smiles>  (202) 
CC1CC2OC23C(C=CC2CCC2)C2(C)C(O)C4C5CCC6CC(O)CCC6(C)C5CCC4C2N3C1

>  <smiles>  (202) 
[H]OC1([H])C([H])([H])C([H])([H])C2(C([H])([H])[H])C([H])(C([H])([H])C([H])([H])C3([H])C4([H])C([H])(O[H])C5(C([H])([H])[H])C([H])(C([H])=C([H])C6([H])C([H])([H])C([H])([H])C6([H])[H])C67OC6([H])C([H])([H])C([H])(C([H])([H])[H])C([H])([H])[N+]7([H])C5([H])C4([H])C([H])([H])C([H])([H])C32[H])C1([H])[H]

$$$$
73:0:0
     RDKit          3D

 85 91  0  0  1  0  0  0  0  0999 V2000
    6.8482   -6.0294    5.3758 C   0  0  0  0  0  0  0  0  0  0  0  0
    5.4068   -6.5191    5.1449 C   0  0  2  0  0  0  0  0  0  0  0  0
    5.1668   -7.7953    5.9544 C   0  0  0  0  0  0  0  0  0  0  0  0
    3.7345   -8.3558    5.9445 C   0  0  1  0  0  0  0  0  0  0  0  0
    2.8369   -7.5888    6.7002 O   0  0  0  0  0  0  0  0  0  0  0  0
    3.2263   -8.7547    4.5322 C   0  0  1  0  0  0  0  0  0  0  0  0
    2.4686  -10.1556    4.4919 C   0  0  1  0  0  0  0  0  0  0  0  0
    3.3050  -11.2838    5.1732 C   0  0  0  0  0  0  0  0  0  0  0  0
    1.0452  -10.1736    5.1120 C   0  0  0  0  0  0  0  0  0  0  0  0
    1.0799   -9.8632    6.4972 O   0  0  0  0  0  0  0  0  0  0  0  0
    2.3963  -10.6119    3.0143 C   0  0  0  0  0  0  0  0  0  0  0  0
    1.8231   -9.5538    2.0879 C   0  0  0  0  0  0  0  0  0  0  0  0
    2.6123   -8.2466    2.1742 C   0  0  0  0  0  0  0  0  0  0  0  0
    2.6704   -7.5648    3.5832 C   0  0  1  0  0  0  0  0  0  0  0  0
    1.2304   -7.1510    4.0095 C   0  0  0  0  0  0  0  0  0  0  0  0
    3.6017   -6.2384    3.5046 C   0  0  2  0  0  0  0  0  0  0  0  0
    5.0885   -6.6354    3.6583 C   0  0  0  0  0  0  0  0  0  0  0  0
    3.4708   -5.2391    4.7244 C   0  0  1  0  0  0  0  0  0  0  0  0
    4.5168   -5.5250    5.6432 O   0  0  0  0  0  0  0  0  0  0  0  0
    3.7996   -3.8158    4.2299 C   0  0  2  0  0  0  0  0  0  0  0  0
    2.7975   -2.7002    4.2091 C   0  0  0  0  0  0  0  0  0  0  0  0
    1.5825   -2.4822    4.7585 C   0  0  0  0  0  0  0  0  0  0  0  0
    0.9640   -1.2440    4.1596 C   0  0  0  0  0  0  0  0  0  0  0  0
    1.8184   -0.9912    2.8764 C   0  0  1  0  0  0  0  0  0  0  0  0
    1.8323    0.4663    2.2977 C   0  0  2  0  0  0  0  0  0  0  0  0
    2.1117    1.5809    3.3297 C   0  0  0  0  0  0  0  0  0  0  0  0
    0.8213    2.1070    3.6387 O   0  0  0  0  0  0  0  0  0  0  0  0
   -0.1622    1.6818    2.8144 C   0  0  0  0  0  0  0  0  0  0  0  0
   -1.3663    1.8437    2.9403 O   0  0  0  0  0  0  0  0  0  0  0  0
    0.4769    0.8717    1.7013 C   0  0  0  0  0  0  0  0  0  0  0  0
    3.1817   -1.6812    3.1763 C   0  0  1  0  0  0  0  0  0  0  0  0
    4.2802   -0.7737    3.7593 C   0  0  0  0  0  0  0  0  0  0  0  0
    3.7596   -2.5835    2.0566 C   0  0  0  0  0  0  0  0  0  0  0  0
    4.1360   -3.9339    2.7378 C   0  0  2  0  0  0  0  0  0  0  0  0
    3.4277   -5.2477    2.2513 C   0  0  0  0  0  0  0  0  0  0  0  0
    4.1311   -5.6695    0.9293 C   0  0  0  0  0  0  0  0  0  0  0  0
    1.9428   -4.9425    1.8986 C   0  0  0  0  0  0  0  0  0  0  0  0
    7.5834   -6.7383    4.9874 H   0  0  0  0  0  0  0  0  0  0  0  0
    7.0586   -5.9021    6.4369 H   0  0  0  0  0  0  0  0  0  0  0  0
    7.0316   -5.0705    4.8919 H   0  0  0  0  0  0  0  0  0  0  0  0
    5.8409   -8.5754    5.5988 H   0  0  0  0  0  0  0  0  0  0  0  0
    5.4534   -7.6307    6.9897 H   0  0  0  0  0  0  0  0  0  0  0  0
    3.8307   -9.2437    6.5568 H   0  0  0  0  0  0  0  0  0  0  0  0
    2.0427   -8.1251    6.7941 H   0  0  0  0  0  0  0  0  0  0  0  0
    4.1510   -9.0690    4.0566 H   0  0  0  0  0  0  0  0  0  0  0  0
    2.9707  -12.2707    4.8486 H   0  0  0  0  0  0  0  0  0  0  0  0
    3.2223  -11.2881    6.2604 H   0  0  0  0  0  0  0  0  0  0  0  0
    4.3626  -11.2024    4.9236 H   0  0  0  0  0  0  0  0  0  0  0  0
    0.3383   -9.5117    4.6159 H   0  0  0  0  0  0  0  0  0  0  0  0
    0.6225  -11.1750    4.9965 H   0  0  0  0  0  0  0  0  0  0  0  0
    1.1985  -10.6972    6.9599 H   0  0  0  0  0  0  0  0  0  0  0  0
    3.3909  -10.8768    2.6528 H   0  0  0  0  0  0  0  0  0  0  0  0
    1.8035  -11.5254    2.9316 H   0  0  0  0  0  0  0  0  0  0  0  0
    1.9036   -9.9055    1.0604 H   0  0  0  0  0  0  0  0  0  0  0  0
    0.7610   -9.4215    2.2758 H   0  0  0  0  0  0  0  0  0  0  0  0
    3.6251   -8.4527    1.8224 H   0  0  0  0  0  0  0  0  0  0  0  0
    2.1614   -7.6218    1.4150 H   0  0  0  0  0  0  0  0  0  0  0  0
    1.0409   -6.0883    3.9470 H   0  0  0  0  0  0  0  0  0  0  0  0
    1.0266   -7.4025    5.0442 H   0  0  0  0  0  0  0  0  0  0  0  0
    0.4609   -7.6128    3.3975 H   0  0  0  0  0  0  0  0  0  0  0  0
    5.7524   -5.9614    3.1421 H   0  0  0  0  0  0  0  0  0  0  0  0
    5.3523   -7.6009    3.2274 H   0  0  0  0  0  0  0  0  0  0  0  0
    2.5171   -5.2513    5.2627 H   0  0  0  0  0  0  0  0  0  0  0  0
    4.6756   -3.4310    4.7587 H   0  0  0  0  0  0  0  0  0  0  0  0
    1.0929   -3.0904    5.5069 H   0  0  0  0  0  0  0  0  0  0  0  0
   -0.0974   -1.3573    3.9302 H   0  0  0  0  0  0  0  0  0  0  0  0
    1.0747   -0.4634    4.9087 H   0  0  0  0  0  0  0  0  0  0  0  0
    1.3543   -1.6150    2.1189 H   0  0  0  0  0  0  0  0  0  0  0  0
    2.5606    0.4994    1.4887 H   0  0  0  0  0  0  0  0  0  0  0  0
    2.6591    1.1898    4.2135 H   0  0  0  0  0  0  0  0  0  0  0  0
    2.6847    2.3975    2.8717 H   0  0  0  0  0  0  0  0  0  0  0  0
    0.5938    1.5354    0.8468 H   0  0  0  0  0  0  0  0  0  0  0  0
   -0.1374    0.0240    1.3959 H   0  0  0  0  0  0  0  0  0  0  0  0
    4.5640   -0.0067    3.0409 H   0  0  0  0  0  0  0  0  0  0  0  0
    5.1949   -1.3380    3.9703 H   0  0  0  0  0  0  0  0  0  0  0  0
    3.8838   -0.2361    4.6357 H   0  0  0  0  0  0  0  0  0  0  0  0
    3.0805   -2.6841    1.2140 H   0  0  0  0  0  0  0  0  0  0  0  0
    4.6481   -2.1226    1.6241 H   0  0  0  0  0  0  0  0  0  0  0  0
    5.2166   -4.0342    2.6393 H   0  0  0  0  0  0  0  0  0  0  0  0
    4.0915   -4.8454    0.2164 H   0  0  0  0  0  0  0  0  0  0  0  0
    3.6693   -6.5133    0.4213 H   0  0  0  0  0  0  0  0  0  0  0  0
    5.1860   -5.9019    1.0559 H   0  0  0  0  0  0  0  0  0  0  0  0
    1.8580   -4.3784    0.9740 H   0  0  0  0  0  0  0  0  0  0  0  0
    1.4393   -4.3690    2.6737 H   0  0  0  0  0  0  0  0  0  0  0  0
    1.3245   -5.8148    1.7236 H   0  0  0  0  0  0  0  0  0  0  0  0
  2  1  1  6
  1 38  1  0
  1 39  1  0
  1 40  1  0
  2 17  1  0
  2 19  1  0
  2  3  1  0
  3  4  1  0
  3 41  1  0
  3 42  1  0
  4  5  1  0
  4  6  1  0
  4 43  1  1
  5 44  1  0
  6 14  1  0
  6  7  1  0
  6 45  1  6
  7  8  1  1
  7  9  1  0
  7 11  1  0
  8 46  1  0
  8 47  1  0
  8 48  1  0
  9 10  1  0
  9 49  1  0
  9 50  1  0
 10 51  1  0
 11 12  1  0
 11 52  1  0
 11 53  1  0
 12 13  1  0
 12 54  1  0
 12 55  1  0
 13 14  1  0
 13 56  1  0
 13 57  1  0
 14 15  1  1
 14 16  1  0
 15 58  1  0
 15 59  1  0
 15 60  1  0
 16 35  1  6
 16 17  1  0
 16 18  1  0
 17 61  1  0
 17 62  1  0
 18 19  1  0
 18 20  1  0
 18 63  1  1
 20 34  1  0
 20 21  1  0
 20 64  1  1
 21 31  1  0
 21 22  2  0
 22 23  1  0
 22 65  1  0
 23 24  1  0
 23 66  1  0
 23 67  1  0
 24 25  1  0
 24 31  1  0
 24 68  1  6
 25 30  1  0
 25 26  1  0
 25 69  1  6
 26 27  1  0
 26 70  1  0
 26 71  1  0
 27 28  1  0
 28 29  2  0
 28 30  1  0
 30 72  1  0
 30 73  1  0
 31 32  1  1
 31 33  1  0
 32 74  1  0
 32 75  1  0
 32 76  1  0
 33 34  1  0
 33 77  1  0
 33 78  1  0
 34 35  1  0
 34 79  1  1
 35 36  1  0
 35 37  1  0
 36 80  1  0
 36 81  1  0
 36 82  1  0
 37 83  1  0
 37 84  1  0
 37 85  1  0
M  END
>  <i_m_ct_stereo_status>  (203) 
1

>  <s_m_source_file>  (203) 
/var/tmp/pbs.5076255.sched01/tmp25xsusm8/82mdre8bl4.sdf

>  <i_m_source_file_index>  (203) 
20

>  <i_lp_mmshare_version>  (203) 
48012

>  <i_f3d_flags>  (203) 
0

>  <s_epik_input>  (203) 
W0NIMl0xW0NIMl1bQ0gyXVtDQF0oW0NIM10pKFtDSDJdW09IXSlbQ0BASF0oW0NAXTEoW0NAXTIzNClbQ0gzXSlbQ0BIXShbT0hdKVtDSDJdW0NAQF0oW0NIM10pKFtDSDJdMilPW0NASF0zW0NAQEhdNUM9NltDQEBdKFtDSDNdKShbQ0gyXVtDQEBIXTVDNChbQ0gzXSlbQ0gzXSlbQ0BASF0oW0NIMl1bQ0hdNilbQ0BASF03W0NIMl1PQyg9TylbQ0gyXTc=

>  <s_epik_cmdline>  (203) 
J2VwaWtfcHl0aG9uJywgJy1waHQnLCAnMi4wJywgJy1waCcsICc3LjAnLCAnLXRuJywgJzgnLCAnLW1hJywgJzIwMCcsICctaW1hZScsICc8aW5maWxlLm1hZT4nLCAnLW9tYWUnLCAnPG91dGZpbGUubWFlPic=

>  <r_lp_tautomer_probability>  (203) 
1

>  <r_epik_Ionization_Penalty>  (203) 
1.5975e-06

>  <r_epik_Ionization_Penalty_Charging>  (203) 
0

>  <r_epik_Ionization_Penalty_Neutral>  (203) 
1.5975e-06

>  <r_epik_State_Penalty>  (203) 
-0

>  <r_epik_Charging_Adjusted_Penalty>  (203) 
0

>  <i_epik_Tot_Q>  (203) 
0

>  <i_epik_Tot_abs_Q>  (203) 
0

>  <s_epik_Chemistry_Notes>  (203) 
This compound has an ester and may undergo hydrolysis at high or low pH.

>  <s_lp_Force_Field>  (203) 
OPLS3e

>  <r_lp_Energy>  (203) 
77.3724

>  <b_lp_Chiralities_Consistent>  (203) 
1

>  <s_lp_Variant>  (203) 
73:0-1

>  <s_i_glide_gridfile>  (203) 
pfpi4k_grid

>  <i_i_glide_lignum>  (203) 
20

>  <i_i_glide_rotatable_bonds>  (203) 
4

>  <r_i_docking_score>  (203) 
-2.50428

>  <r_i_glide_ligand_efficiency>  (203) 
-0.0676831

>  <r_i_glide_ligand_efficiency_sa>  (203) 
-0.225535

>  <r_i_glide_ligand_efficiency_ln>  (203) 
-0.543119

>  <r_i_glide_gscore>  (203) 
-2.50428

>  <r_i_glide_lipo>  (203) 
-0.18216

>  <r_i_glide_hbond>  (203) 
0

>  <r_i_glide_metal>  (203) 
-0

>  <r_i_glide_rewards>  (203) 
-0.5

>  <r_i_glide_evdw>  (203) 
-23.8446

>  <r_i_glide_ecoul>  (203) 
-4.88

>  <r_i_glide_erotb>  (203) 
0.155974

>  <r_i_glide_esite>  (203) 
-0.0538618

>  <r_i_glide_emodel>  (203) 
-34.6228

>  <r_i_glide_energy>  (203) 
-28.7246

>  <r_i_glide_einternal>  (203) 
5.49704

>  <r_i_glide_intrahb_reward>  (203) 
-0.5

>  <i_i_glide_confnum>  (203) 
5

>  <i_i_glide_posenum>  (203) 
39

>  <r_i_glide_eff_state_penalty>  (203) 
0

>  <ligand_id>  (203) 
73

>  <original_smiles>  (203) 
CC12CC(O)C3C(C)(CO)CCCC3(C)C3(C1)C(O2)C1C2=CCC(C4COC(=O)C4)C2(C)CC1C3(C)C

>  <smiles>  (203) 
[H]OC([H])([H])C1(C([H])([H])[H])C([H])([H])C([H])([H])C([H])([H])C2(C([H])([H])[H])C1([H])C([H])(O[H])C([H])([H])C1(C([H])([H])[H])OC3([H])C4([H])C5=C([H])C([H])([H])C([H])(C6([H])C([H])([H])OC(=O)C6([H])[H])C5(C([H])([H])[H])C([H])([H])C4([H])C(C([H])([H])[H])(C([H])([H])[H])C32C1([H])[H]

$$$$
73:0:1
     RDKit          3D

 85 91  0  0  1  0  0  0  0  0999 V2000
    3.2804   -5.9668    8.1645 C   0  0  0  0  0  0  0  0  0  0  0  0
    2.5284   -6.2497    6.8537 C   0  0  2  0  0  0  0  0  0  0  0  0
    2.0046   -7.6897    6.8729 C   0  0  0  0  0  0  0  0  0  0  0  0
    1.1162   -8.0960    5.6931 C   0  0  1  0  0  0  0  0  0  0  0  0
   -0.0936   -7.4405    5.7395 O   0  0  0  0  0  0  0  0  0  0  0  0
    1.8026   -8.0135    4.3001 C   0  0  1  0  0  0  0  0  0  0  0  0
    1.4922   -9.2639    3.3657 C   0  0  1  0  0  0  0  0  0  0  0  0
    1.7563  -10.6039    4.1132 C   0  0  0  0  0  0  0  0  0  0  0  0
    0.0651   -9.3284    2.7497 C   0  0  0  0  0  0  0  0  0  0  0  0
   -0.9811   -9.1051    3.6820 O   0  0  0  0  0  0  0  0  0  0  0  0
    2.5526   -9.2656    2.2373 C   0  0  0  0  0  0  0  0  0  0  0  0
    2.6618   -7.9401    1.5003 C   0  0  0  0  0  0  0  0  0  0  0  0
    2.9432   -6.7831    2.4667 C   0  0  0  0  0  0  0  0  0  0  0  0
    1.8839   -6.5560    3.5995 C   0  0  1  0  0  0  0  0  0  0  0  0
    0.5210   -6.1750    2.9467 C   0  0  0  0  0  0  0  0  0  0  0  0
    2.3784   -5.3446    4.5667 C   0  0  2  0  0  0  0  0  0  0  0  0
    3.3638   -5.8907    5.6285 C   0  0  0  0  0  0  0  0  0  0  0  0
    1.2826   -4.7374    5.5324 C   0  0  1  0  0  0  0  0  0  0  0  0
    1.4049   -5.3701    6.8006 O   0  0  0  0  0  0  0  0  0  0  0  0
    1.6199   -3.2594    5.8066 C   0  0  2  0  0  0  0  0  0  0  0  0
    0.7675   -2.0975    5.3812 C   0  0  0  0  0  0  0  0  0  0  0  0
   -0.4900   -1.9263    4.9349 C   0  0  0  0  0  0  0  0  0  0  0  0
   -0.6826   -0.5172    4.4392 C   0  0  0  0  0  0  0  0  0  0  0  0
    0.7750   -0.0027    4.2635 C   0  0  1  0  0  0  0  0  0  0  0  0
    0.9751    1.5425    4.2818 C   0  0  2  0  0  0  0  0  0  0  0  0
    0.2921    2.2629    5.4463 C   0  0  0  0  0  0  0  0  0  0  0  0
   -0.9262    2.7496    4.9245 O   0  0  0  0  0  0  0  0  0  0  0  0
   -0.9803    2.7150    3.5768 C   0  0  0  0  0  0  0  0  0  0  0  0
   -1.9432    2.9688    2.8775 O   0  0  0  0  0  0  0  0  0  0  0  0
    0.3620    2.2236    3.0504 C   0  0  0  0  0  0  0  0  0  0  0  0
    1.6118   -0.8603    5.2510 C   0  0  1  0  0  0  0  0  0  0  0  0
    1.8223   -0.2568    6.6415 C   0  0  0  0  0  0  0  0  0  0  0  0
    2.9378   -1.4498    4.7105 C   0  0  0  0  0  0  0  0  0  0  0  0
    2.9239   -2.9622    5.0573 C   0  0  2  0  0  0  0  0  0  0  0  0
    2.9793   -4.0120    3.8908 C   0  0  0  0  0  0  0  0  0  0  0  0
    4.4654   -4.0852    3.4335 C   0  0  0  0  0  0  0  0  0  0  0  0
    2.1511   -3.4852    2.6778 C   0  0  0  0  0  0  0  0  0  0  0  0
    4.1708   -6.5939    8.2525 H   0  0  0  0  0  0  0  0  0  0  0  0
    2.6547   -6.1745    9.0320 H   0  0  0  0  0  0  0  0  0  0  0  0
    3.5994   -4.9271    8.2328 H   0  0  0  0  0  0  0  0  0  0  0  0
    2.8444   -8.3846    6.9287 H   0  0  0  0  0  0  0  0  0  0  0  0
    1.4327   -7.8550    7.7854 H   0  0  0  0  0  0  0  0  0  0  0  0
    0.8542   -9.1273    5.9214 H   0  0  0  0  0  0  0  0  0  0  0  0
   -0.6871   -7.9421    5.1625 H   0  0  0  0  0  0  0  0  0  0  0  0
    2.8288   -8.2494    4.5554 H   0  0  0  0  0  0  0  0  0  0  0  0
    1.9177  -11.4248    3.4102 H   0  0  0  0  0  0  0  0  0  0  0  0
    0.9225  -10.9117    4.7477 H   0  0  0  0  0  0  0  0  0  0  0  0
    2.6481  -10.5449    4.7350 H   0  0  0  0  0  0  0  0  0  0  0  0
   -0.0550   -8.5949    1.9510 H   0  0  0  0  0  0  0  0  0  0  0  0
   -0.0810  -10.2958    2.2548 H   0  0  0  0  0  0  0  0  0  0  0  0
   -1.2011   -9.9149    4.1595 H   0  0  0  0  0  0  0  0  0  0  0  0
    3.5330   -9.4961    2.6507 H   0  0  0  0  0  0  0  0  0  0  0  0
    2.3458  -10.0608    1.5177 H   0  0  0  0  0  0  0  0  0  0  0  0
    3.4932   -8.0064    0.7978 H   0  0  0  0  0  0  0  0  0  0  0  0
    1.7773   -7.7659    0.8952 H   0  0  0  0  0  0  0  0  0  0  0  0
    3.9203   -6.9543    2.9159 H   0  0  0  0  0  0  0  0  0  0  0  0
    3.0612   -5.9202    1.8243 H   0  0  0  0  0  0  0  0  0  0  0  0
    0.2724   -5.1261    3.0594 H   0  0  0  0  0  0  0  0  0  0  0  0
   -0.3178   -6.6929    3.3974 H   0  0  0  0  0  0  0  0  0  0  0  0
    0.4857   -6.3663    1.8763 H   0  0  0  0  0  0  0  0  0  0  0  0
    4.0848   -5.1538    5.9464 H   0  0  0  0  0  0  0  0  0  0  0  0
    4.0008   -6.7078    5.2832 H   0  0  0  0  0  0  0  0  0  0  0  0
    0.2439   -4.8353    5.1893 H   0  0  0  0  0  0  0  0  0  0  0  0
    1.7923   -3.1238    6.8791 H   0  0  0  0  0  0  0  0  0  0  0  0
   -1.2677   -2.6738    4.9078 H   0  0  0  0  0  0  0  0  0  0  0  0
   -1.2380   -0.4519    3.5063 H   0  0  0  0  0  0  0  0  0  0  0  0
   -1.2424    0.0171    5.2016 H   0  0  0  0  0  0  0  0  0  0  0  0
    1.0708   -0.3338    3.2775 H   0  0  0  0  0  0  0  0  0  0  0  0
    2.0420    1.7477    4.2875 H   0  0  0  0  0  0  0  0  0  0  0  0
    0.1238    1.5792    6.3139 H   0  0  0  0  0  0  0  0  0  0  0  0
    0.8744    3.1091    5.8017 H   0  0  0  0  0  0  0  0  0  0  0  0
    0.9460    3.0880    2.7288 H   0  0  0  0  0  0  0  0  0  0  0  0
    0.2569    1.5546    2.1958 H   0  0  0  0  0  0  0  0  0  0  0  0
    2.4233    0.6492    6.5976 H   0  0  0  0  0  0  0  0  0  0  0  0
    2.3462   -0.9294    7.3175 H   0  0  0  0  0  0  0  0  0  0  0  0
    0.8516    0.0430    7.0738 H   0  0  0  0  0  0  0  0  0  0  0  0
    3.0752   -1.2428    3.6554 H   0  0  0  0  0  0  0  0  0  0  0  0
    3.7919   -0.9640    5.1877 H   0  0  0  0  0  0  0  0  0  0  0  0
    3.7491   -3.1277    5.7455 H   0  0  0  0  0  0  0  0  0  0  0  0
    4.8164   -3.0888    3.1627 H   0  0  0  0  0  0  0  0  0  0  0  0
    4.6324   -4.7018    2.5537 H   0  0  0  0  0  0  0  0  0  0  0  0
    5.1430   -4.4373    4.2085 H   0  0  0  0  0  0  0  0  0  0  0  0
    2.6454   -2.6652    2.1604 H   0  0  0  0  0  0  0  0  0  0  0  0
    1.1655   -3.1276    2.9674 H   0  0  0  0  0  0  0  0  0  0  0  0
    1.9832   -4.2112    1.8916 H   0  0  0  0  0  0  0  0  0  0  0  0
  2  1  1  1
  1 38  1  0
  1 39  1  0
  1 40  1  0
  2 17  1  0
  2 19  1  0
  2  3  1  0
  3  4  1  0
  3 41  1  0
  3 42  1  0
  4  5  1  0
  4  6  1  0
  4 43  1  1
  5 44  1  0
  6 14  1  0
  6  7  1  0
  6 45  1  1
  7  8  1  1
  7  9  1  0
  7 11  1  0
  8 46  1  0
  8 47  1  0
  8 48  1  0
  9 10  1  0
  9 49  1  0
  9 50  1  0
 10 51  1  0
 11 12  1  0
 11 52  1  0
 11 53  1  0
 12 13  1  0
 12 54  1  0
 12 55  1  0
 13 14  1  0
 13 56  1  0
 13 57  1  0
 14 15  1  6
 14 16  1  0
 15 58  1  0
 15 59  1  0
 15 60  1  0
 16 35  1  6
 16 17  1  0
 16 18  1  0
 17 61  1  0
 17 62  1  0
 18 19  1  0
 18 20  1  0
 18 63  1  6
 20 34  1  0
 20 21  1  0
 20 64  1  1
 21 31  1  0
 21 22  2  0
 22 23  1  0
 22 65  1  0
 23 24  1  0
 23 66  1  0
 23 67  1  0
 24 25  1  0
 24 31  1  0
 24 68  1  6
 25 30  1  0
 25 26  1  0
 25 69  1  1
 26 27  1  0
 26 70  1  0
 26 71  1  0
 27 28  1  0
 28 29  2  0
 28 30  1  0
 30 72  1  0
 30 73  1  0
 31 32  1  1
 31 33  1  0
 32 74  1  0
 32 75  1  0
 32 76  1  0
 33 34  1  0
 33 77  1  0
 33 78  1  0
 34 35  1  0
 34 79  1  1
 35 36  1  0
 35 37  1  0
 36 80  1  0
 36 81  1  0
 36 82  1  0
 37 83  1  0
 37 84  1  0
 37 85  1  0
M  END
>  <i_m_ct_stereo_status>  (204) 
1

>  <s_m_source_file>  (204) 
/var/tmp/pbs.5076255.sched01/tmp25xsusm8/82mdre8bl4.sdf

>  <i_m_source_file_index>  (204) 
20

>  <i_lp_mmshare_version>  (204) 
48012

>  <i_f3d_flags>  (204) 
0

>  <s_epik_input>  (204) 
W0NIMl0xW0NIMl1bQ0gyXVtDQF0oW0NIM10pKFtDSDJdW09IXSlbQ0BASF0oW0NAXTEoW0NAXTIzNClbQ0gzXSlbQ0BIXShbT0hdKVtDSDJdW0NAQF0oW0NIM10pKFtDSDJdMilPW0NASF0zW0NAQEhdNUM9NltDQEBdKFtDSDNdKShbQ0gyXVtDQEBIXTVDNChbQ0gzXSlbQ0gzXSlbQ0BASF0oW0NIMl1bQ0hdNilbQ0BASF03W0NIMl1PQyg9TylbQ0gyXTc=

>  <s_epik_cmdline>  (204) 
J2VwaWtfcHl0aG9uJywgJy1waHQnLCAnMi4wJywgJy1waCcsICc3LjAnLCAnLXRuJywgJzgnLCAnLW1hJywgJzIwMCcsICctaW1hZScsICc8aW5maWxlLm1hZT4nLCAnLW9tYWUnLCAnPG91dGZpbGUubWFlPic=

>  <r_lp_tautomer_probability>  (204) 
1

>  <r_epik_Ionization_Penalty>  (204) 
1.5975e-06

>  <r_epik_Ionization_Penalty_Charging>  (204) 
0

>  <r_epik_Ionization_Penalty_Neutral>  (204) 
1.5975e-06

>  <r_epik_State_Penalty>  (204) 
-0

>  <r_epik_Charging_Adjusted_Penalty>  (204) 
0

>  <i_epik_Tot_Q>  (204) 
0

>  <i_epik_Tot_abs_Q>  (204) 
0

>  <s_epik_Chemistry_Notes>  (204) 
This compound has an ester and may undergo hydrolysis at high or low pH.

>  <s_lp_Force_Field>  (204) 
OPLS3e

>  <r_lp_Energy>  (204) 
77.3724

>  <b_lp_Chiralities_Consistent>  (204) 
1

>  <s_lp_Variant>  (204) 
73:0-1

>  <s_i_glide_gridfile>  (204) 
pfpi4k_grid

>  <i_i_glide_lignum>  (204) 
20

>  <i_i_glide_rotatable_bonds>  (204) 
4

>  <r_i_docking_score>  (204) 
-2.338

>  <r_i_glide_ligand_efficiency>  (204) 
-0.0631891

>  <r_i_glide_ligand_efficiency_sa>  (204) 
-0.21056

>  <r_i_glide_ligand_efficiency_ln>  (204) 
-0.507057

>  <r_i_glide_gscore>  (204) 
-2.338

>  <r_i_glide_lipo>  (204) 
-0.00766842

>  <r_i_glide_hbond>  (204) 
0

>  <r_i_glide_metal>  (204) 
-0

>  <r_i_glide_rewards>  (204) 
-0.5

>  <r_i_glide_evdw>  (204) 
-22.3745

>  <r_i_glide_ecoul>  (204) 
-5.44529

>  <r_i_glide_erotb>  (204) 
0.155974

>  <r_i_glide_esite>  (204) 
-0.0507845

>  <r_i_glide_emodel>  (204) 
-32.0498

>  <r_i_glide_energy>  (204) 
-27.8198

>  <r_i_glide_einternal>  (204) 
6.82954

>  <r_i_glide_intrahb_reward>  (204) 
-0.5

>  <i_i_glide_confnum>  (204) 
5

>  <i_i_glide_posenum>  (204) 
3

>  <r_i_glide_eff_state_penalty>  (204) 
0

>  <ligand_id>  (204) 
73

>  <original_smiles>  (204) 
CC12CC(O)C3C(C)(CO)CCCC3(C)C3(C1)C(O2)C1C2=CCC(C4COC(=O)C4)C2(C)CC1C3(C)C

>  <smiles>  (204) 
[H]OC([H])([H])C1(C([H])([H])[H])C([H])([H])C([H])([H])C([H])([H])C2(C([H])([H])[H])C1([H])C([H])(O[H])C([H])([H])C1(C([H])([H])[H])OC3([H])C4([H])C5=C([H])C([H])([H])C([H])(C6([H])C([H])([H])OC(=O)C6([H])[H])C5(C([H])([H])[H])C([H])([H])C4([H])C(C([H])([H])[H])(C([H])([H])[H])C32C1([H])[H]

$$$$
73:0:2
     RDKit          3D

 85 91  0  0  1  0  0  0  0  0999 V2000
    5.5615   -5.8092    7.1490 C   0  0  0  0  0  0  0  0  0  0  0  0
    4.4093   -6.3077    6.2617 C   0  0  2  0  0  0  0  0  0  0  0  0
    3.9747   -7.7005    6.7239 C   0  0  0  0  0  0  0  0  0  0  0  0
    2.7449   -8.3018    6.0254 C   0  0  1  0  0  0  0  0  0  0  0  0
    1.5420   -7.6863    6.4079 O   0  0  0  0  0  0  0  0  0  0  0  0
    2.9185   -8.4943    4.4931 C   0  0  1  0  0  0  0  0  0  0  0  0
    2.3872   -9.8953    3.9559 C   0  0  1  0  0  0  0  0  0  0  0  0
    2.9605  -11.0820    4.7864 C   0  0  0  0  0  0  0  0  0  0  0  0
    0.8480  -10.0706    3.8941 C   0  0  0  0  0  0  0  0  0  0  0  0
    0.2353   -9.8741    5.1558 O   0  0  0  0  0  0  0  0  0  0  0  0
    2.9945  -10.1248    2.5518 C   0  0  0  0  0  0  0  0  0  0  0  0
    2.7653   -8.9695    1.5968 C   0  0  0  0  0  0  0  0  0  0  0  0
    3.3101   -7.6574    2.1771 C   0  0  0  0  0  0  0  0  0  0  0  0
    2.7009   -7.1987    3.5489 C   0  0  1  0  0  0  0  0  0  0  0  0
    1.1819   -6.9132    3.3620 C   0  0  0  0  0  0  0  0  0  0  0  0
    3.4383   -5.8424    4.0482 C   0  0  2  0  0  0  0  0  0  0  0  0
    4.7542   -6.2034    4.7800 C   0  0  0  0  0  0  0  0  0  0  0  0
    2.7181   -5.0464    5.2086 C   0  0  1  0  0  0  0  0  0  0  0  0
    3.2953   -5.4361    6.4456 O   0  0  0  0  0  0  0  0  0  0  0  0
    3.0779   -3.5569    5.0812 C   0  0  2  0  0  0  0  0  0  0  0  0
    2.0790   -2.4816    4.7756 C   0  0  0  0  0  0  0  0  0  0  0  0
    0.7215   -2.3948    4.7686 C   0  0  0  0  0  0  0  0  0  0  0  0
    0.3071   -1.0937    4.1333 C   0  0  0  0  0  0  0  0  0  0  0  0
    1.5859   -0.6267    3.3741 C   0  0  1  0  0  0  0  0  0  0  0  0
    1.7035    0.9019    3.0416 C   0  0  2  0  0  0  0  0  0  0  0  0
    1.4232    1.8503    4.2138 C   0  0  0  0  0  0  0  0  0  0  0  0
    0.0862    2.2717    4.0341 O   0  0  0  0  0  0  0  0  0  0  0  0
   -0.4233    1.9553    2.8255 C   0  0  0  0  0  0  0  0  0  0  0  0
   -1.5927    2.0583    2.4741 O   0  0  0  0  0  0  0  0  0  0  0  0
    0.6842    1.3505    1.9766 C   0  0  0  0  0  0  0  0  0  0  0  0
    2.7545   -1.3062    4.1410 C   0  0  1  0  0  0  0  0  0  0  0  0
    3.4118   -0.4650    5.2404 C   0  0  0  0  0  0  0  0  0  0  0  0
    3.8377   -2.0049    3.2826 C   0  0  0  0  0  0  0  0  0  0  0  0
    4.0242   -3.4262    3.8793 C   0  0  2  0  0  0  0  0  0  0  0  0
    3.7123   -4.6729    2.9779 C   0  0  0  0  0  0  0  0  0  0  0  0
    4.9474   -4.8619    2.0502 C   0  0  0  0  0  0  0  0  0  0  0  0
    2.4915   -4.3637    2.0571 C   0  0  0  0  0  0  0  0  0  0  0  0
    6.4555   -6.4264    7.0306 H   0  0  0  0  0  0  0  0  0  0  0  0
    5.2909   -5.8397    8.2037 H   0  0  0  0  0  0  0  0  0  0  0  0
    5.8401   -4.7817    6.9144 H   0  0  0  0  0  0  0  0  0  0  0  0
    4.8094   -8.3939    6.5984 H   0  0  0  0  0  0  0  0  0  0  0  0
    3.7822   -7.6876    7.7955 H   0  0  0  0  0  0  0  0  0  0  0  0
    2.6526   -9.2673    6.5072 H   0  0  0  0  0  0  0  0  0  0  0  0
    0.8497   -8.2677    6.0927 H   0  0  0  0  0  0  0  0  0  0  0  0
    3.9794   -8.6992    4.4302 H   0  0  0  0  0  0  0  0  0  0  0  0
    2.8947  -12.0219    4.2311 H   0  0  0  0  0  0  0  0  0  0  0  0
    2.4122  -11.2543    5.7159 H   0  0  0  0  0  0  0  0  0  0  0  0
    4.0076  -10.9314    5.0385 H   0  0  0  0  0  0  0  0  0  0  0  0
    0.3668   -9.4173    3.1679 H   0  0  0  0  0  0  0  0  0  0  0  0
    0.6235  -11.0885    3.5484 H   0  0  0  0  0  0  0  0  0  0  0  0
   -0.6511  -10.2493    5.1445 H   0  0  0  0  0  0  0  0  0  0  0  0
    4.0656  -10.2953    2.6290 H   0  0  0  0  0  0  0  0  0  0  0  0
    2.5930  -11.0380    2.1106 H   0  0  0  0  0  0  0  0  0  0  0  0
    3.2947   -9.1946    0.6677 H   0  0  0  0  0  0  0  0  0  0  0  0
    1.7163   -8.8990    1.3242 H   0  0  0  0  0  0  0  0  0  0  0  0
    4.3884   -7.7656    2.2800 H   0  0  0  0  0  0  0  0  0  0  0  0
    3.1589   -6.9338    1.3871 H   0  0  0  0  0  0  0  0  0  0  0  0
    0.9265   -5.8579    3.3641 H   0  0  0  0  0  0  0  0  0  0  0  0
    0.5825   -7.3360    4.1636 H   0  0  0  0  0  0  0  0  0  0  0  0
    0.7904   -7.2972    2.4223 H   0  0  0  0  0  0  0  0  0  0  0  0
    5.5074   -5.4359    4.6880 H   0  0  0  0  0  0  0  0  0  0  0  0
    5.2703   -7.0833    4.3882 H   0  0  0  0  0  0  0  0  0  0  0  0
    1.6270   -5.1771    5.2751 H   0  0  0  0  0  0  0  0  0  0  0  0
    3.6065   -3.2264    5.9834 H   0  0  0  0  0  0  0  0  0  0  0  0
    0.0310   -3.1258    5.1478 H   0  0  0  0  0  0  0  0  0  0  0  0
   -0.5458   -1.1892    3.4668 H   0  0  0  0  0  0  0  0  0  0  0  0
    0.0201   -0.4355    4.9493 H   0  0  0  0  0  0  0  0  0  0  0  0
    1.5425   -1.1414    2.4211 H   0  0  0  0  0  0  0  0  0  0  0  0
    2.6947    1.0852    2.6342 H   0  0  0  0  0  0  0  0  0  0  0  0
    1.5869    1.3491    5.1944 H   0  0  0  0  0  0  0  0  0  0  0  0
    2.0462    2.7395    4.1635 H   0  0  0  0  0  0  0  0  0  0  0  0
    1.0874    2.1339    1.3288 H   0  0  0  0  0  0  0  0  0  0  0  0
    0.3308    0.5383    1.3372 H   0  0  0  0  0  0  0  0  0  0  0  0
    3.8994    0.4139    4.8250 H   0  0  0  0  0  0  0  0  0  0  0  0
    4.1950   -1.0147    5.7678 H   0  0  0  0  0  0  0  0  0  0  0  0
    2.6365   -0.0784    5.9272 H   0  0  0  0  0  0  0  0  0  0  0  0
    3.5911   -1.9988    2.2237 H   0  0  0  0  0  0  0  0  0  0  0  0
    4.7796   -1.4513    3.3326 H   0  0  0  0  0  0  0  0  0  0  0  0
    5.0450   -3.4758    4.2459 H   0  0  0  0  0  0  0  0  0  0  0  0
    5.1332   -3.9397    1.4991 H   0  0  0  0  0  0  0  0  0  0  0  0
    4.8271   -5.6342    1.2943 H   0  0  0  0  0  0  0  0  0  0  0  0
    5.8675   -5.0754    2.5902 H   0  0  0  0  0  0  0  0  0  0  0  0
    2.7368   -3.6646    1.2606 H   0  0  0  0  0  0  0  0  0  0  0  0
    1.6539   -3.9398    2.6057 H   0  0  0  0  0  0  0  0  0  0  0  0
    2.0952   -5.2204    1.5245 H   0  0  0  0  0  0  0  0  0  0  0  0
  2  1  1  1
  1 38  1  0
  1 39  1  0
  1 40  1  0
  2 17  1  0
  2 19  1  0
  2  3  1  0
  3  4  1  0
  3 41  1  0
  3 42  1  0
  4  5  1  0
  4  6  1  0
  4 43  1  1
  5 44  1  0
  6 14  1  0
  6  7  1  0
  6 45  1  1
  7  8  1  1
  7  9  1  0
  7 11  1  0
  8 46  1  0
  8 47  1  0
  8 48  1  0
  9 10  1  0
  9 49  1  0
  9 50  1  0
 10 51  1  0
 11 12  1  0
 11 52  1  0
 11 53  1  0
 12 13  1  0
 12 54  1  0
 12 55  1  0
 13 14  1  0
 13 56  1  0
 13 57  1  0
 14 15  1  6
 14 16  1  0
 15 58  1  0
 15 59  1  0
 15 60  1  0
 16 35  1  6
 16 17  1  0
 16 18  1  0
 17 61  1  0
 17 62  1  0
 18 19  1  0
 18 20  1  0
 18 63  1  1
 20 34  1  0
 20 21  1  0
 20 64  1  1
 21 31  1  0
 21 22  2  0
 22 23  1  0
 22 65  1  0
 23 24  1  0
 23 66  1  0
 23 67  1  0
 24 25  1  0
 24 31  1  0
 24 68  1  6
 25 30  1  0
 25 26  1  0
 25 69  1  6
 26 27  1  0
 26 70  1  0
 26 71  1  0
 27 28  1  0
 28 29  2  0
 28 30  1  0
 30 72  1  0
 30 73  1  0
 31 32  1  1
 31 33  1  0
 32 74  1  0
 32 75  1  0
 32 76  1  0
 33 34  1  0
 33 77  1  0
 33 78  1  0
 34 35  1  0
 34 79  1  1
 35 36  1  0
 35 37  1  0
 36 80  1  0
 36 81  1  0
 36 82  1  0
 37 83  1  0
 37 84  1  0
 37 85  1  0
M  END
>  <i_m_ct_stereo_status>  (205) 
1

>  <s_m_source_file>  (205) 
/var/tmp/pbs.5076255.sched01/tmp25xsusm8/82mdre8bl4.sdf

>  <i_m_source_file_index>  (205) 
20

>  <i_lp_mmshare_version>  (205) 
48012

>  <i_f3d_flags>  (205) 
0

>  <s_epik_input>  (205) 
W0NIMl0xW0NIMl1bQ0gyXVtDQF0oW0NIM10pKFtDSDJdW09IXSlbQ0BASF0oW0NAXTEoW0NAXTIzNClbQ0gzXSlbQ0BIXShbT0hdKVtDSDJdW0NAQF0oW0NIM10pKFtDSDJdMilPW0NASF0zW0NAQEhdNUM9NltDQEBdKFtDSDNdKShbQ0gyXVtDQEBIXTVDNChbQ0gzXSlbQ0gzXSlbQ0BASF0oW0NIMl1bQ0hdNilbQ0BASF03W0NIMl1PQyg9TylbQ0gyXTc=

>  <s_epik_cmdline>  (205) 
J2VwaWtfcHl0aG9uJywgJy1waHQnLCAnMi4wJywgJy1waCcsICc3LjAnLCAnLXRuJywgJzgnLCAnLW1hJywgJzIwMCcsICctaW1hZScsICc8aW5maWxlLm1hZT4nLCAnLW9tYWUnLCAnPG91dGZpbGUubWFlPic=

>  <r_lp_tautomer_probability>  (205) 
1

>  <r_epik_Ionization_Penalty>  (205) 
1.5975e-06

>  <r_epik_Ionization_Penalty_Charging>  (205) 
0

>  <r_epik_Ionization_Penalty_Neutral>  (205) 
1.5975e-06

>  <r_epik_State_Penalty>  (205) 
-0

>  <r_epik_Charging_Adjusted_Penalty>  (205) 
0

>  <i_epik_Tot_Q>  (205) 
0

>  <i_epik_Tot_abs_Q>  (205) 
0

>  <s_epik_Chemistry_Notes>  (205) 
This compound has an ester and may undergo hydrolysis at high or low pH.

>  <s_lp_Force_Field>  (205) 
OPLS3e

>  <r_lp_Energy>  (205) 
77.3724

>  <b_lp_Chiralities_Consistent>  (205) 
1

>  <s_lp_Variant>  (205) 
73:0-1

>  <s_i_glide_gridfile>  (205) 
pfpi4k_grid

>  <i_i_glide_lignum>  (205) 
20

>  <i_i_glide_rotatable_bonds>  (205) 
4

>  <r_i_docking_score>  (205) 
-2.19245

>  <r_i_glide_ligand_efficiency>  (205) 
-0.0592555

>  <r_i_glide_ligand_efficiency_sa>  (205) 
-0.197453

>  <r_i_glide_ligand_efficiency_ln>  (205) 
-0.475492

>  <r_i_glide_gscore>  (205) 
-2.19245

>  <r_i_glide_lipo>  (205) 
-0.0371504

>  <r_i_glide_hbond>  (205) 
0

>  <r_i_glide_metal>  (205) 
-0

>  <r_i_glide_rewards>  (205) 
-0.5

>  <r_i_glide_evdw>  (205) 
-21.4876

>  <r_i_glide_ecoul>  (205) 
-4.46378

>  <r_i_glide_erotb>  (205) 
0.155974

>  <r_i_glide_esite>  (205) 
-0.0673321

>  <r_i_glide_emodel>  (205) 
-31.0813

>  <r_i_glide_energy>  (205) 
-25.9514

>  <r_i_glide_einternal>  (205) 
5.82819

>  <r_i_glide_intrahb_reward>  (205) 
-0.5

>  <i_i_glide_confnum>  (205) 
5

>  <i_i_glide_posenum>  (205) 
11

>  <r_i_glide_eff_state_penalty>  (205) 
0

>  <ligand_id>  (205) 
73

>  <original_smiles>  (205) 
CC12CC(O)C3C(C)(CO)CCCC3(C)C3(C1)C(O2)C1C2=CCC(C4COC(=O)C4)C2(C)CC1C3(C)C

>  <smiles>  (205) 
[H]OC([H])([H])C1(C([H])([H])[H])C([H])([H])C([H])([H])C([H])([H])C2(C([H])([H])[H])C1([H])C([H])(O[H])C([H])([H])C1(C([H])([H])[H])OC3([H])C4([H])C5=C([H])C([H])([H])C([H])(C6([H])C([H])([H])OC(=O)C6([H])[H])C5(C([H])([H])[H])C([H])([H])C4([H])C(C([H])([H])[H])(C([H])([H])[H])C32C1([H])[H]

$$$$
74:0:0
     RDKit          3D

 36 42  0  0  1  0  0  0  0  0999 V2000
    2.8665   -6.1346    1.9547 C   0  0  0  0  0  0  0  0  0  0  0  0
    3.6432   -5.0565    1.4680 O   0  0  0  0  0  0  0  0  0  0  0  0
    3.6229   -4.9486    0.0515 C   0  0  0  0  0  0  0  0  0  0  0  0
    4.5473   -3.7800   -0.4159 C   0  0  1  0  0  0  0  0  0  0  0  0
    4.3162   -3.4575   -1.9058 C   0  0  0  0  0  0  0  0  0  0  0  0
    3.2161   -2.7006   -1.8991 C   0  0  0  0  0  0  0  0  0  0  0  0
    3.7185   -1.5617   -1.0613 C   0  0  2  0  0  0  0  0  0  0  0  0
    4.9361   -1.3336   -1.9306 C   0  0  0  0  0  0  0  0  0  0  0  0
    5.2662   -2.5152   -2.4484 C   0  0  0  0  0  0  0  0  0  0  0  0
    4.0661   -2.4040    0.2066 C   0  0  2  0  0  0  0  0  0  0  0  0
    4.9605   -1.7585    1.2661 C   0  0  2  0  0  0  0  0  0  0  0  0
    6.4417   -1.4704    1.2686 C   0  0  2  0  0  0  0  0  0  0  0  0
    7.4837   -2.0413    0.3305 C   0  0  1  0  0  0  0  0  0  0  0  0
    7.7334   -3.3817    0.8948 C   0  0  2  0  0  0  0  0  0  0  0  0
    7.1615   -3.2951   -0.4660 C   0  0  1  0  0  0  0  0  0  0  0  0
    6.0013   -4.1849   -0.0320 C   0  0  1  0  0  0  0  0  0  0  0  0
    6.4597   -3.9342    1.4226 C   0  0  2  0  0  0  0  0  0  0  0  0
    5.8645   -2.6690    2.0375 C   0  0  2  0  0  0  0  0  0  0  0  0
    2.9187   -6.1536    3.0430 H   0  0  0  0  0  0  0  0  0  0  0  0
    3.2376   -7.0909    1.5832 H   0  0  0  0  0  0  0  0  0  0  0  0
    1.8183   -6.0306    1.6705 H   0  0  0  0  0  0  0  0  0  0  0  0
    3.9715   -5.8814   -0.3906 H   0  0  0  0  0  0  0  0  0  0  0  0
    2.5875   -4.8077   -0.2638 H   0  0  0  0  0  0  0  0  0  0  0  0
    2.2884   -3.0608   -1.5035 H   0  0  0  0  0  0  0  0  0  0  0  0
    3.0228   -0.7310   -0.9547 H   0  0  0  0  0  0  0  0  0  0  0  0
    5.3984   -0.3595   -2.0883 H   0  0  0  0  0  0  0  0  0  0  0  0
    6.0585   -2.7306   -3.1538 H   0  0  0  0  0  0  0  0  0  0  0  0
    3.1153   -2.5985    0.7112 H   0  0  0  0  0  0  0  0  0  0  0  0
    4.4094   -1.0044    1.8267 H   0  0  0  0  0  0  0  0  0  0  0  0
    6.7789   -0.6593    1.9058 H   0  0  0  0  0  0  0  0  0  0  0  0
    8.3622   -1.4539    0.0681 H   0  0  0  0  0  0  0  0  0  0  0  0
    8.6994   -3.8605    1.0419 H   0  0  0  0  0  0  0  0  0  0  0  0
    7.7943   -3.6180   -1.3013 H   0  0  0  0  0  0  0  0  0  0  0  0
    6.2205   -5.2176   -0.2984 H   0  0  0  0  0  0  0  0  0  0  0  0
    6.5487   -4.8251    2.0412 H   0  0  0  0  0  0  0  0  0  0  0  0
    5.8203   -2.6178    3.1279 H   0  0  0  0  0  0  0  0  0  0  0  0
  1  2  1  0
  1 19  1  0
  1 20  1  0
  1 21  1  0
  2  3  1  0
  4  3  1  1
  3 22  1  0
  3 23  1  0
  4 10  1  0
  4 16  1  0
  4  5  1  0
  5  9  1  0
  5  6  2  0
  6  7  1  0
  6 24  1  0
  7  8  1  0
  7 10  1  0
  7 25  1  1
  8  9  2  0
  8 26  1  0
  9 27  1  0
 10 11  1  0
 10 28  1  1
 11 18  1  0
 11 12  1  0
 11 29  1  1
 12 18  1  0
 12 13  1  0
 12 30  1  1
 13 15  1  0
 13 14  1  0
 13 31  1  6
 14 17  1  0
 14 15  1  0
 14 32  1  6
 15 16  1  0
 15 33  1  6
 16 17  1  0
 16 34  1  6
 17 18  1  0
 17 35  1  1
 18 36  1  1
M  END
>  <i_m_ct_stereo_status>  (206) 
1

>  <s_m_source_file>  (206) 
/var/tmp/pbs.5076255.sched01/tmp25xsusm8/82mdre8bl4.sdf

>  <i_m_source_file_index>  (206) 
21

>  <i_lp_mmshare_version>  (206) 
48012

>  <i_f3d_flags>  (206) 
1

>  <s_epik_input>  (206) 
W0NIM11PW0NIMl1bQ0BAXTEyQzM9W0NIXVtDQEhdKFtDSF09W0NIXTMpW0NAQEhdMVtDQEBIXTRbQ0BASF01W0NASF02W0NAQEhdN1tDQEhdNltDQEhdMltDQEBIXTdbQ0BIXTQ1

>  <s_epik_cmdline>  (206) 
J2VwaWtfcHl0aG9uJywgJy1waHQnLCAnMi4wJywgJy1waCcsICc3LjAnLCAnLXRuJywgJzgnLCAnLW1hJywgJzIwMCcsICctaW1hZScsICc8aW5maWxlLm1hZT4nLCAnLW9tYWUnLCAnPG91dGZpbGUubWFlPic=

>  <r_lp_tautomer_probability>  (206) 
1

>  <r_epik_Ionization_Penalty>  (206) 
1.90283e-11

>  <r_epik_Ionization_Penalty_Charging>  (206) 
0

>  <r_epik_Ionization_Penalty_Neutral>  (206) 
1.90283e-11

>  <r_epik_State_Penalty>  (206) 
-0

>  <r_epik_Charging_Adjusted_Penalty>  (206) 
0

>  <i_epik_Tot_Q>  (206) 
0

>  <i_epik_Tot_abs_Q>  (206) 
0

>  <s_lp_Force_Field>  (206) 
OPLS3e

>  <r_lp_Energy>  (206) 
126.042

>  <b_lp_Chiralities_Consistent>  (206) 
1

>  <s_lp_Variant>  (206) 
74:0-1

>  <s_i_glide_gridfile>  (206) 
pfpi4k_grid

>  <i_i_glide_lignum>  (206) 
21

>  <i_i_glide_rotatable_bonds>  (206) 
2

>  <r_i_docking_score>  (206) 
-3.61518

>  <r_i_glide_ligand_efficiency>  (206) 
-0.200843

>  <r_i_glide_ligand_efficiency_sa>  (206) 
-0.526358

>  <r_i_glide_ligand_efficiency_ln>  (206) 
-0.929262

>  <r_i_glide_gscore>  (206) 
-3.61518

>  <r_i_glide_lipo>  (206) 
-0.804772

>  <r_i_glide_hbond>  (206) 
0

>  <r_i_glide_metal>  (206) 
-0

>  <r_i_glide_rewards>  (206) 
-1.78415

>  <r_i_glide_evdw>  (206) 
-18.0205

>  <r_i_glide_ecoul>  (206) 
-0.83485

>  <r_i_glide_erotb>  (206) 
0

>  <r_i_glide_esite>  (206) 
0

>  <r_i_glide_emodel>  (206) 
-22.804

>  <r_i_glide_energy>  (206) 
-18.8553

>  <r_i_glide_einternal>  (206) 
0.127032

>  <r_i_glide_intrahb_reward>  (206) 
-0

>  <i_i_glide_confnum>  (206) 
1

>  <i_i_glide_posenum>  (206) 
1

>  <r_i_glide_eff_state_penalty>  (206) 
0

>  <ligand_id>  (206) 
74

>  <original_smiles>  (206) 
COCC12C3=CC(C=C3)C1C1C3C4C5C4C2C5C31

>  <smiles>  (206) 
[H]C1=C([H])C2([H])C([H])=C1C1(C([H])([H])OC([H])([H])[H])C2([H])C2([H])C3([H])C4([H])C5([H])C4([H])C1([H])C5([H])C32[H]

$$$$
74:0:1
     RDKit          3D

 36 42  0  0  1  0  0  0  0  0999 V2000
    2.3142   -5.2309    1.7284 C   0  0  0  0  0  0  0  0  0  0  0  0
    2.8141   -4.1473    0.9616 O   0  0  0  0  0  0  0  0  0  0  0  0
    2.5911   -4.2775   -0.4445 C   0  0  0  0  0  0  0  0  0  0  0  0
    3.6401   -3.4595   -1.2574 C   0  0  1  0  0  0  0  0  0  0  0  0
    3.2834   -3.4528   -2.7619 C   0  0  0  0  0  0  0  0  0  0  0  0
    2.3397   -2.5349   -2.8831 C   0  0  0  0  0  0  0  0  0  0  0  0
    3.1052   -1.3365   -2.3714 C   0  0  2  0  0  0  0  0  0  0  0  0
    4.2116   -1.5483   -3.3682 C   0  0  0  0  0  0  0  0  0  0  0  0
    4.2920   -2.8589   -3.6041 C   0  0  0  0  0  0  0  0  0  0  0  0
    3.4786   -1.9224   -0.9766 C   0  0  2  0  0  0  0  0  0  0  0  0
    4.5816   -1.2253   -0.1833 C   0  0  2  0  0  0  0  0  0  0  0  0
    6.0869   -1.2290   -0.3523 C   0  0  2  0  0  0  0  0  0  0  0  0
    6.8913   -2.1958   -1.1814 C   0  0  1  0  0  0  0  0  0  0  0  0
    6.9771   -3.3858   -0.3228 C   0  0  2  0  0  0  0  0  0  0  0  0
    6.2364   -3.4910   -1.6117 C   0  0  1  0  0  0  0  0  0  0  0  0
    5.0256   -4.0336   -0.8751 C   0  0  1  0  0  0  0  0  0  0  0  0
    5.6912   -3.5550    0.4232 C   0  0  2  0  0  0  0  0  0  0  0  0
    5.4061   -2.0843    0.7371 C   0  0  2  0  0  0  0  0  0  0  0  0
    2.5122   -5.0458    2.7816 H   0  0  0  0  0  0  0  0  0  0  0  0
    2.8089   -6.1615    1.4612 H   0  0  0  0  0  0  0  0  0  0  0  0
    1.2416   -5.3670    1.6134 H   0  0  0  0  0  0  0  0  0  0  0  0
    2.6591   -5.3280   -0.7119 H   0  0  0  0  0  0  0  0  0  0  0  0
    1.5595   -3.9770   -0.6575 H   0  0  0  0  0  0  0  0  0  0  0  0
    1.4180   -2.6410   -2.3174 H   0  0  0  0  0  0  0  0  0  0  0  0
    2.5765   -0.3874   -2.4330 H   0  0  0  0  0  0  0  0  0  0  0  0
    4.8020   -0.7561   -3.8047 H   0  0  0  0  0  0  0  0  0  0  0  0
    4.9403   -3.3862   -4.2989 H   0  0  0  0  0  0  0  0  0  0  0  0
    2.6206   -1.8159   -0.3365 H   0  0  0  0  0  0  0  0  0  0  0  0
    4.2582   -0.2634    0.2023 H   0  0  0  0  0  0  0  0  0  0  0  0
    6.6451   -0.3942    0.0721 H   0  0  0  0  0  0  0  0  0  0  0  0
    7.8009   -1.9008   -1.6995 H   0  0  0  0  0  0  0  0  0  0  0  0
    7.8713   -3.9798   -0.1304 H   0  0  0  0  0  0  0  0  0  0  0  0
    6.6386   -3.9748   -2.4895 H   0  0  0  0  0  0  0  0  0  0  0  0
    5.0375   -5.1220   -0.9215 H   0  0  0  0  0  0  0  0  0  0  0  0
    5.6910   -4.2756    1.2440 H   0  0  0  0  0  0  0  0  0  0  0  0
    5.4921   -1.7774    1.7821 H   0  0  0  0  0  0  0  0  0  0  0  0
  1  2  1  0
  1 19  1  0
  1 20  1  0
  1 21  1  0
  2  3  1  0
  4  3  1  1
  3 22  1  0
  3 23  1  0
  4 10  1  0
  4 16  1  0
  4  5  1  0
  5  9  1  0
  5  6  2  0
  6  7  1  0
  6 24  1  0
  7  8  1  0
  7 10  1  0
  7 25  1  1
  8  9  2  0
  8 26  1  0
  9 27  1  0
 10 11  1  0
 10 28  1  1
 11 18  1  0
 11 12  1  0
 11 29  1  1
 12 18  1  0
 12 13  1  0
 12 30  1  1
 13 15  1  0
 13 14  1  0
 13 31  1  6
 14 17  1  0
 14 15  1  0
 14 32  1  1
 15 16  1  0
 15 33  1  6
 16 17  1  0
 16 34  1  1
 17 18  1  0
 17 35  1  1
 18 36  1  1
M  END
>  <i_m_ct_stereo_status>  (207) 
1

>  <s_m_source_file>  (207) 
/var/tmp/pbs.5076255.sched01/tmp25xsusm8/82mdre8bl4.sdf

>  <i_m_source_file_index>  (207) 
21

>  <i_lp_mmshare_version>  (207) 
48012

>  <i_f3d_flags>  (207) 
1

>  <s_epik_input>  (207) 
W0NIM11PW0NIMl1bQ0BAXTEyQzM9W0NIXVtDQEhdKFtDSF09W0NIXTMpW0NAQEhdMVtDQEBIXTRbQ0BASF01W0NASF02W0NAQEhdN1tDQEhdNltDQEhdMltDQEBIXTdbQ0BIXTQ1

>  <s_epik_cmdline>  (207) 
J2VwaWtfcHl0aG9uJywgJy1waHQnLCAnMi4wJywgJy1waCcsICc3LjAnLCAnLXRuJywgJzgnLCAnLW1hJywgJzIwMCcsICctaW1hZScsICc8aW5maWxlLm1hZT4nLCAnLW9tYWUnLCAnPG91dGZpbGUubWFlPic=

>  <r_lp_tautomer_probability>  (207) 
1

>  <r_epik_Ionization_Penalty>  (207) 
1.90283e-11

>  <r_epik_Ionization_Penalty_Charging>  (207) 
0

>  <r_epik_Ionization_Penalty_Neutral>  (207) 
1.90283e-11

>  <r_epik_State_Penalty>  (207) 
-0

>  <r_epik_Charging_Adjusted_Penalty>  (207) 
0

>  <i_epik_Tot_Q>  (207) 
0

>  <i_epik_Tot_abs_Q>  (207) 
0

>  <s_lp_Force_Field>  (207) 
OPLS3e

>  <r_lp_Energy>  (207) 
126.042

>  <b_lp_Chiralities_Consistent>  (207) 
1

>  <s_lp_Variant>  (207) 
74:0-1

>  <s_i_glide_gridfile>  (207) 
pfpi4k_grid

>  <i_i_glide_lignum>  (207) 
21

>  <i_i_glide_rotatable_bonds>  (207) 
2

>  <r_i_docking_score>  (207) 
-3.29879

>  <r_i_glide_ligand_efficiency>  (207) 
-0.183266

>  <r_i_glide_ligand_efficiency_sa>  (207) 
-0.480294

>  <r_i_glide_ligand_efficiency_ln>  (207) 
-0.847938

>  <r_i_glide_gscore>  (207) 
-3.29879

>  <r_i_glide_lipo>  (207) 
-0.785313

>  <r_i_glide_hbond>  (207) 
0

>  <r_i_glide_metal>  (207) 
-0

>  <r_i_glide_rewards>  (207) 
-1.78415

>  <r_i_glide_evdw>  (207) 
-15.7898

>  <r_i_glide_ecoul>  (207) 
0.401062

>  <r_i_glide_erotb>  (207) 
0

>  <r_i_glide_esite>  (207) 
0

>  <r_i_glide_emodel>  (207) 
-18.0775

>  <r_i_glide_energy>  (207) 
-15.3887

>  <r_i_glide_einternal>  (207) 
1.13279

>  <r_i_glide_intrahb_reward>  (207) 
-0

>  <i_i_glide_confnum>  (207) 
2

>  <i_i_glide_posenum>  (207) 
30

>  <r_i_glide_eff_state_penalty>  (207) 
0

>  <ligand_id>  (207) 
74

>  <original_smiles>  (207) 
COCC12C3=CC(C=C3)C1C1C3C4C5C4C2C5C31

>  <smiles>  (207) 
[H]C1=C([H])C2([H])C([H])=C1C1(C([H])([H])OC([H])([H])[H])C2([H])C2([H])C3([H])C4([H])C5([H])C4([H])C1([H])C5([H])C32[H]

$$$$
74:0:2
     RDKit          3D

 36 42  0  0  1  0  0  0  0  0999 V2000
    2.1593   -6.2666    0.9851 C   0  0  0  0  0  0  0  0  0  0  0  0
    3.0456   -5.5068    0.1859 O   0  0  0  0  0  0  0  0  0  0  0  0
    2.8186   -4.1117    0.2754 C   0  0  0  0  0  0  0  0  0  0  0  0
    3.9044   -3.3091   -0.4990 C   0  0  1  0  0  0  0  0  0  0  0  0
    3.7615   -3.4645   -2.0171 C   0  0  0  0  0  0  0  0  0  0  0  0
    2.7564   -2.6380   -2.3352 C   0  0  0  0  0  0  0  0  0  0  0  0
    3.3823   -1.3515   -1.9080 C   0  0  2  0  0  0  0  0  0  0  0  0
    4.6402   -1.5704   -2.7137 C   0  0  0  0  0  0  0  0  0  0  0  0
    4.8267   -2.8759   -2.7952 C   0  0  0  0  0  0  0  0  0  0  0  0
    3.5894   -1.7495   -0.4005 C   0  0  2  0  0  0  0  0  0  0  0  0
    4.5533   -0.8976    0.4208 C   0  0  2  0  0  0  0  0  0  0  0  0
    6.0679   -0.8215    0.4062 C   0  0  2  0  0  0  0  0  0  0  0  0
    7.0448   -1.8123   -0.1874 C   0  0  1  0  0  0  0  0  0  0  0  0
    7.0812   -2.8949    0.8201 C   0  0  2  0  0  0  0  0  0  0  0  0
    6.5557   -3.2077   -0.5294 C   0  0  1  0  0  0  0  0  0  0  0  0
    5.2794   -3.7265    0.1051 C   0  0  1  0  0  0  0  0  0  0  0  0
    5.7340   -3.0478    1.4150 C   0  0  2  0  0  0  0  0  0  0  0  0
    5.3129   -1.5812    1.5189 C   0  0  2  0  0  0  0  0  0  0  0  0
    2.3981   -7.3205    0.8791 H   0  0  0  0  0  0  0  0  0  0  0  0
    1.1216   -6.1304    0.6783 H   0  0  0  0  0  0  0  0  0  0  0  0
    2.2479   -6.0160    2.0427 H   0  0  0  0  0  0  0  0  0  0  0  0
    1.8142   -3.8751   -0.0908 H   0  0  0  0  0  0  0  0  0  0  0  0
    2.8633   -3.7950    1.3192 H   0  0  0  0  0  0  0  0  0  0  0  0
    1.7842   -2.7138   -1.8976 H   0  0  0  0  0  0  0  0  0  0  0  0
    2.7879   -0.4872   -2.1982 H   0  0  0  0  0  0  0  0  0  0  0  0
    5.2243   -0.7416   -3.1048 H   0  0  0  0  0  0  0  0  0  0  0  0
    5.6014   -3.4342   -3.3231 H   0  0  0  0  0  0  0  0  0  0  0  0
    2.6149   -1.6429    0.0976 H   0  0  0  0  0  0  0  0  0  0  0  0
    4.1244    0.0676    0.6739 H   0  0  0  0  0  0  0  0  0  0  0  0
    6.4864    0.1380    0.6978 H   0  0  0  0  0  0  0  0  0  0  0  0
    8.0264   -1.4921   -0.5381 H   0  0  0  0  0  0  0  0  0  0  0  0
    7.9542   -3.4564    1.1512 H   0  0  0  0  0  0  0  0  0  0  0  0
    7.1607   -3.8999   -1.1194 H   0  0  0  0  0  0  0  0  0  0  0  0
    5.3895   -4.8055    0.2030 H   0  0  0  0  0  0  0  0  0  0  0  0
    5.7079   -3.6848    2.2917 H   0  0  0  0  0  0  0  0  0  0  0  0
    5.2980   -1.1478    2.5249 H   0  0  0  0  0  0  0  0  0  0  0  0
  1  2  1  0
  1 19  1  0
  1 20  1  0
  1 21  1  0
  2  3  1  0
  4  3  1  1
  3 22  1  0
  3 23  1  0
  4 10  1  0
  4 16  1  0
  4  5  1  0
  5  9  1  0
  5  6  2  0
  6  7  1  0
  6 24  1  0
  7  8  1  0
  7 10  1  0
  7 25  1  1
  8  9  2  0
  8 26  1  0
  9 27  1  0
 10 11  1  0
 10 28  1  1
 11 18  1  0
 11 12  1  0
 11 29  1  1
 12 18  1  0
 12 13  1  0
 12 30  1  1
 13 15  1  0
 13 14  1  0
 13 31  1  6
 14 17  1  0
 14 15  1  0
 14 32  1  1
 15 16  1  0
 15 33  1  6
 16 17  1  0
 16 34  1  1
 17 18  1  0
 17 35  1  1
 18 36  1  1
M  END
>  <i_m_ct_stereo_status>  (208) 
1

>  <s_m_source_file>  (208) 
/var/tmp/pbs.5076255.sched01/tmp25xsusm8/82mdre8bl4.sdf

>  <i_m_source_file_index>  (208) 
21

>  <i_lp_mmshare_version>  (208) 
48012

>  <i_f3d_flags>  (208) 
1

>  <s_epik_input>  (208) 
W0NIM11PW0NIMl1bQ0BAXTEyQzM9W0NIXVtDQEhdKFtDSF09W0NIXTMpW0NAQEhdMVtDQEBIXTRbQ0BASF01W0NASF02W0NAQEhdN1tDQEhdNltDQEhdMltDQEBIXTdbQ0BIXTQ1

>  <s_epik_cmdline>  (208) 
J2VwaWtfcHl0aG9uJywgJy1waHQnLCAnMi4wJywgJy1waCcsICc3LjAnLCAnLXRuJywgJzgnLCAnLW1hJywgJzIwMCcsICctaW1hZScsICc8aW5maWxlLm1hZT4nLCAnLW9tYWUnLCAnPG91dGZpbGUubWFlPic=

>  <r_lp_tautomer_probability>  (208) 
1

>  <r_epik_Ionization_Penalty>  (208) 
1.90283e-11

>  <r_epik_Ionization_Penalty_Charging>  (208) 
0

>  <r_epik_Ionization_Penalty_Neutral>  (208) 
1.90283e-11

>  <r_epik_State_Penalty>  (208) 
-0

>  <r_epik_Charging_Adjusted_Penalty>  (208) 
0

>  <i_epik_Tot_Q>  (208) 
0

>  <i_epik_Tot_abs_Q>  (208) 
0

>  <s_lp_Force_Field>  (208) 
OPLS3e

>  <r_lp_Energy>  (208) 
126.042

>  <b_lp_Chiralities_Consistent>  (208) 
1

>  <s_lp_Variant>  (208) 
74:0-1

>  <s_i_glide_gridfile>  (208) 
pfpi4k_grid

>  <i_i_glide_lignum>  (208) 
21

>  <i_i_glide_rotatable_bonds>  (208) 
2

>  <r_i_docking_score>  (208) 
-3.26991

>  <r_i_glide_ligand_efficiency>  (208) 
-0.181662

>  <r_i_glide_ligand_efficiency_sa>  (208) 
-0.476089

>  <r_i_glide_ligand_efficiency_ln>  (208) 
-0.840515

>  <r_i_glide_gscore>  (208) 
-3.26991

>  <r_i_glide_lipo>  (208) 
-0.770789

>  <r_i_glide_hbond>  (208) 
0

>  <r_i_glide_metal>  (208) 
-0

>  <r_i_glide_rewards>  (208) 
-1.78415

>  <r_i_glide_evdw>  (208) 
-16.5257

>  <r_i_glide_ecoul>  (208) 
0.742074

>  <r_i_glide_erotb>  (208) 
0

>  <r_i_glide_esite>  (208) 
0

>  <r_i_glide_emodel>  (208) 
-19.1564

>  <r_i_glide_energy>  (208) 
-15.7836

>  <r_i_glide_einternal>  (208) 
0.337613

>  <r_i_glide_intrahb_reward>  (208) 
-0

>  <i_i_glide_confnum>  (208) 
1

>  <i_i_glide_posenum>  (208) 
34

>  <r_i_glide_eff_state_penalty>  (208) 
0

>  <ligand_id>  (208) 
74

>  <original_smiles>  (208) 
COCC12C3=CC(C=C3)C1C1C3C4C5C4C2C5C31

>  <smiles>  (208) 
[H]C1=C([H])C2([H])C([H])=C1C1(C([H])([H])OC([H])([H])[H])C2([H])C2([H])C3([H])C4([H])C5([H])C4([H])C1([H])C5([H])C32[H]

$$$$
75:0:0
     RDKit          3D

 36 39  0  0  1  0  0  0  0  0999 V2000
    5.3991   -1.3756    0.7655 O   0  0  0  0  0  0  0  0  0  0  0  0
    4.5861   -2.1013    0.1956 C   0  0  0  0  0  0  0  0  0  0  0  0
    4.1719   -1.9586   -1.2167 C   0  0  0  0  0  0  0  0  0  0  0  0
    4.5920   -1.0382   -2.1875 C   0  0  0  0  0  0  0  0  0  0  0  0
    4.0056   -1.1552   -3.4678 C   0  0  0  0  0  0  0  0  0  0  0  0
    3.0385   -2.1572   -3.7347 C   0  0  0  0  0  0  0  0  0  0  0  0
    2.6218   -3.0551   -2.7260 C   0  0  0  0  0  0  0  0  0  0  0  0
    3.2322   -2.9248   -1.4725 C   0  0  0  0  0  0  0  0  0  0  0  0
    3.0329   -3.6985   -0.2254 C   0  0  0  0  0  0  0  0  0  0  0  0
    2.2329   -4.6280   -0.0681 O   0  0  0  0  0  0  0  0  0  0  0  0
    3.8863   -3.1584    0.6871 N   0  0  0  0  0  0  0  0  0  0  0  0
    3.9750   -3.6025    2.0837 C   0  0  0  0  0  0  0  0  0  0  0  0
    2.9327   -2.9661    2.9940 C   0  0  0  0  0  0  0  0  0  0  0  0
    2.1073   -1.9450    2.6809 C   0  0  0  0  0  0  0  0  0  0  0  0
    1.0707   -1.3870    3.5545 C   0  0  0  0  0  0  0  0  0  0  0  0
    0.5487   -2.1345    4.6442 C   0  0  0  0  0  0  0  0  0  0  0  0
   -0.4412   -1.5956    5.4926 C   0  0  0  0  0  0  0  0  0  0  0  0
   -0.8682   -0.2844    5.2426 C   0  0  0  0  0  0  0  0  0  0  0  0
   -0.3573    0.4579    4.1951 C   0  0  0  0  0  0  0  0  0  0  0  0
    0.6126   -0.0670    3.3233 C   0  0  0  0  0  0  0  0  0  0  0  0
   -0.9107    1.7003    4.2090 O   0  0  0  0  0  0  0  0  0  0  0  0
   -1.6946    1.7505    5.3718 C   0  0  0  0  0  0  0  0  0  0  0  0
   -1.7635    0.4647    5.9402 O   0  0  0  0  0  0  0  0  0  0  0  0
    5.3196   -0.2703   -1.9531 H   0  0  0  0  0  0  0  0  0  0  0  0
    4.2946   -0.4731   -4.2519 H   0  0  0  0  0  0  0  0  0  0  0  0
    2.6128   -2.2362   -4.7149 H   0  0  0  0  0  0  0  0  0  0  0  0
    1.8906   -3.8297   -2.9137 H   0  0  0  0  0  0  0  0  0  0  0  0
    3.8618   -4.6883    2.1333 H   0  0  0  0  0  0  0  0  0  0  0  0
    4.9631   -3.3920    2.4991 H   0  0  0  0  0  0  0  0  0  0  0  0
    2.8883   -3.4076    3.9787 H   0  0  0  0  0  0  0  0  0  0  0  0
    2.1604   -1.4856    1.7056 H   0  0  0  0  0  0  0  0  0  0  0  0
    0.8911   -3.1366    4.8328 H   0  0  0  0  0  0  0  0  0  0  0  0
   -0.8309   -2.1651    6.3204 H   0  0  0  0  0  0  0  0  0  0  0  0
    1.0071    0.5373    2.5151 H   0  0  0  0  0  0  0  0  0  0  0  0
   -1.1985    2.4085    6.0828 H   0  0  0  0  0  0  0  0  0  0  0  0
   -2.6823    2.1487    5.1472 H   0  0  0  0  0  0  0  0  0  0  0  0
  1  2  2  0
  2 11  1  0
  2  3  1  0
  3  8  2  0
  3  4  1  0
  4  5  2  0
  4 24  1  0
  5  6  1  0
  5 25  1  0
  6  7  2  0
  6 26  1  0
  7  8  1  0
  7 27  1  0
  8  9  1  0
  9 10  2  0
  9 11  1  0
 11 12  1  0
 12 13  1  0
 12 28  1  0
 12 29  1  0
 13 14  2  3
 13 30  1  0
 14 15  1  0
 14 31  1  0
 15 20  1  0
 15 16  2  0
 16 17  1  0
 16 32  1  0
 17 18  2  0
 17 33  1  0
 18 23  1  0
 18 19  1  0
 19 20  2  0
 19 21  1  0
 20 34  1  0
 21 22  1  0
 22 23  1  0
 22 35  1  0
 22 36  1  0
M  END
>  <i_m_ct_stereo_status>  (209) 
1

>  <s_m_source_file>  (209) 
/var/tmp/pbs.5076255.sched01/tmp25xsusm8/82mdre8bl4.sdf

>  <i_m_source_file_index>  (209) 
22

>  <i_lp_mmshare_version>  (209) 
48012

>  <i_f3d_flags>  (209) 
0

>  <s_epik_input>  (209) 
W2NIXTFbY0hdW2NIXVtjSF1jKGMxMilDKD1PKU4oQzI9TylbQ0gyXS9bQ0hdPVtDSF0vYyhbY0hdW2NIXTMpW2NIXWMoYzM0KU9bQ0gyXU80

>  <s_epik_cmdline>  (209) 
J2VwaWtfcHl0aG9uJywgJy1waHQnLCAnMi4wJywgJy1waCcsICc3LjAnLCAnLXRuJywgJzgnLCAnLW1hJywgJzIwMCcsICctaW1hZScsICc8aW5maWxlLm1hZT4nLCAnLW9tYWUnLCAnPG91dGZpbGUubWFlPic=

>  <r_lp_tautomer_probability>  (209) 
1

>  <r_epik_Ionization_Penalty>  (209) 
3.38105e-14

>  <r_epik_Ionization_Penalty_Charging>  (209) 
0

>  <r_epik_Ionization_Penalty_Neutral>  (209) 
3.38105e-14

>  <r_epik_State_Penalty>  (209) 
-0

>  <r_epik_Charging_Adjusted_Penalty>  (209) 
0

>  <i_epik_Tot_Q>  (209) 
0

>  <i_epik_Tot_abs_Q>  (209) 
0

>  <s_epik_Chemistry_Notes>  (209) 
This compound contains an acetal/aminal-like group ( X-CH(R)-Y where X, Y are N, S, or O) that may be acid/base labile, releasing an aldehyde.

>  <s_lp_Force_Field>  (209) 
OPLS3e

>  <r_lp_Energy>  (209) 
28.1003

>  <b_lp_Chiralities_Consistent>  (209) 
1

>  <s_lp_Variant>  (209) 
75:0-1

>  <s_i_glide_gridfile>  (209) 
pfpi4k_grid

>  <i_i_glide_lignum>  (209) 
22

>  <i_i_glide_rotatable_bonds>  (209) 
3

>  <r_i_docking_score>  (209) 
-3.30553

>  <r_i_glide_ligand_efficiency>  (209) 
-0.143719

>  <r_i_glide_ligand_efficiency_sa>  (209) 
-0.408716

>  <r_i_glide_ligand_efficiency_ln>  (209) 
-0.799306

>  <r_i_glide_gscore>  (209) 
-3.30553

>  <r_i_glide_lipo>  (209) 
-0.440711

>  <r_i_glide_hbond>  (209) 
-0.0476494

>  <r_i_glide_metal>  (209) 
-0

>  <r_i_glide_rewards>  (209) 
-1.31386

>  <r_i_glide_evdw>  (209) 
-27.8227

>  <r_i_glide_ecoul>  (209) 
-1.83433

>  <r_i_glide_erotb>  (209) 
0.195744

>  <r_i_glide_esite>  (209) 
-0.0327632

>  <r_i_glide_emodel>  (209) 
-34.9388

>  <r_i_glide_energy>  (209) 
-29.657

>  <r_i_glide_einternal>  (209) 
2.50336

>  <r_i_glide_intrahb_reward>  (209) 
-0

>  <i_i_glide_confnum>  (209) 
6

>  <i_i_glide_posenum>  (209) 
4

>  <r_i_glide_eff_state_penalty>  (209) 
0

>  <ligand_id>  (209) 
75

>  <original_smiles>  (209) 
O=C1c2ccccc2C(=O)N1CC=Cc1ccc2c(c1)OCO2

>  <smiles>  (209) 
[H]C(=C([H])C([H])([H])N1C(=O)c2c([H])c([H])c([H])c([H])c2C1=O)c1c([H])c([H])c2c(c1[H])OC([H])([H])O2

$$$$
75:0:1
     RDKit          3D

 36 39  0  0  1  0  0  0  0  0999 V2000
    2.3544   -4.3072   -0.0469 O   0  0  0  0  0  0  0  0  0  0  0  0
    3.0328   -3.2973   -0.2435 C   0  0  0  0  0  0  0  0  0  0  0  0
    3.2906   -2.6813   -1.5638 C   0  0  0  0  0  0  0  0  0  0  0  0
    2.8629   -3.0590   -2.8387 C   0  0  0  0  0  0  0  0  0  0  0  0
    3.2895   -2.2672   -3.9221 C   0  0  0  0  0  0  0  0  0  0  0  0
    4.0720   -1.1047   -3.7130 C   0  0  0  0  0  0  0  0  0  0  0  0
    4.4784   -0.7350   -2.4093 C   0  0  0  0  0  0  0  0  0  0  0  0
    4.0637   -1.5651   -1.3575 C   0  0  0  0  0  0  0  0  0  0  0  0
    4.3101   -1.4571    0.0934 C   0  0  0  0  0  0  0  0  0  0  0  0
    4.9528   -0.5563    0.6386 O   0  0  0  0  0  0  0  0  0  0  0  0
    3.6800   -2.5186    0.6649 N   0  0  0  0  0  0  0  0  0  0  0  0
    3.6343   -2.7433    2.1188 C   0  0  0  0  0  0  0  0  0  0  0  0
    2.6615   -1.8257    2.8603 C   0  0  0  0  0  0  0  0  0  0  0  0
    1.8480   -0.9128    2.2927 C   0  0  0  0  0  0  0  0  0  0  0  0
    0.9243   -0.0033    2.9663 C   0  0  0  0  0  0  0  0  0  0  0  0
    0.2289    0.9451    2.1685 C   0  0  0  0  0  0  0  0  0  0  0  0
   -0.6879    1.8509    2.7425 C   0  0  0  0  0  0  0  0  0  0  0  0
   -0.9007    1.7670    4.1267 C   0  0  0  0  0  0  0  0  0  0  0  0
   -0.2266    0.8536    4.9112 C   0  0  0  0  0  0  0  0  0  0  0  0
    0.7086   -0.0379    4.3662 C   0  0  0  0  0  0  0  0  0  0  0  0
   -0.6393    0.9663    6.2010 O   0  0  0  0  0  0  0  0  0  0  0  0
   -1.6691    1.9176    6.1812 C   0  0  0  0  0  0  0  0  0  0  0  0
   -1.7530    2.4861    4.9008 O   0  0  0  0  0  0  0  0  0  0  0  0
    2.2491   -3.9322   -2.9821 H   0  0  0  0  0  0  0  0  0  0  0  0
    3.0131   -2.5637   -4.9178 H   0  0  0  0  0  0  0  0  0  0  0  0
    4.3706   -0.4986   -4.5516 H   0  0  0  0  0  0  0  0  0  0  0  0
    5.0732    0.1411   -2.2196 H   0  0  0  0  0  0  0  0  0  0  0  0
    3.3562   -3.7728    2.3526 H   0  0  0  0  0  0  0  0  0  0  0  0
    4.6321   -2.6109    2.5432 H   0  0  0  0  0  0  0  0  0  0  0  0
    2.6672   -1.9563    3.9324 H   0  0  0  0  0  0  0  0  0  0  0  0
    1.8379   -0.8035    1.2218 H   0  0  0  0  0  0  0  0  0  0  0  0
    0.3882    0.9739    1.1053 H   0  0  0  0  0  0  0  0  0  0  0  0
   -1.2205    2.5628    2.1297 H   0  0  0  0  0  0  0  0  0  0  0  0
    1.2116   -0.7414    5.0072 H   0  0  0  0  0  0  0  0  0  0  0  0
   -2.6009    1.3955    6.3825 H   0  0  0  0  0  0  0  0  0  0  0  0
   -1.5082    2.6825    6.9458 H   0  0  0  0  0  0  0  0  0  0  0  0
  1  2  2  0
  2 11  1  0
  2  3  1  0
  3  8  2  0
  3  4  1  0
  4  5  2  0
  4 24  1  0
  5  6  1  0
  5 25  1  0
  6  7  2  0
  6 26  1  0
  7  8  1  0
  7 27  1  0
  8  9  1  0
  9 10  2  0
  9 11  1  0
 11 12  1  0
 12 13  1  0
 12 28  1  0
 12 29  1  0
 13 14  2  3
 13 30  1  0
 14 15  1  0
 14 31  1  0
 15 20  1  0
 15 16  2  0
 16 17  1  0
 16 32  1  0
 17 18  2  0
 17 33  1  0
 18 23  1  0
 18 19  1  0
 19 20  2  0
 19 21  1  0
 20 34  1  0
 21 22  1  0
 22 23  1  0
 22 35  1  0
 22 36  1  0
M  END
>  <i_m_ct_stereo_status>  (210) 
1

>  <s_m_source_file>  (210) 
/var/tmp/pbs.5076255.sched01/tmp25xsusm8/82mdre8bl4.sdf

>  <i_m_source_file_index>  (210) 
22

>  <i_lp_mmshare_version>  (210) 
48012

>  <i_f3d_flags>  (210) 
0

>  <s_epik_input>  (210) 
W2NIXTFbY0hdW2NIXVtjSF1jKGMxMilDKD1PKU4oQzI9TylbQ0gyXS9bQ0hdPVtDSF0vYyhbY0hdW2NIXTMpW2NIXWMoYzM0KU9bQ0gyXU80

>  <s_epik_cmdline>  (210) 
J2VwaWtfcHl0aG9uJywgJy1waHQnLCAnMi4wJywgJy1waCcsICc3LjAnLCAnLXRuJywgJzgnLCAnLW1hJywgJzIwMCcsICctaW1hZScsICc8aW5maWxlLm1hZT4nLCAnLW9tYWUnLCAnPG91dGZpbGUubWFlPic=

>  <r_lp_tautomer_probability>  (210) 
1

>  <r_epik_Ionization_Penalty>  (210) 
3.38105e-14

>  <r_epik_Ionization_Penalty_Charging>  (210) 
0

>  <r_epik_Ionization_Penalty_Neutral>  (210) 
3.38105e-14

>  <r_epik_State_Penalty>  (210) 
-0

>  <r_epik_Charging_Adjusted_Penalty>  (210) 
0

>  <i_epik_Tot_Q>  (210) 
0

>  <i_epik_Tot_abs_Q>  (210) 
0

>  <s_epik_Chemistry_Notes>  (210) 
This compound contains an acetal/aminal-like group ( X-CH(R)-Y where X, Y are N, S, or O) that may be acid/base labile, releasing an aldehyde.

>  <s_lp_Force_Field>  (210) 
OPLS3e

>  <r_lp_Energy>  (210) 
28.1003

>  <b_lp_Chiralities_Consistent>  (210) 
1

>  <s_lp_Variant>  (210) 
75:0-1

>  <s_i_glide_gridfile>  (210) 
pfpi4k_grid

>  <i_i_glide_lignum>  (210) 
22

>  <i_i_glide_rotatable_bonds>  (210) 
3

>  <r_i_docking_score>  (210) 
-3.09481

>  <r_i_glide_ligand_efficiency>  (210) 
-0.134557

>  <r_i_glide_ligand_efficiency_sa>  (210) 
-0.382662

>  <r_i_glide_ligand_efficiency_ln>  (210) 
-0.748353

>  <r_i_glide_gscore>  (210) 
-3.09481

>  <r_i_glide_lipo>  (210) 
-0.299183

>  <r_i_glide_hbond>  (210) 
0

>  <r_i_glide_metal>  (210) 
-0

>  <r_i_glide_rewards>  (210) 
-1.31706

>  <r_i_glide_evdw>  (210) 
-28.5669

>  <r_i_glide_ecoul>  (210) 
-1.28478

>  <r_i_glide_erotb>  (210) 
0.195744

>  <r_i_glide_esite>  (210) 
-0.0532432

>  <r_i_glide_emodel>  (210) 
-35.208

>  <r_i_glide_energy>  (210) 
-29.8517

>  <r_i_glide_einternal>  (210) 
1.46063

>  <r_i_glide_intrahb_reward>  (210) 
-0

>  <i_i_glide_confnum>  (210) 
3

>  <i_i_glide_posenum>  (210) 
31

>  <r_i_glide_eff_state_penalty>  (210) 
0

>  <ligand_id>  (210) 
75

>  <original_smiles>  (210) 
O=C1c2ccccc2C(=O)N1CC=Cc1ccc2c(c1)OCO2

>  <smiles>  (210) 
[H]C(=C([H])C([H])([H])N1C(=O)c2c([H])c([H])c([H])c([H])c2C1=O)c1c([H])c([H])c2c(c1[H])OC([H])([H])O2

$$$$
75:0:2
     RDKit          3D

 36 39  0  0  1  0  0  0  0  0999 V2000
    5.2272   -0.5490    0.5808 O   0  0  0  0  0  0  0  0  0  0  0  0
    4.5331   -1.4257    0.0658 C   0  0  0  0  0  0  0  0  0  0  0  0
    4.2193   -1.5394   -1.3741 C   0  0  0  0  0  0  0  0  0  0  0  0
    4.6064   -0.7284   -2.4446 C   0  0  0  0  0  0  0  0  0  0  0  0
    4.1632   -1.1093   -3.7305 C   0  0  0  0  0  0  0  0  0  0  0  0
    3.3444   -2.2531   -3.8999 C   0  0  0  0  0  0  0  0  0  0  0  0
    2.9411   -3.0313   -2.7944 C   0  0  0  0  0  0  0  0  0  0  0  0
    3.4210   -2.6403   -1.5398 C   0  0  0  0  0  0  0  0  0  0  0  0
    3.1997   -3.2430   -0.2051 C   0  0  0  0  0  0  0  0  0  0  0  0
    2.5091   -4.2313    0.0370 O   0  0  0  0  0  0  0  0  0  0  0  0
    3.9109   -2.4739    0.6615 N   0  0  0  0  0  0  0  0  0  0  0  0
    3.9258   -2.6899    2.1141 C   0  0  0  0  0  0  0  0  0  0  0  0
    2.8760   -1.8809    2.8627 C   0  0  0  0  0  0  0  0  0  0  0  0
    1.9699   -1.0334    2.3344 C   0  0  0  0  0  0  0  0  0  0  0  0
    0.9595   -0.2718    3.0803 C   0  0  0  0  0  0  0  0  0  0  0  0
    0.8189   -0.4012    4.4891 C   0  0  0  0  0  0  0  0  0  0  0  0
   -0.1545    0.3307    5.1966 C   0  0  0  0  0  0  0  0  0  0  0  0
   -0.9709    1.2047    4.4684 C   0  0  0  0  0  0  0  0  0  0  0  0
   -0.8481    1.3434    3.1005 C   0  0  0  0  0  0  0  0  0  0  0  0
    0.1097    0.6144    2.3734 C   0  0  0  0  0  0  0  0  0  0  0  0
   -1.7501    2.2573    2.6579 O   0  0  0  0  0  0  0  0  0  0  0  0
   -2.3508    2.7841    3.8131 C   0  0  0  0  0  0  0  0  0  0  0  0
   -1.9437    2.0316    4.9266 O   0  0  0  0  0  0  0  0  0  0  0  0
    5.2277    0.1374   -2.2963 H   0  0  0  0  0  0  0  0  0  0  0  0
    4.4519   -0.5216   -4.5839 H   0  0  0  0  0  0  0  0  0  0  0  0
    3.0123   -2.5374   -4.8780 H   0  0  0  0  0  0  0  0  0  0  0  0
    2.2933   -3.8868   -2.9101 H   0  0  0  0  0  0  0  0  0  0  0  0
    3.7715   -3.7434    2.3533 H   0  0  0  0  0  0  0  0  0  0  0  0
    4.9054   -2.4387    2.5258 H   0  0  0  0  0  0  0  0  0  0  0  0
    2.9090   -2.0486    3.9260 H   0  0  0  0  0  0  0  0  0  0  0  0
    1.9412   -0.8722    1.2653 H   0  0  0  0  0  0  0  0  0  0  0  0
    1.4552   -1.0514    5.0591 H   0  0  0  0  0  0  0  0  0  0  0  0
   -0.2462    0.2415    6.2678 H   0  0  0  0  0  0  0  0  0  0  0  0
    0.1931    0.7466    1.3016 H   0  0  0  0  0  0  0  0  0  0  0  0
   -1.9872    3.8010    3.9486 H   0  0  0  0  0  0  0  0  0  0  0  0
   -3.4380    2.7859    3.7269 H   0  0  0  0  0  0  0  0  0  0  0  0
  1  2  2  0
  2 11  1  0
  2  3  1  0
  3  8  2  0
  3  4  1  0
  4  5  2  0
  4 24  1  0
  5  6  1  0
  5 25  1  0
  6  7  2  0
  6 26  1  0
  7  8  1  0
  7 27  1  0
  8  9  1  0
  9 10  2  0
  9 11  1  0
 11 12  1  0
 12 13  1  0
 12 28  1  0
 12 29  1  0
 13 14  2  3
 13 30  1  0
 14 15  1  0
 14 31  1  0
 15 20  1  0
 15 16  2  0
 16 17  1  0
 16 32  1  0
 17 18  2  0
 17 33  1  0
 18 23  1  0
 18 19  1  0
 19 20  2  0
 19 21  1  0
 20 34  1  0
 21 22  1  0
 22 23  1  0
 22 35  1  0
 22 36  1  0
M  END
>  <i_m_ct_stereo_status>  (211) 
1

>  <s_m_source_file>  (211) 
/var/tmp/pbs.5076255.sched01/tmp25xsusm8/82mdre8bl4.sdf

>  <i_m_source_file_index>  (211) 
22

>  <i_lp_mmshare_version>  (211) 
48012

>  <i_f3d_flags>  (211) 
0

>  <s_epik_input>  (211) 
W2NIXTFbY0hdW2NIXVtjSF1jKGMxMilDKD1PKU4oQzI9TylbQ0gyXS9bQ0hdPVtDSF0vYyhbY0hdW2NIXTMpW2NIXWMoYzM0KU9bQ0gyXU80

>  <s_epik_cmdline>  (211) 
J2VwaWtfcHl0aG9uJywgJy1waHQnLCAnMi4wJywgJy1waCcsICc3LjAnLCAnLXRuJywgJzgnLCAnLW1hJywgJzIwMCcsICctaW1hZScsICc8aW5maWxlLm1hZT4nLCAnLW9tYWUnLCAnPG91dGZpbGUubWFlPic=

>  <r_lp_tautomer_probability>  (211) 
1

>  <r_epik_Ionization_Penalty>  (211) 
3.38105e-14

>  <r_epik_Ionization_Penalty_Charging>  (211) 
0

>  <r_epik_Ionization_Penalty_Neutral>  (211) 
3.38105e-14

>  <r_epik_State_Penalty>  (211) 
-0

>  <r_epik_Charging_Adjusted_Penalty>  (211) 
0

>  <i_epik_Tot_Q>  (211) 
0

>  <i_epik_Tot_abs_Q>  (211) 
0

>  <s_epik_Chemistry_Notes>  (211) 
This compound contains an acetal/aminal-like group ( X-CH(R)-Y where X, Y are N, S, or O) that may be acid/base labile, releasing an aldehyde.

>  <s_lp_Force_Field>  (211) 
OPLS3e

>  <r_lp_Energy>  (211) 
28.1003

>  <b_lp_Chiralities_Consistent>  (211) 
1

>  <s_lp_Variant>  (211) 
75:0-1

>  <s_i_glide_gridfile>  (211) 
pfpi4k_grid

>  <i_i_glide_lignum>  (211) 
22

>  <i_i_glide_rotatable_bonds>  (211) 
3

>  <r_i_docking_score>  (211) 
-3.0052

>  <r_i_glide_ligand_efficiency>  (211) 
-0.130661

>  <r_i_glide_ligand_efficiency_sa>  (211) 
-0.371582

>  <r_i_glide_ligand_efficiency_ln>  (211) 
-0.726684

>  <r_i_glide_gscore>  (211) 
-3.0052

>  <r_i_glide_lipo>  (211) 
-0.290042

>  <r_i_glide_hbond>  (211) 
0

>  <r_i_glide_metal>  (211) 
-0

>  <r_i_glide_rewards>  (211) 
-1.3217

>  <r_i_glide_evdw>  (211) 
-29.9258

>  <r_i_glide_ecoul>  (211) 
-0.170326

>  <r_i_glide_erotb>  (211) 
0.195744

>  <r_i_glide_esite>  (211) 
-0.0673628

>  <r_i_glide_emodel>  (211) 
-35.0016

>  <r_i_glide_energy>  (211) 
-30.0961

>  <r_i_glide_einternal>  (211) 
2.03123

>  <r_i_glide_intrahb_reward>  (211) 
-0

>  <i_i_glide_confnum>  (211) 
3

>  <i_i_glide_posenum>  (211) 
1

>  <r_i_glide_eff_state_penalty>  (211) 
0

>  <ligand_id>  (211) 
75

>  <original_smiles>  (211) 
O=C1c2ccccc2C(=O)N1CC=Cc1ccc2c(c1)OCO2

>  <smiles>  (211) 
[H]C(=C([H])C([H])([H])N1C(=O)c2c([H])c([H])c([H])c([H])c2C1=O)c1c([H])c([H])c2c(c1[H])OC([H])([H])O2

$$$$
75:1:0
     RDKit          3D

 36 39  0  0  1  0  0  0  0  0999 V2000
    1.3998   -5.8792    0.8824 O   0  0  0  0  0  0  0  0  0  0  0  0
    1.4137   -5.9888    2.1107 C   0  0  0  0  0  0  0  0  0  0  0  0
    0.5878   -6.9346    2.8875 C   0  0  0  0  0  0  0  0  0  0  0  0
   -0.3143   -7.9130    2.4469 C   0  0  0  0  0  0  0  0  0  0  0  0
   -0.9570   -8.6698    3.4504 C   0  0  0  0  0  0  0  0  0  0  0  0
   -0.6843   -8.4450    4.8228 C   0  0  0  0  0  0  0  0  0  0  0  0
    0.2297   -7.4501    5.2347 C   0  0  0  0  0  0  0  0  0  0  0  0
    0.8467   -6.7133    4.2175 C   0  0  0  0  0  0  0  0  0  0  0  0
    1.8356   -5.6171    4.3057 C   0  0  0  0  0  0  0  0  0  0  0  0
    2.2915   -5.1460    5.3477 O   0  0  0  0  0  0  0  0  0  0  0  0
    2.0974   -5.2537    3.0239 N   0  0  0  0  0  0  0  0  0  0  0  0
    3.0485   -4.2096    2.6537 C   0  0  0  0  0  0  0  0  0  0  0  0
    2.3811   -2.9132    2.2222 C   0  0  0  0  0  0  0  0  0  0  0  0
    2.7941   -2.0635    1.2612 C   0  0  0  0  0  0  0  0  0  0  0  0
    4.0062   -2.1396    0.4224 C   0  0  0  0  0  0  0  0  0  0  0  0
    3.9556   -1.5622   -0.8738 C   0  0  0  0  0  0  0  0  0  0  0  0
    5.0626   -1.6225   -1.7497 C   0  0  0  0  0  0  0  0  0  0  0  0
    6.2177   -2.2784   -1.2960 C   0  0  0  0  0  0  0  0  0  0  0  0
    6.2798   -2.8486   -0.0468 C   0  0  0  0  0  0  0  0  0  0  0  0
    5.1956   -2.7940    0.8408 C   0  0  0  0  0  0  0  0  0  0  0  0
    7.5100   -3.3905    0.1518 O   0  0  0  0  0  0  0  0  0  0  0  0
    8.2688   -3.0196   -0.9691 C   0  0  0  0  0  0  0  0  0  0  0  0
    7.4165   -2.4291   -1.9177 O   0  0  0  0  0  0  0  0  0  0  0  0
   -0.4962   -8.0813    1.3936 H   0  0  0  0  0  0  0  0  0  0  0  0
   -1.6485   -9.4483    3.1722 H   0  0  0  0  0  0  0  0  0  0  0  0
   -1.1745   -9.0583    5.5630 H   0  0  0  0  0  0  0  0  0  0  0  0
    0.4541   -7.2712    6.2762 H   0  0  0  0  0  0  0  0  0  0  0  0
    3.7227   -3.9718    3.4790 H   0  0  0  0  0  0  0  0  0  0  0  0
    3.6599   -4.6217    1.8549 H   0  0  0  0  0  0  0  0  0  0  0  0
    1.4783   -2.6519    2.7573 H   0  0  0  0  0  0  0  0  0  0  0  0
    2.1734   -1.1944    1.0709 H   0  0  0  0  0  0  0  0  0  0  0  0
    3.0558   -1.0599   -1.1965 H   0  0  0  0  0  0  0  0  0  0  0  0
    5.0235   -1.1690   -2.7271 H   0  0  0  0  0  0  0  0  0  0  0  0
    5.3148   -3.2200    1.8247 H   0  0  0  0  0  0  0  0  0  0  0  0
    9.0043   -2.2804   -0.6432 H   0  0  0  0  0  0  0  0  0  0  0  0
    8.7960   -3.8772   -1.3924 H   0  0  0  0  0  0  0  0  0  0  0  0
  1  2  2  0
  2 11  1  0
  2  3  1  0
  3  8  2  0
  3  4  1  0
  4  5  2  0
  4 24  1  0
  5  6  1  0
  5 25  1  0
  6  7  2  0
  6 26  1  0
  7  8  1  0
  7 27  1  0
  8  9  1  0
  9 10  2  0
  9 11  1  0
 11 12  1  0
 12 13  1  0
 12 28  1  0
 12 29  1  0
 13 14  2  3
 13 30  1  0
 14 15  1  0
 14 31  1  0
 15 20  1  0
 15 16  2  0
 16 17  1  0
 16 32  1  0
 17 18  2  0
 17 33  1  0
 18 23  1  0
 18 19  1  0
 19 20  2  0
 19 21  1  0
 20 34  1  0
 21 22  1  0
 22 23  1  0
 22 35  1  0
 22 36  1  0
M  END
>  <i_m_ct_stereo_status>  (212) 
1

>  <s_m_source_file>  (212) 
/var/tmp/pbs.5076255.sched01/tmp25xsusm8/82mdre8bl4.sdf

>  <i_m_source_file_index>  (212) 
23

>  <i_lp_mmshare_version>  (212) 
48012

>  <i_f3d_flags>  (212) 
0

>  <s_epik_input>  (212) 
W2NIXTFbY0hdW2NIXVtjSF1jKGMxMilDKD1PKU4oQzI9TylbQ0gyXS9bQ0hdPVtDSF0vYyhbY0hdW2NIXTMpW2NIXWMoYzM0KU9bQ0gyXU80

>  <s_epik_cmdline>  (212) 
J2VwaWtfcHl0aG9uJywgJy1waHQnLCAnMi4wJywgJy1waCcsICc3LjAnLCAnLXRuJywgJzgnLCAnLW1hJywgJzIwMCcsICctaW1hZScsICc8aW5maWxlLm1hZT4nLCAnLW9tYWUnLCAnPG91dGZpbGUubWFlPic=

>  <r_lp_tautomer_probability>  (212) 
1

>  <r_epik_Ionization_Penalty>  (212) 
3.38105e-14

>  <r_epik_Ionization_Penalty_Charging>  (212) 
0

>  <r_epik_Ionization_Penalty_Neutral>  (212) 
3.38105e-14

>  <r_epik_State_Penalty>  (212) 
-0

>  <r_epik_Charging_Adjusted_Penalty>  (212) 
0

>  <i_epik_Tot_Q>  (212) 
0

>  <i_epik_Tot_abs_Q>  (212) 
0

>  <s_epik_Chemistry_Notes>  (212) 
This compound contains an acetal/aminal-like group ( X-CH(R)-Y where X, Y are N, S, or O) that may be acid/base labile, releasing an aldehyde.

>  <s_lp_Force_Field>  (212) 
OPLS3e

>  <r_lp_Energy>  (212) 
30.1375

>  <b_lp_Chiralities_Consistent>  (212) 
1

>  <s_lp_Variant>  (212) 
75:0-2

>  <s_i_glide_gridfile>  (212) 
pfpi4k_grid

>  <i_i_glide_lignum>  (212) 
23

>  <i_i_glide_rotatable_bonds>  (212) 
3

>  <r_i_docking_score>  (212) 
-3.56058

>  <r_i_glide_ligand_efficiency>  (212) 
-0.154808

>  <r_i_glide_ligand_efficiency_sa>  (212) 
-0.440253

>  <r_i_glide_ligand_efficiency_ln>  (212) 
-0.86098

>  <r_i_glide_gscore>  (212) 
-3.56058

>  <r_i_glide_lipo>  (212) 
-0.0823183

>  <r_i_glide_hbond>  (212) 
-0.316911

>  <r_i_glide_metal>  (212) 
-0

>  <r_i_glide_rewards>  (212) 
-1.31386

>  <r_i_glide_evdw>  (212) 
-25.0268

>  <r_i_glide_ecoul>  (212) 
-4.64009

>  <r_i_glide_erotb>  (212) 
0.195744

>  <r_i_glide_esite>  (212) 
-0.0958778

>  <r_i_glide_emodel>  (212) 
-35.5688

>  <r_i_glide_energy>  (212) 
-29.6669

>  <r_i_glide_einternal>  (212) 
1.42963

>  <r_i_glide_intrahb_reward>  (212) 
-0

>  <i_i_glide_confnum>  (212) 
2

>  <i_i_glide_posenum>  (212) 
26

>  <r_i_glide_eff_state_penalty>  (212) 
0

>  <ligand_id>  (212) 
75

>  <original_smiles>  (212) 
O=C1c2ccccc2C(=O)N1CC=Cc1ccc2c(c1)OCO2

>  <smiles>  (212) 
[H]C(=C([H])C([H])([H])N1C(=O)c2c([H])c([H])c([H])c([H])c2C1=O)c1c([H])c([H])c2c(c1[H])OC([H])([H])O2

$$$$
75:1:1
     RDKit          3D

 36 39  0  0  1  0  0  0  0  0999 V2000
    5.2084   -1.3264    1.0003 O   0  0  0  0  0  0  0  0  0  0  0  0
    4.4412   -2.0585    0.3636 C   0  0  0  0  0  0  0  0  0  0  0  0
    4.1702   -1.9302   -1.0800 C   0  0  0  0  0  0  0  0  0  0  0  0
    4.6711   -1.0153   -2.0043 C   0  0  0  0  0  0  0  0  0  0  0  0
    4.2076   -1.1250   -3.3451 C   0  0  0  0  0  0  0  0  0  0  0  0
    3.2864   -2.1476   -3.7062 C   0  0  0  0  0  0  0  0  0  0  0  0
    2.8052   -3.0634   -2.7435 C   0  0  0  0  0  0  0  0  0  0  0  0
    3.2795   -2.9182   -1.4312 C   0  0  0  0  0  0  0  0  0  0  0  0
    2.9821   -3.6853   -0.1959 C   0  0  0  0  0  0  0  0  0  0  0  0
    2.2084   -4.6513   -0.1342 O   0  0  0  0  0  0  0  0  0  0  0  0
    3.7228   -3.1286    0.7981 N   0  0  0  0  0  0  0  0  0  0  0  0
    3.7886   -3.6123    2.1879 C   0  0  0  0  0  0  0  0  0  0  0  0
    2.9469   -2.7158    3.1181 C   0  0  0  0  0  0  0  0  0  0  0  0
    1.9178   -3.0405    3.9323 C   0  0  0  0  0  0  0  0  0  0  0  0
    1.2293   -4.3407    4.1389 C   0  0  0  0  0  0  0  0  0  0  0  0
    0.5135   -4.5240    5.3594 C   0  0  0  0  0  0  0  0  0  0  0  0
   -0.1324   -5.7665    5.6603 C   0  0  0  0  0  0  0  0  0  0  0  0
   -0.0009   -6.8062    4.7154 C   0  0  0  0  0  0  0  0  0  0  0  0
    0.6962   -6.6189    3.5479 C   0  0  0  0  0  0  0  0  0  0  0  0
    1.2819   -5.4039    3.2057 C   0  0  0  0  0  0  0  0  0  0  0  0
    0.6244   -7.7393    2.7910 O   0  0  0  0  0  0  0  0  0  0  0  0
   -0.2449   -8.6041    3.4579 C   0  0  0  0  0  0  0  0  0  0  0  0
   -0.5626   -8.0378    4.7144 O   0  0  0  0  0  0  0  0  0  0  0  0
    5.3731   -0.2576   -1.6805 H   0  0  0  0  0  0  0  0  0  0  0  0
    4.5644   -0.4369   -4.0748 H   0  0  0  0  0  0  0  0  0  0  0  0
    2.9625   -2.2233   -4.7161 H   0  0  0  0  0  0  0  0  0  0  0  0
    2.1087   -3.8524   -3.0060 H   0  0  0  0  0  0  0  0  0  0  0  0
    3.5625   -4.6927    2.2300 H   0  0  0  0  0  0  0  0  0  0  0  0
    4.8226   -3.5396    2.5396 H   0  0  0  0  0  0  0  0  0  0  0  0
    3.2285   -1.6724    3.1203 H   0  0  0  0  0  0  0  0  0  0  0  0
    1.5137   -2.2198    4.5176 H   0  0  0  0  0  0  0  0  0  0  0  0
    0.4295   -3.7169    6.0683 H   0  0  0  0  0  0  0  0  0  0  0  0
   -0.7160   -5.8946    6.5661 H   0  0  0  0  0  0  0  0  0  0  0  0
    1.7055   -5.3418    2.2057 H   0  0  0  0  0  0  0  0  0  0  0  0
   -1.1441   -8.6416    2.8354 H   0  0  0  0  0  0  0  0  0  0  0  0
    0.2020   -9.6061    3.5334 H   0  0  0  0  0  0  0  0  0  0  0  0
  1  2  2  0
  2 11  1  0
  2  3  1  0
  3  8  2  0
  3  4  1  0
  4  5  2  0
  4 24  1  0
  5  6  1  0
  5 25  1  0
  6  7  2  0
  6 26  1  0
  7  8  1  0
  7 27  1  0
  8  9  1  0
  9 10  2  0
  9 11  1  0
 11 12  1  0
 12 13  1  0
 12 28  1  0
 12 29  1  0
 13 14  2  3
 13 30  1  0
 14 15  1  0
 14 31  1  0
 15 20  1  0
 15 16  2  0
 16 17  1  0
 16 32  1  0
 17 18  2  0
 17 33  1  0
 18 23  1  0
 18 19  1  0
 19 20  2  0
 19 21  1  0
 20 34  1  0
 21 22  1  0
 22 23  1  0
 22 35  1  0
 22 36  1  0
M  END
>  <i_m_ct_stereo_status>  (213) 
1

>  <s_m_source_file>  (213) 
/var/tmp/pbs.5076255.sched01/tmp25xsusm8/82mdre8bl4.sdf

>  <i_m_source_file_index>  (213) 
23

>  <i_lp_mmshare_version>  (213) 
48012

>  <i_f3d_flags>  (213) 
0

>  <s_epik_input>  (213) 
W2NIXTFbY0hdW2NIXVtjSF1jKGMxMilDKD1PKU4oQzI9TylbQ0gyXS9bQ0hdPVtDSF0vYyhbY0hdW2NIXTMpW2NIXWMoYzM0KU9bQ0gyXU80

>  <s_epik_cmdline>  (213) 
J2VwaWtfcHl0aG9uJywgJy1waHQnLCAnMi4wJywgJy1waCcsICc3LjAnLCAnLXRuJywgJzgnLCAnLW1hJywgJzIwMCcsICctaW1hZScsICc8aW5maWxlLm1hZT4nLCAnLW9tYWUnLCAnPG91dGZpbGUubWFlPic=

>  <r_lp_tautomer_probability>  (213) 
1

>  <r_epik_Ionization_Penalty>  (213) 
3.38105e-14

>  <r_epik_Ionization_Penalty_Charging>  (213) 
0

>  <r_epik_Ionization_Penalty_Neutral>  (213) 
3.38105e-14

>  <r_epik_State_Penalty>  (213) 
-0

>  <r_epik_Charging_Adjusted_Penalty>  (213) 
0

>  <i_epik_Tot_Q>  (213) 
0

>  <i_epik_Tot_abs_Q>  (213) 
0

>  <s_epik_Chemistry_Notes>  (213) 
This compound contains an acetal/aminal-like group ( X-CH(R)-Y where X, Y are N, S, or O) that may be acid/base labile, releasing an aldehyde.

>  <s_lp_Force_Field>  (213) 
OPLS3e

>  <r_lp_Energy>  (213) 
30.1375

>  <b_lp_Chiralities_Consistent>  (213) 
1

>  <s_lp_Variant>  (213) 
75:0-2

>  <s_i_glide_gridfile>  (213) 
pfpi4k_grid

>  <i_i_glide_lignum>  (213) 
23

>  <i_i_glide_rotatable_bonds>  (213) 
3

>  <r_i_docking_score>  (213) 
-3.09537

>  <r_i_glide_ligand_efficiency>  (213) 
-0.134581

>  <r_i_glide_ligand_efficiency_sa>  (213) 
-0.382731

>  <r_i_glide_ligand_efficiency_ln>  (213) 
-0.748487

>  <r_i_glide_gscore>  (213) 
-3.09537

>  <r_i_glide_lipo>  (213) 
-0.355107

>  <r_i_glide_hbond>  (213) 
-0.00223405

>  <r_i_glide_metal>  (213) 
-0

>  <r_i_glide_rewards>  (213) 
-1.31386

>  <r_i_glide_evdw>  (213) 
-27.1502

>  <r_i_glide_ecoul>  (213) 
-1.30544

>  <r_i_glide_erotb>  (213) 
0.195744

>  <r_i_glide_esite>  (213) 
-0.0665789

>  <r_i_glide_emodel>  (213) 
-33.4631

>  <r_i_glide_energy>  (213) 
-28.4557

>  <r_i_glide_einternal>  (213) 
0.637484

>  <r_i_glide_intrahb_reward>  (213) 
-0

>  <i_i_glide_confnum>  (213) 
4

>  <i_i_glide_posenum>  (213) 
4

>  <r_i_glide_eff_state_penalty>  (213) 
0

>  <ligand_id>  (213) 
75

>  <original_smiles>  (213) 
O=C1c2ccccc2C(=O)N1CC=Cc1ccc2c(c1)OCO2

>  <smiles>  (213) 
[H]C(=C([H])C([H])([H])N1C(=O)c2c([H])c([H])c([H])c([H])c2C1=O)c1c([H])c([H])c2c(c1[H])OC([H])([H])O2

$$$$
75:1:2
     RDKit          3D

 36 39  0  0  1  0  0  0  0  0999 V2000
    5.0872   -0.2548    0.6113 O   0  0  0  0  0  0  0  0  0  0  0  0
    4.3849   -1.1733    0.1708 C   0  0  0  0  0  0  0  0  0  0  0  0
    4.1671   -1.4399   -1.2715 C   0  0  0  0  0  0  0  0  0  0  0  0
    4.6079   -0.7491   -2.4069 C   0  0  0  0  0  0  0  0  0  0  0  0
    4.1979   -1.2502   -3.6589 C   0  0  0  0  0  0  0  0  0  0  0  0
    3.3762   -2.3994   -3.7521 C   0  0  0  0  0  0  0  0  0  0  0  0
    2.9256   -3.0598   -2.5949 C   0  0  0  0  0  0  0  0  0  0  0  0
    3.3574   -2.5489   -1.3625 C   0  0  0  0  0  0  0  0  0  0  0  0
    3.0666   -2.9996    0.0192 C   0  0  0  0  0  0  0  0  0  0  0  0
    2.4067   -3.9967    0.3110 O   0  0  0  0  0  0  0  0  0  0  0  0
    3.7156   -2.1378    0.8619 N   0  0  0  0  0  0  0  0  0  0  0  0
    3.7879   -2.2453    2.3241 C   0  0  0  0  0  0  0  0  0  0  0  0
    2.9499   -1.1338    2.9943 C   0  0  0  0  0  0  0  0  0  0  0  0
    1.9254   -1.2319    3.8831 C   0  0  0  0  0  0  0  0  0  0  0  0
    1.2681   -2.4479    4.4100 C   0  0  0  0  0  0  0  0  0  0  0  0
    1.3267   -3.6825    3.7241 C   0  0  0  0  0  0  0  0  0  0  0  0
    0.8641   -4.8717    4.2982 C   0  0  0  0  0  0  0  0  0  0  0  0
    0.2057   -4.7836    5.5349 C   0  0  0  0  0  0  0  0  0  0  0  0
    0.0443   -3.5722    6.1831 C   0  0  0  0  0  0  0  0  0  0  0  0
    0.5811   -2.3695    5.6675 C   0  0  0  0  0  0  0  0  0  0  0  0
   -0.6751   -3.7710    7.3312 O   0  0  0  0  0  0  0  0  0  0  0  0
   -0.8321   -5.1644    7.4375 C   0  0  0  0  0  0  0  0  0  0  0  0
   -0.4087   -5.7549    6.2392 O   0  0  0  0  0  0  0  0  0  0  0  0
    5.2337    0.1275   -2.3022 H   0  0  0  0  0  0  0  0  0  0  0  0
    4.5414   -0.7514   -4.5501 H   0  0  0  0  0  0  0  0  0  0  0  0
    3.0749   -2.7744   -4.7179 H   0  0  0  0  0  0  0  0  0  0  0  0
    2.2686   -3.9187   -2.6515 H   0  0  0  0  0  0  0  0  0  0  0  0
    3.5968   -3.2683    2.6318 H   0  0  0  0  0  0  0  0  0  0  0  0
    4.8295   -2.0809    2.6385 H   0  0  0  0  0  0  0  0  0  0  0  0
    3.2182   -0.1165    2.7030 H   0  0  0  0  0  0  0  0  0  0  0  0
    1.5203   -0.2806    4.2468 H   0  0  0  0  0  0  0  0  0  0  0  0
    1.6890   -3.7802    2.7274 H   0  0  0  0  0  0  0  0  0  0  0  0
    0.9655   -5.8151    3.7895 H   0  0  0  0  0  0  0  0  0  0  0  0
    0.4712   -1.4335    6.2082 H   0  0  0  0  0  0  0  0  0  0  0  0
   -0.1448   -5.5315    8.1921 H   0  0  0  0  0  0  0  0  0  0  0  0
   -1.8592   -5.4494    7.6512 H   0  0  0  0  0  0  0  0  0  0  0  0
  1  2  2  0
  2 11  1  0
  2  3  1  0
  3  8  2  0
  3  4  1  0
  4  5  2  0
  4 24  1  0
  5  6  1  0
  5 25  1  0
  6  7  2  0
  6 26  1  0
  7  8  1  0
  7 27  1  0
  8  9  1  0
  9 10  2  0
  9 11  1  0
 11 12  1  0
 12 13  1  0
 12 28  1  0
 12 29  1  0
 13 14  2  3
 13 30  1  0
 14 15  1  0
 14 31  1  0
 15 20  1  0
 15 16  2  0
 16 17  1  0
 16 32  1  0
 17 18  2  0
 17 33  1  0
 18 23  1  0
 18 19  1  0
 19 20  2  0
 19 21  1  0
 20 34  1  0
 21 22  1  0
 22 23  1  0
 22 35  1  0
 22 36  1  0
M  END
>  <i_m_ct_stereo_status>  (214) 
1

>  <s_m_source_file>  (214) 
/var/tmp/pbs.5076255.sched01/tmp25xsusm8/82mdre8bl4.sdf

>  <i_m_source_file_index>  (214) 
23

>  <i_lp_mmshare_version>  (214) 
48012

>  <i_f3d_flags>  (214) 
0

>  <s_epik_input>  (214) 
W2NIXTFbY0hdW2NIXVtjSF1jKGMxMilDKD1PKU4oQzI9TylbQ0gyXS9bQ0hdPVtDSF0vYyhbY0hdW2NIXTMpW2NIXWMoYzM0KU9bQ0gyXU80

>  <s_epik_cmdline>  (214) 
J2VwaWtfcHl0aG9uJywgJy1waHQnLCAnMi4wJywgJy1waCcsICc3LjAnLCAnLXRuJywgJzgnLCAnLW1hJywgJzIwMCcsICctaW1hZScsICc8aW5maWxlLm1hZT4nLCAnLW9tYWUnLCAnPG91dGZpbGUubWFlPic=

>  <r_lp_tautomer_probability>  (214) 
1

>  <r_epik_Ionization_Penalty>  (214) 
3.38105e-14

>  <r_epik_Ionization_Penalty_Charging>  (214) 
0

>  <r_epik_Ionization_Penalty_Neutral>  (214) 
3.38105e-14

>  <r_epik_State_Penalty>  (214) 
-0

>  <r_epik_Charging_Adjusted_Penalty>  (214) 
0

>  <i_epik_Tot_Q>  (214) 
0

>  <i_epik_Tot_abs_Q>  (214) 
0

>  <s_epik_Chemistry_Notes>  (214) 
This compound contains an acetal/aminal-like group ( X-CH(R)-Y where X, Y are N, S, or O) that may be acid/base labile, releasing an aldehyde.

>  <s_lp_Force_Field>  (214) 
OPLS3e

>  <r_lp_Energy>  (214) 
30.1375

>  <b_lp_Chiralities_Consistent>  (214) 
1

>  <s_lp_Variant>  (214) 
75:0-2

>  <s_i_glide_gridfile>  (214) 
pfpi4k_grid

>  <i_i_glide_lignum>  (214) 
23

>  <i_i_glide_rotatable_bonds>  (214) 
3

>  <r_i_docking_score>  (214) 
-3.06711

>  <r_i_glide_ligand_efficiency>  (214) 
-0.133352

>  <r_i_glide_ligand_efficiency_sa>  (214) 
-0.379237

>  <r_i_glide_ligand_efficiency_ln>  (214) 
-0.741654

>  <r_i_glide_gscore>  (214) 
-3.06711

>  <r_i_glide_lipo>  (214) 
-0.394474

>  <r_i_glide_hbond>  (214) 
0

>  <r_i_glide_metal>  (214) 
-0

>  <r_i_glide_rewards>  (214) 
-1.42794

>  <r_i_glide_evdw>  (214) 
-25.4284

>  <r_i_glide_ecoul>  (214) 
-0.764948

>  <r_i_glide_erotb>  (214) 
0.195744

>  <r_i_glide_esite>  (214) 
-0.0542763

>  <r_i_glide_emodel>  (214) 
-30.271

>  <r_i_glide_energy>  (214) 
-26.1933

>  <r_i_glide_einternal>  (214) 
1.99961

>  <r_i_glide_intrahb_reward>  (214) 
-0

>  <i_i_glide_confnum>  (214) 
1

>  <i_i_glide_posenum>  (214) 
27

>  <r_i_glide_eff_state_penalty>  (214) 
0

>  <ligand_id>  (214) 
75

>  <original_smiles>  (214) 
O=C1c2ccccc2C(=O)N1CC=Cc1ccc2c(c1)OCO2

>  <smiles>  (214) 
[H]C(=C([H])C([H])([H])N1C(=O)c2c([H])c([H])c([H])c([H])c2C1=O)c1c([H])c([H])c2c(c1[H])OC([H])([H])O2

$$$$
77:0:0
     RDKit          3D

 70 76  0  0  1  0  0  0  0  0999 V2000
    8.9410   -2.7270   -0.2339 C   0  0  0  0  0  0  0  0  0  0  0  0
    7.4624   -2.7804   -0.6216 C   0  0  0  0  0  0  0  0  0  0  0  0
    7.2118   -2.2803   -1.6730 O   0  0  0  0  0  0  0  0  0  0  0  0
    6.3425   -3.3494    0.3232 C   0  0  1  0  0  0  0  0  0  0  0  0
    7.1092   -3.9337    1.5798 C   0  0  0  0  0  0  0  0  0  0  0  0
    7.5037   -5.3963    1.9749 C   0  0  2  0  0  0  0  0  0  0  0  0
    7.3164   -6.4625    0.9344 C   0  0  0  0  0  0  0  0  0  0  0  0
    5.9919   -7.1135    1.3812 C   0  0  1  0  0  0  0  0  0  0  0  0
    6.3880   -7.4022    2.8570 C   0  0  1  0  0  0  0  0  0  0  0  0
    7.4338   -8.4186    3.0354 N   0  0  0  0  0  0  0  0  0  0  0  0
    6.8350   -5.9800    3.2590 C   0  0  2  0  0  0  0  0  0  0  0  0
    5.5525   -5.2503    3.6938 C   0  0  0  0  0  0  0  0  0  0  0  0
    4.3521   -5.5794    2.8016 C   0  0  0  0  0  0  0  0  0  0  0  0
    4.6213   -6.2530    1.4099 C   0  0  2  0  0  0  0  0  0  0  0  0
    3.5964   -7.4386    1.3781 C   0  0  0  0  0  0  0  0  0  0  0  0
    4.2901   -5.2378    0.1911 C   0  0  1  0  0  0  0  0  0  0  0  0
    2.8130   -4.6518    0.0989 C   0  0  1  0  0  0  0  0  0  0  0  0
    1.9072   -5.0390    1.1189 O   0  0  0  0  0  0  0  0  0  0  0  0
    2.4864   -3.1747   -0.2553 C   0  0  1  0  0  0  0  0  0  0  0  0
    2.2328   -2.2837    0.8284 O   0  0  0  0  0  0  0  0  0  0  0  0
    3.2102   -2.5467   -1.4373 C   0  0  1  0  0  0  0  0  0  0  0  0
    2.4547   -1.9847   -2.6685 C   0  0  0  0  0  0  0  0  0  0  0  0
    3.8082   -2.1229   -3.2897 C   0  0  1  0  0  0  0  0  0  0  0  0
    3.8326   -2.0078   -4.6816 O   0  0  0  0  0  0  0  0  0  0  0  0
    4.6303   -1.1877   -2.4897 C   0  0  0  0  0  0  0  0  0  0  0  0
    4.2825   -1.5044   -1.2429 C   0  0  0  0  0  0  0  0  0  0  0  0
    4.8927   -1.0197    0.0449 C   0  0  0  0  0  0  0  0  0  0  0  0
    5.5837   -2.0947    0.9161 C   0  0  1  0  0  0  0  0  0  0  0  0
    4.7024   -2.5123    1.9414 O   0  0  0  0  0  0  0  0  0  0  0  0
    3.8129   -3.4597   -2.4999 C   0  0  1  0  0  0  0  0  0  0  0  0
    5.0937   -4.1338   -2.0820 C   0  0  0  0  0  0  0  0  0  0  0  0
    5.4020   -4.3616   -0.5216 C   0  0  1  0  0  0  0  0  0  0  0  0
    9.3513   -3.7454   -0.0757 H   0  0  0  0  0  0  0  0  0  0  0  0
    9.1283   -2.1078    0.6769 H   0  0  0  0  0  0  0  0  0  0  0  0
    9.3492   -2.2521   -1.0874 H   0  0  0  0  0  0  0  0  0  0  0  0
    8.0730   -3.5007    1.6791 H   0  0  0  0  0  0  0  0  0  0  0  0
    6.6966   -3.4338    2.4425 H   0  0  0  0  0  0  0  0  0  0  0  0
    8.5731   -5.4117    2.1821 H   0  0  0  0  0  0  0  0  0  0  0  0
    7.5066   -6.1775   -0.0823 H   0  0  0  0  0  0  0  0  0  0  0  0
    8.1276   -7.1918    1.0346 H   0  0  0  0  0  0  0  0  0  0  0  0
    5.8539   -8.0400    0.8292 H   0  0  0  0  0  0  0  0  0  0  0  0
    5.5444   -7.7480    3.4522 H   0  0  0  0  0  0  0  0  0  0  0  0
    8.2799   -8.1829    2.5267 H   0  0  0  0  0  0  0  0  0  0  0  0
    7.0876   -9.3144    2.7066 H   0  0  0  0  0  0  0  0  0  0  0  0
    7.5378   -5.9800    4.0914 H   0  0  0  0  0  0  0  0  0  0  0  0
    5.3099   -5.5649    4.7063 H   0  0  0  0  0  0  0  0  0  0  0  0
    5.6595   -4.1848    3.8380 H   0  0  0  0  0  0  0  0  0  0  0  0
    3.7403   -6.2469    3.4083 H   0  0  0  0  0  0  0  0  0  0  0  0
    3.7365   -4.6843    2.7250 H   0  0  0  0  0  0  0  0  0  0  0  0
    2.5842   -7.1966    1.6981 H   0  0  0  0  0  0  0  0  0  0  0  0
    3.8869   -8.2693    2.0226 H   0  0  0  0  0  0  0  0  0  0  0  0
    3.5483   -7.8460    0.3925 H   0  0  0  0  0  0  0  0  0  0  0  0
    4.2114   -5.9852   -0.5949 H   0  0  0  0  0  0  0  0  0  0  0  0
    2.3569   -5.1972   -0.7256 H   0  0  0  0  0  0  0  0  0  0  0  0
    2.1913   -4.6369    1.9299 H   0  0  0  0  0  0  0  0  0  0  0  0
    1.4632   -3.2537   -0.6193 H   0  0  0  0  0  0  0  0  0  0  0  0
    1.7368   -1.5581    0.4236 H   0  0  0  0  0  0  0  0  0  0  0  0
    1.6331   -2.5724   -3.0717 H   0  0  0  0  0  0  0  0  0  0  0  0
    2.1728   -0.9214   -2.5953 H   0  0  0  0  0  0  0  0  0  0  0  0
    2.9421   -2.1292   -4.9789 H   0  0  0  0  0  0  0  0  0  0  0  0
    5.4088   -0.5334   -2.8350 H   0  0  0  0  0  0  0  0  0  0  0  0
    5.6132   -0.2559   -0.2224 H   0  0  0  0  0  0  0  0  0  0  0  0
    4.1142   -0.4996    0.6070 H   0  0  0  0  0  0  0  0  0  0  0  0
    6.3144   -1.4900    1.4681 H   0  0  0  0  0  0  0  0  0  0  0  0
    4.1980   -1.7807    2.2444 H   0  0  0  0  0  0  0  0  0  0  0  0
    3.0760   -4.1577   -2.9135 H   0  0  0  0  0  0  0  0  0  0  0  0
    5.0027   -5.1298   -2.5270 H   0  0  0  0  0  0  0  0  0  0  0  0
    5.9050   -3.7217   -2.6527 H   0  0  0  0  0  0  0  0  0  0  0  0
    6.1160   -5.0963   -0.7664 H   0  0  0  0  0  0  0  0  0  0  0  0
    7.6569   -8.4884    4.0219 H   0  0  0  0  0  0  0  0  0  0  0  0
  1  2  1  0
  1 33  1  0
  1 34  1  0
  1 35  1  0
  2  3  2  0
  4  2  1  6
  4 28  1  0
  4 32  1  0
  4  5  1  0
  5  6  1  0
  5 36  1  0
  5 37  1  0
  6 11  1  0
  6  7  1  0
  6 38  1  1
  7  8  1  0
  7 39  1  0
  7 40  1  0
  8 14  1  0
  8  9  1  0
  8 41  1  6
  9 10  1  0
  9 11  1  0
  9 42  1  1
 10 43  1  0
 10 44  1  0
 10 70  1  0
 11 12  1  0
 11 45  1  1
 12 13  1  0
 12 46  1  0
 12 47  1  0
 13 14  1  0
 13 48  1  0
 13 49  1  0
 14 15  1  6
 14 16  1  0
 15 50  1  0
 15 51  1  0
 15 52  1  0
 16 32  1  0
 16 17  1  0
 16 53  1  6
 17 18  1  0
 17 19  1  0
 17 54  1  6
 18 55  1  0
 19 20  1  0
 19 21  1  0
 19 56  1  6
 20 57  1  0
 21 26  1  0
 21 30  1  0
 21 22  1  6
 22 23  1  0
 22 58  1  0
 22 59  1  0
 23 24  1  6
 23 25  1  0
 23 30  1  0
 24 60  1  0
 25 26  2  0
 25 61  1  0
 26 27  1  0
 27 28  1  0
 27 62  1  0
 27 63  1  0
 28 29  1  0
 28 64  1  1
 29 65  1  0
 30 31  1  0
 30 66  1  6
 31 32  1  0
 31 67  1  0
 31 68  1  0
 32 69  1  6
M  CHG  1  10   1
M  END
>  <i_m_ct_stereo_status>  (215) 
1

>  <s_m_source_file>  (215) 
/var/tmp/pbs.5076255.sched01/tmp25xsusm8/82mdre8bl4.sdf

>  <i_m_source_file_index>  (215) 
25

>  <i_lp_mmshare_version>  (215) 
48012

>  <i_f3d_flags>  (215) 
0

>  <s_epik_input>  (215) 
W0NAXTEyM0M0PVtDSF1bQ0BAXShbQ0gyXTIpKFtPSF0pW0NASF0zW0NIMl1bQ0BIXTVbQ0BAXShDKD1PKVtDSDNdKShbQ0BASF0oW0NIMl00KVtPSF0pW0NIMl1bQ0BIXTZbQ0BASF03W0NASF0oW05IMl0pW0NASF0oW0NIMl02KVtDQEBdKFtDSDNdKShbQ0gyXVtDSDJdNylbQ0BIXTVbQ0BASF0oW09IXSlbQ0BIXTFbT0hd

>  <s_epik_cmdline>  (215) 
J2VwaWtfcHl0aG9uJywgJy1waHQnLCAnMi4wJywgJy1waCcsICc3LjAnLCAnLXRuJywgJzgnLCAnLW1hJywgJzIwMCcsICctaW1hZScsICc8aW5maWxlLm1hZT4nLCAnLW9tYWUnLCAnPG91dGZpbGUubWFlPic=

>  <r_lp_tautomer_probability>  (215) 
1

>  <r_epik_Ionization_Penalty>  (215) 
0.000146687

>  <r_epik_Ionization_Penalty_Charging>  (215) 
0.000146071

>  <r_epik_Ionization_Penalty_Neutral>  (215) 
6.1638e-07

>  <r_epik_State_Penalty>  (215) 
-0

>  <r_epik_Charging_Adjusted_Penalty>  (215) 
0.000146071

>  <i_epik_Tot_Q>  (215) 
1

>  <i_epik_Tot_abs_Q>  (215) 
1

>  <s_lp_Force_Field>  (215) 
OPLS3e

>  <r_lp_Energy>  (215) 
185.302

>  <b_lp_Chiralities_Consistent>  (215) 
1

>  <s_lp_Variant>  (215) 
77:0-1

>  <s_i_glide_gridfile>  (215) 
pfpi4k_grid

>  <i_i_glide_lignum>  (215) 
25

>  <i_i_glide_rotatable_bonds>  (215) 
5

>  <r_i_docking_score>  (215) 
-4.27292

>  <r_i_glide_ligand_efficiency>  (215) 
-0.133529

>  <r_i_glide_ligand_efficiency_sa>  (215) 
-0.423927

>  <r_i_glide_ligand_efficiency_ln>  (215) 
-0.956823

>  <r_i_glide_gscore>  (215) 
-4.27292

>  <r_i_glide_lipo>  (215) 
-0.785659

>  <r_i_glide_hbond>  (215) 
-0.687407

>  <r_i_glide_metal>  (215) 
-0

>  <r_i_glide_rewards>  (215) 
-0.377839

>  <r_i_glide_evdw>  (215) 
-1.94572

>  <r_i_glide_ecoul>  (215) 
-15.4533

>  <r_i_glide_erotb>  (215) 
0

>  <r_i_glide_esite>  (215) 
-0.00673154

>  <r_i_glide_emodel>  (215) 
-1.22304

>  <r_i_glide_energy>  (215) 
-17.399

>  <r_i_glide_einternal>  (215) 
27.6972

>  <r_i_glide_intrahb_reward>  (215) 
-0

>  <i_i_glide_confnum>  (215) 
1

>  <i_i_glide_posenum>  (215) 
38

>  <r_i_glide_eff_state_penalty>  (215) 
0

>  <ligand_id>  (215) 
77

>  <original_smiles>  (215) 
CC(=O)C12CC3CC4C(N)C3CCC4(C)C3C(O)C(O)C45CC(O)(C=C4CC1O)C5CC32

>  <smiles>  (215) 
[H]OC1([H])C([H])(O[H])C23C4=C([H])C(O[H])(C2([H])[H])C3([H])C([H])([H])C2([H])C1([H])C1(C([H])([H])[H])C([H])([H])C([H])([H])C3([H])C([H])(C([H])([H])C1([H])C3([H])[N+]([H])([H])[H])C([H])([H])C2(C(=O)C([H])([H])[H])C([H])(O[H])C4([H])[H]

$$$$
77:0:1
     RDKit          3D

 70 76  0  0  1  0  0  0  0  0999 V2000
    8.5881   -3.6239   -1.2748 C   0  0  0  0  0  0  0  0  0  0  0  0
    7.5315   -2.7826   -0.5632 C   0  0  0  0  0  0  0  0  0  0  0  0
    7.6816   -1.5734   -0.5004 O   0  0  0  0  0  0  0  0  0  0  0  0
    6.4297   -3.3663    0.3116 C   0  0  1  0  0  0  0  0  0  0  0  0
    7.3383   -3.9802    1.4549 C   0  0  0  0  0  0  0  0  0  0  0  0
    7.7013   -5.4393    1.8309 C   0  0  2  0  0  0  0  0  0  0  0  0
    7.4937   -6.4441    0.7547 C   0  0  0  0  0  0  0  0  0  0  0  0
    6.1653   -7.1179    1.1768 C   0  0  1  0  0  0  0  0  0  0  0  0
    6.5826   -7.4991    2.6117 C   0  0  1  0  0  0  0  0  0  0  0  0
    7.6388   -8.5408    2.7254 N   0  0  0  0  0  0  0  0  0  0  0  0
    7.0207   -6.0955    3.0794 C   0  0  2  0  0  0  0  0  0  0  0  0
    5.7359   -5.4011    3.5562 C   0  0  0  0  0  0  0  0  0  0  0  0
    4.5185   -5.6960    2.6653 C   0  0  0  0  0  0  0  0  0  0  0  0
    4.7683   -6.3051    1.2338 C   0  0  2  0  0  0  0  0  0  0  0  0
    3.7686   -7.4902    1.1198 C   0  0  0  0  0  0  0  0  0  0  0  0
    4.4088   -5.2177    0.0857 C   0  0  1  0  0  0  0  0  0  0  0  0
    2.9292   -4.6110    0.0552 C   0  0  1  0  0  0  0  0  0  0  0  0
    2.0298   -5.0663    1.0376 O   0  0  0  0  0  0  0  0  0  0  0  0
    2.5768   -3.1268   -0.2570 C   0  0  1  0  0  0  0  0  0  0  0  0
    2.3192   -2.3276    0.8783 O   0  0  0  0  0  0  0  0  0  0  0  0
    3.3316   -2.4410   -1.3823 C   0  0  1  0  0  0  0  0  0  0  0  0
    2.5904   -1.8153   -2.5769 C   0  0  0  0  0  0  0  0  0  0  0  0
    3.9268   -1.9311   -3.2206 C   0  0  1  0  0  0  0  0  0  0  0  0
    4.0038   -1.7858   -4.6195 O   0  0  0  0  0  0  0  0  0  0  0  0
    4.7426   -1.0277   -2.3623 C   0  0  0  0  0  0  0  0  0  0  0  0
    4.3986   -1.4109   -1.1297 C   0  0  0  0  0  0  0  0  0  0  0  0
    4.9742   -0.9991    0.1913 C   0  0  0  0  0  0  0  0  0  0  0  0
    5.6642   -2.1349    1.0027 C   0  0  1  0  0  0  0  0  0  0  0  0
    4.7788   -2.6043    1.9793 O   0  0  0  0  0  0  0  0  0  0  0  0
    3.9509   -3.2871   -2.4761 C   0  0  1  0  0  0  0  0  0  0  0  0
    5.2688   -3.9402   -2.0964 C   0  0  0  0  0  0  0  0  0  0  0  0
    5.5099   -4.3069   -0.5612 C   0  0  1  0  0  0  0  0  0  0  0  0
    8.1311   -4.2576   -2.0398 H   0  0  0  0  0  0  0  0  0  0  0  0
    9.2165   -4.1629   -0.5713 H   0  0  0  0  0  0  0  0  0  0  0  0
    9.2051   -2.9638   -1.8409 H   0  0  0  0  0  0  0  0  0  0  0  0
    8.3124   -3.4971    1.4869 H   0  0  0  0  0  0  0  0  0  0  0  0
    6.9902   -3.5375    2.3541 H   0  0  0  0  0  0  0  0  0  0  0  0
    8.7742   -5.4454    2.0472 H   0  0  0  0  0  0  0  0  0  0  0  0
    7.6770   -6.1216   -0.2569 H   0  0  0  0  0  0  0  0  0  0  0  0
    8.3077   -7.1666    0.7975 H   0  0  0  0  0  0  0  0  0  0  0  0
    6.0286   -8.0150    0.5733 H   0  0  0  0  0  0  0  0  0  0  0  0
    5.7465   -7.9040    3.1811 H   0  0  0  0  0  0  0  0  0  0  0  0
    8.4869   -8.2820    2.2286 H   0  0  0  0  0  0  0  0  0  0  0  0
    7.2897   -9.4151    2.3519 H   0  0  0  0  0  0  0  0  0  0  0  0
    7.7191   -6.1420    3.9150 H   0  0  0  0  0  0  0  0  0  0  0  0
    5.4912   -5.7999    4.5359 H   0  0  0  0  0  0  0  0  0  0  0  0
    5.8339   -4.3405    3.7572 H   0  0  0  0  0  0  0  0  0  0  0  0
    3.9436   -6.4251    3.2271 H   0  0  0  0  0  0  0  0  0  0  0  0
    3.8669   -4.8301    2.6461 H   0  0  0  0  0  0  0  0  0  0  0  0
    2.7593   -7.2623    1.4579 H   0  0  0  0  0  0  0  0  0  0  0  0
    4.0602   -8.3472    1.7286 H   0  0  0  0  0  0  0  0  0  0  0  0
    3.7968   -7.8220    0.0937 H   0  0  0  0  0  0  0  0  0  0  0  0
    4.3325   -5.9194   -0.7398 H   0  0  0  0  0  0  0  0  0  0  0  0
    2.4636   -5.0845   -0.7950 H   0  0  0  0  0  0  0  0  0  0  0  0
    2.3247   -4.7162    1.8619 H   0  0  0  0  0  0  0  0  0  0  0  0
    1.5647   -3.2108   -0.6576 H   0  0  0  0  0  0  0  0  0  0  0  0
    1.7989   -1.5831    0.5677 H   0  0  0  0  0  0  0  0  0  0  0  0
    1.7554   -2.3882   -2.9979 H   0  0  0  0  0  0  0  0  0  0  0  0
    2.2849   -0.7729   -2.4111 H   0  0  0  0  0  0  0  0  0  0  0  0
    3.1110   -1.8523   -4.9386 H   0  0  0  0  0  0  0  0  0  0  0  0
    5.4597   -0.3063   -2.6799 H   0  0  0  0  0  0  0  0  0  0  0  0
    5.6807   -0.1973   -0.0029 H   0  0  0  0  0  0  0  0  0  0  0  0
    4.1957   -0.5283    0.7810 H   0  0  0  0  0  0  0  0  0  0  0  0
    6.3956   -1.5707    1.5901 H   0  0  0  0  0  0  0  0  0  0  0  0
    4.0579   -3.0134    1.5175 H   0  0  0  0  0  0  0  0  0  0  0  0
    3.2312   -3.9933   -2.9031 H   0  0  0  0  0  0  0  0  0  0  0  0
    5.2939   -4.8597   -2.6673 H   0  0  0  0  0  0  0  0  0  0  0  0
    6.0784   -3.3694   -2.5526 H   0  0  0  0  0  0  0  0  0  0  0  0
    6.2027   -5.0611   -0.7542 H   0  0  0  0  0  0  0  0  0  0  0  0
    7.8616   -8.6822    3.7016 H   0  0  0  0  0  0  0  0  0  0  0  0
  1  2  1  0
  1 33  1  0
  1 34  1  0
  1 35  1  0
  2  3  2  0
  4  2  1  6
  4 28  1  0
  4 32  1  0
  4  5  1  0
  5  6  1  0
  5 36  1  0
  5 37  1  0
  6 11  1  0
  6  7  1  0
  6 38  1  1
  7  8  1  0
  7 39  1  0
  7 40  1  0
  8 14  1  0
  8  9  1  0
  8 41  1  6
  9 10  1  0
  9 11  1  0
  9 42  1  1
 10 43  1  0
 10 44  1  0
 10 70  1  0
 11 12  1  0
 11 45  1  1
 12 13  1  0
 12 46  1  0
 12 47  1  0
 13 14  1  0
 13 48  1  0
 13 49  1  0
 14 15  1  6
 14 16  1  0
 15 50  1  0
 15 51  1  0
 15 52  1  0
 16 32  1  0
 16 17  1  0
 16 53  1  6
 17 18  1  0
 17 19  1  0
 17 54  1  6
 18 55  1  0
 19 20  1  0
 19 21  1  0
 19 56  1  6
 20 57  1  0
 21 26  1  0
 21 30  1  0
 21 22  1  6
 22 23  1  0
 22 58  1  0
 22 59  1  0
 23 24  1  6
 23 25  1  0
 23 30  1  0
 24 60  1  0
 25 26  2  0
 25 61  1  0
 26 27  1  0
 27 28  1  0
 27 62  1  0
 27 63  1  0
 28 29  1  0
 28 64  1  1
 29 65  1  0
 30 31  1  0
 30 66  1  6
 31 32  1  0
 31 67  1  0
 31 68  1  0
 32 69  1  6
M  CHG  1  10   1
M  END
>  <i_m_ct_stereo_status>  (216) 
1

>  <s_m_source_file>  (216) 
/var/tmp/pbs.5076255.sched01/tmp25xsusm8/82mdre8bl4.sdf

>  <i_m_source_file_index>  (216) 
25

>  <i_lp_mmshare_version>  (216) 
48012

>  <i_f3d_flags>  (216) 
0

>  <s_epik_input>  (216) 
W0NAXTEyM0M0PVtDSF1bQ0BAXShbQ0gyXTIpKFtPSF0pW0NASF0zW0NIMl1bQ0BIXTVbQ0BAXShDKD1PKVtDSDNdKShbQ0BASF0oW0NIMl00KVtPSF0pW0NIMl1bQ0BIXTZbQ0BASF03W0NASF0oW05IMl0pW0NASF0oW0NIMl02KVtDQEBdKFtDSDNdKShbQ0gyXVtDSDJdNylbQ0BIXTVbQ0BASF0oW09IXSlbQ0BIXTFbT0hd

>  <s_epik_cmdline>  (216) 
J2VwaWtfcHl0aG9uJywgJy1waHQnLCAnMi4wJywgJy1waCcsICc3LjAnLCAnLXRuJywgJzgnLCAnLW1hJywgJzIwMCcsICctaW1hZScsICc8aW5maWxlLm1hZT4nLCAnLW9tYWUnLCAnPG91dGZpbGUubWFlPic=

>  <r_lp_tautomer_probability>  (216) 
1

>  <r_epik_Ionization_Penalty>  (216) 
0.000146687

>  <r_epik_Ionization_Penalty_Charging>  (216) 
0.000146071

>  <r_epik_Ionization_Penalty_Neutral>  (216) 
6.1638e-07

>  <r_epik_State_Penalty>  (216) 
-0

>  <r_epik_Charging_Adjusted_Penalty>  (216) 
0.000146071

>  <i_epik_Tot_Q>  (216) 
1

>  <i_epik_Tot_abs_Q>  (216) 
1

>  <s_lp_Force_Field>  (216) 
OPLS3e

>  <r_lp_Energy>  (216) 
185.302

>  <b_lp_Chiralities_Consistent>  (216) 
1

>  <s_lp_Variant>  (216) 
77:0-1

>  <s_i_glide_gridfile>  (216) 
pfpi4k_grid

>  <i_i_glide_lignum>  (216) 
25

>  <i_i_glide_rotatable_bonds>  (216) 
5

>  <r_i_docking_score>  (216) 
-3.61386

>  <r_i_glide_ligand_efficiency>  (216) 
-0.112933

>  <r_i_glide_ligand_efficiency_sa>  (216) 
-0.358541

>  <r_i_glide_ligand_efficiency_ln>  (216) 
-0.809243

>  <r_i_glide_gscore>  (216) 
-3.61386

>  <r_i_glide_lipo>  (216) 
-0.825633

>  <r_i_glide_hbond>  (216) 
-0.600887

>  <r_i_glide_metal>  (216) 
-0

>  <r_i_glide_rewards>  (216) 
-0.377839

>  <r_i_glide_evdw>  (216) 
10.3767

>  <r_i_glide_ecoul>  (216) 
-15.4748

>  <r_i_glide_erotb>  (216) 
0

>  <r_i_glide_esite>  (216) 
-0.00712168

>  <r_i_glide_emodel>  (216) 
-2.53217

>  <r_i_glide_energy>  (216) 
-5.0981

>  <r_i_glide_einternal>  (216) 
1.02339

>  <r_i_glide_intrahb_reward>  (216) 
-0

>  <i_i_glide_confnum>  (216) 
1

>  <i_i_glide_posenum>  (216) 
1

>  <r_i_glide_eff_state_penalty>  (216) 
0

>  <ligand_id>  (216) 
77

>  <original_smiles>  (216) 
CC(=O)C12CC3CC4C(N)C3CCC4(C)C3C(O)C(O)C45CC(O)(C=C4CC1O)C5CC32

>  <smiles>  (216) 
[H]OC1([H])C([H])(O[H])C23C4=C([H])C(O[H])(C2([H])[H])C3([H])C([H])([H])C2([H])C1([H])C1(C([H])([H])[H])C([H])([H])C([H])([H])C3([H])C([H])(C([H])([H])C1([H])C3([H])[N+]([H])([H])[H])C([H])([H])C2(C(=O)C([H])([H])[H])C([H])(O[H])C4([H])[H]

$$$$
78:0:0
     RDKit          3D

 66 71  0  0  1  0  0  0  0  0999 V2000
    0.8297  -11.0678    4.5877 C   0  0  0  0  0  0  0  0  0  0  0  0
    0.8093   -9.7586    4.9075 C   0  0  0  0  0  0  0  0  0  0  0  0
    0.2868   -9.2421    6.2540 C   0  0  1  0  0  0  0  0  0  0  0  0
   -0.1877  -10.2492    7.1346 O   0  0  0  0  0  0  0  0  0  0  0  0
    1.3664   -8.4060    6.9539 C   0  0  0  0  0  0  0  0  0  0  0  0
    1.8736   -7.2801    6.0351 C   0  0  0  0  0  0  0  0  0  0  0  0
    2.4285   -7.7766    4.6664 C   0  0  1  0  0  0  0  0  0  0  0  0
    2.8158   -6.4876    3.8471 C   0  0  0  0  0  0  0  0  0  0  0  0
    3.8914   -6.6272    2.7117 C   0  0  1  0  0  0  0  0  0  0  0  0
    4.5533   -5.2642    2.3198 C   0  0  2  0  0  0  0  0  0  0  0  0
    3.5041   -4.1681    2.0178 C   0  0  0  0  0  0  0  0  0  0  0  0
    4.0277   -2.9482    1.2681 C   0  0  0  0  0  0  0  0  0  0  0  0
    3.0627   -1.7713    1.2643 C   0  0  0  0  0  0  0  0  0  0  0  0
    5.2450   -2.9258    0.6807 C   0  0  0  0  0  0  0  0  0  0  0  0
    5.8170   -1.7194   -0.0520 C   0  0  0  0  0  0  0  0  0  0  0  0
    6.1672   -4.1373    0.6826 C   0  0  0  0  0  0  0  0  0  0  0  0
    5.4941   -5.4577    1.1086 C   0  0  1  0  0  0  0  0  0  0  0  0
    6.5547   -6.5441    1.3777 C   0  0  0  0  0  0  0  0  0  0  0  0
    5.9097   -7.8801    1.8076 C   0  0  1  0  0  0  0  0  0  0  0  0
    6.9210   -8.8467    2.0248 O   0  0  0  0  0  0  0  0  0  0  0  0
    4.9516   -7.7274    3.0266 C   0  0  1  0  0  0  0  0  0  0  0  0
    5.6465   -7.4135    4.3694 C   0  0  0  0  0  0  0  0  0  0  0  0
    6.7114   -6.8062    4.4810 O   0  0  0  0  0  0  0  0  0  0  0  0
    4.8511   -7.9690    5.4568 C   0  0  0  0  0  0  0  0  0  0  0  0
    5.2312   -7.9686    6.7430 C   0  0  0  0  0  0  0  0  0  0  0  0
    3.6814   -8.6931    4.8267 C   0  0  2  0  0  0  0  0  0  0  0  0
    4.2133   -9.0378    3.4221 C   0  0  1  0  0  0  0  0  0  0  0  0
    3.1541   -9.6485    2.4628 C   0  0  0  0  0  0  0  0  0  0  0  0
    1.7300   -9.0578    2.5552 C   0  0  0  0  0  0  0  0  0  0  0  0
    1.3095   -8.6276    3.9817 C   0  0  1  0  0  0  0  0  0  0  0  0
    1.1915  -11.4327    3.6396 H   0  0  0  0  0  0  0  0  0  0  0  0
    0.4673  -11.8163    5.2765 H   0  0  0  0  0  0  0  0  0  0  0  0
   -0.5693   -8.6018    6.0414 H   0  0  0  0  0  0  0  0  0  0  0  0
    0.4941  -10.9167    7.2762 H   0  0  0  0  0  0  0  0  0  0  0  0
    0.9705   -7.9676    7.8692 H   0  0  0  0  0  0  0  0  0  0  0  0
    2.2003   -9.0415    7.2548 H   0  0  0  0  0  0  0  0  0  0  0  0
    1.0453   -6.5927    5.8490 H   0  0  0  0  0  0  0  0  0  0  0  0
    2.6283   -6.6967    6.5628 H   0  0  0  0  0  0  0  0  0  0  0  0
    1.9109   -6.0656    3.4084 H   0  0  0  0  0  0  0  0  0  0  0  0
    3.1710   -5.7247    4.5352 H   0  0  0  0  0  0  0  0  0  0  0  0
    3.3796   -6.9493    1.8117 H   0  0  0  0  0  0  0  0  0  0  0  0
    5.1577   -4.9092    3.1535 H   0  0  0  0  0  0  0  0  0  0  0  0
    2.6940   -4.5878    1.4197 H   0  0  0  0  0  0  0  0  0  0  0  0
    3.0631   -3.8265    2.9541 H   0  0  0  0  0  0  0  0  0  0  0  0
    2.0361   -2.1226    1.1636 H   0  0  0  0  0  0  0  0  0  0  0  0
    3.2325   -1.0875    0.4331 H   0  0  0  0  0  0  0  0  0  0  0  0
    3.1395   -1.2086    2.1937 H   0  0  0  0  0  0  0  0  0  0  0  0
    6.8865   -1.6390    0.1361 H   0  0  0  0  0  0  0  0  0  0  0  0
    5.3718   -0.7794    0.2682 H   0  0  0  0  0  0  0  0  0  0  0  0
    5.6658   -1.8232   -1.1253 H   0  0  0  0  0  0  0  0  0  0  0  0
    6.5869   -4.2614   -0.3170 H   0  0  0  0  0  0  0  0  0  0  0  0
    7.0001   -3.9040    1.3507 H   0  0  0  0  0  0  0  0  0  0  0  0
    4.8755   -5.7914    0.2714 H   0  0  0  0  0  0  0  0  0  0  0  0
    7.1540   -6.6922    0.4792 H   0  0  0  0  0  0  0  0  0  0  0  0
    7.2592   -6.1944    2.1324 H   0  0  0  0  0  0  0  0  0  0  0  0
    5.3361   -8.2517    0.9586 H   0  0  0  0  0  0  0  0  0  0  0  0
    6.5166   -9.6816    2.2078 H   0  0  0  0  0  0  0  0  0  0  0  0
    6.1427   -7.4865    7.0596 H   0  0  0  0  0  0  0  0  0  0  0  0
    4.6416   -8.4583    7.4997 H   0  0  0  0  0  0  0  0  0  0  0  0
    3.4604   -9.5990    5.3911 H   0  0  0  0  0  0  0  0  0  0  0  0
    4.9678   -9.8185    3.5509 H   0  0  0  0  0  0  0  0  0  0  0  0
    3.5054   -9.5939    1.4313 H   0  0  0  0  0  0  0  0  0  0  0  0
    3.1001  -10.7194    2.6683 H   0  0  0  0  0  0  0  0  0  0  0  0
    1.6597   -8.1919    1.9030 H   0  0  0  0  0  0  0  0  0  0  0  0
    1.0106   -9.7578    2.1192 H   0  0  0  0  0  0  0  0  0  0  0  0
    0.4324   -7.9963    3.8445 H   0  0  0  0  0  0  0  0  0  0  0  0
  1  2  2  0
  1 31  1  0
  1 32  1  0
  2 30  1  0
  2  3  1  0
  3  4  1  0
  3  5  1  0
  3 33  1  6
  4 34  1  0
  5  6  1  0
  5 35  1  0
  5 36  1  0
  7  6  1  1
  6 37  1  0
  6 38  1  0
  7 26  1  0
  7 30  1  0
  7  8  1  0
  8  9  1  0
  8 39  1  0
  8 40  1  0
  9 21  1  0
  9 10  1  0
  9 41  1  6
 10 17  1  0
 10 11  1  0
 10 42  1  1
 11 12  1  0
 11 43  1  0
 11 44  1  0
 12 13  1  0
 12 14  2  0
 13 45  1  0
 13 46  1  0
 13 47  1  0
 14 15  1  0
 14 16  1  0
 15 48  1  0
 15 49  1  0
 15 50  1  0
 16 17  1  0
 16 51  1  0
 16 52  1  0
 17 18  1  0
 17 53  1  6
 18 19  1  0
 18 54  1  0
 18 55  1  0
 19 20  1  0
 19 21  1  0
 19 56  1  6
 20 57  1  0
 21 27  1  0
 21 22  1  1
 22 23  2  0
 22 24  1  0
 24 25  2  0
 24 26  1  0
 25 58  1  0
 25 59  1  0
 26 27  1  0
 26 60  1  1
 27 28  1  0
 27 61  1  1
 28 29  1  0
 28 62  1  0
 28 63  1  0
 29 30  1  0
 29 64  1  0
 29 65  1  0
 30 66  1  6
M  END
>  <i_m_ct_stereo_status>  (217) 
1

>  <s_m_source_file>  (217) 
/var/tmp/pbs.5076255.sched01/tmp25xsusm8/82mdre8bl4.sdf

>  <i_m_source_file_index>  (217) 
26

>  <i_lp_mmshare_version>  (217) 
48012

>  <i_f3d_flags>  (217) 
0

>  <s_epik_input>  (217) 
W0NIMl0xW0NIMl1bQ0BIXShbT0hdKUMoPVtDSDJdKVtDQEBIXTJbQ0gyXVtDSDJdW0NIXShbQ0hdM1tDQF0xMjQpW0NAXTUoQyg9TylDMz1bQ0gyXSlbQ0BASF0oW0NIMl00KVtDQEhdNltDQEhdKFtDSDJdW0NASF01W09IXSlbQ0gyXUMoW0NIM10pPUMoW0NIMl02KVtDSDNd

>  <s_epik_cmdline>  (217) 
J2VwaWtfcHl0aG9uJywgJy1waHQnLCAnMi4wJywgJy1waCcsICc3LjAnLCAnLXRuJywgJzgnLCAnLW1hJywgJzIwMCcsICctaW1hZScsICc8aW5maWxlLm1hZT4nLCAnLW9tYWUnLCAnPG91dGZpbGUubWFlPic=

>  <r_lp_tautomer_probability>  (217) 
1

>  <r_epik_Ionization_Penalty>  (217) 
2.53055e-07

>  <r_epik_Ionization_Penalty_Charging>  (217) 
0

>  <r_epik_Ionization_Penalty_Neutral>  (217) 
2.53055e-07

>  <r_epik_State_Penalty>  (217) 
-0

>  <r_epik_Charging_Adjusted_Penalty>  (217) 
0

>  <i_epik_Tot_Q>  (217) 
0

>  <i_epik_Tot_abs_Q>  (217) 
0

>  <s_lp_Force_Field>  (217) 
OPLS3e

>  <r_lp_Energy>  (217) 
47.52

>  <b_lp_Chiralities_Consistent>  (217) 
1

>  <s_lp_Variant>  (217) 
78:0-1

>  <s_i_glide_gridfile>  (217) 
pfpi4k_grid

>  <i_i_glide_lignum>  (217) 
26

>  <i_i_glide_rotatable_bonds>  (217) 
2

>  <r_i_docking_score>  (217) 
-3.19056

>  <r_i_glide_ligand_efficiency>  (217) 
-0.106352

>  <r_i_glide_ligand_efficiency_sa>  (217) 
-0.33046

>  <r_i_glide_ligand_efficiency_ln>  (217) 
-0.724929

>  <r_i_glide_gscore>  (217) 
-3.19056

>  <r_i_glide_lipo>  (217) 
-0.410125

>  <r_i_glide_hbond>  (217) 
-0.16

>  <r_i_glide_metal>  (217) 
-0

>  <r_i_glide_rewards>  (217) 
-0.623366

>  <r_i_glide_evdw>  (217) 
-24.7651

>  <r_i_glide_ecoul>  (217) 
-5.05875

>  <r_i_glide_erotb>  (217) 
0

>  <r_i_glide_esite>  (217) 
0

>  <r_i_glide_emodel>  (217) 
-35.8201

>  <r_i_glide_energy>  (217) 
-29.8238

>  <r_i_glide_einternal>  (217) 
0.423829

>  <r_i_glide_intrahb_reward>  (217) 
-0

>  <i_i_glide_confnum>  (217) 
1

>  <i_i_glide_posenum>  (217) 
33

>  <r_i_glide_eff_state_penalty>  (217) 
0

>  <ligand_id>  (217) 
78

>  <original_smiles>  (217) 
C=C1C(O)CCC23CC4C5CC(C)=C(C)CC5CC(O)C45C(=O)C(=C)C2C5CCC13

>  <smiles>  (217) 
[H]OC1([H])C(=C([H])[H])C2([H])C([H])([H])C([H])([H])C3([H])C4([H])C(=C([H])[H])C(=O)C35C([H])(O[H])C([H])([H])C3([H])C([H])([H])C(C([H])([H])[H])=C(C([H])([H])[H])C([H])([H])C3([H])C5([H])C([H])([H])C24C([H])([H])C1([H])[H]

$$$$
78:0:1
     RDKit          3D

 66 71  0  0  1  0  0  0  0  0999 V2000
    4.6294    0.3412    4.8832 C   0  0  0  0  0  0  0  0  0  0  0  0
    3.4614   -0.0848    4.3565 C   0  0  0  0  0  0  0  0  0  0  0  0
    2.5238    0.8462    3.5910 C   0  0  1  0  0  0  0  0  0  0  0  0
    3.0131    2.1749    3.4902 O   0  0  0  0  0  0  0  0  0  0  0  0
    2.2339    0.2909    2.1919 C   0  0  0  0  0  0  0  0  0  0  0  0
    1.7192   -1.1595    2.2774 C   0  0  0  0  0  0  0  0  0  0  0  0
    2.6727   -2.1345    3.0355 C   0  0  1  0  0  0  0  0  0  0  0  0
    1.9480   -3.5279    3.0734 C   0  0  0  0  0  0  0  0  0  0  0  0
    2.8173   -4.8213    3.2534 C   0  0  1  0  0  0  0  0  0  0  0  0
    2.0778   -6.1225    2.7865 C   0  0  2  0  0  0  0  0  0  0  0  0
    0.6830   -6.2684    3.4380 C   0  0  0  0  0  0  0  0  0  0  0  0
    0.0584   -7.6557    3.3644 C   0  0  0  0  0  0  0  0  0  0  0  0
   -1.4234   -7.6843    3.7119 C   0  0  0  0  0  0  0  0  0  0  0  0
    0.7629   -8.7411    2.9840 C   0  0  0  0  0  0  0  0  0  0  0  0
    0.1824  -10.1414    2.8805 C   0  0  0  0  0  0  0  0  0  0  0  0
    2.2498   -8.6747    2.6693 C   0  0  0  0  0  0  0  0  0  0  0  0
    2.9418   -7.3645    3.0977 C   0  0  1  0  0  0  0  0  0  0  0  0
    4.3457   -7.2591    2.4706 C   0  0  0  0  0  0  0  0  0  0  0  0
    5.0577   -5.9523    2.8798 C   0  0  1  0  0  0  0  0  0  0  0  0
    6.3479   -5.9129    2.2809 O   0  0  0  0  0  0  0  0  0  0  0  0
    4.2154   -4.6898    2.5687 C   0  0  1  0  0  0  0  0  0  0  0  0
    4.0584   -4.3282    1.0826 C   0  0  0  0  0  0  0  0  0  0  0  0
    4.0706   -5.1733    0.1758 O   0  0  0  0  0  0  0  0  0  0  0  0
    3.9104   -2.8946    0.9277 C   0  0  0  0  0  0  0  0  0  0  0  0
    3.8686   -2.2608   -0.2494 C   0  0  0  0  0  0  0  0  0  0  0  0
    4.0537   -2.2886    2.3101 C   0  0  2  0  0  0  0  0  0  0  0  0
    4.8556   -3.3557    3.0758 C   0  0  1  0  0  0  0  0  0  0  0  0
    5.0078   -3.0859    4.5947 C   0  0  0  0  0  0  0  0  0  0  0  0
    3.7690   -2.5108    5.3080 C   0  0  0  0  0  0  0  0  0  0  0  0
    2.9397   -1.5323    4.4453 C   0  0  1  0  0  0  0  0  0  0  0  0
    5.2957   -0.3103    5.4248 H   0  0  0  0  0  0  0  0  0  0  0  0
    4.9487    1.3683    4.7852 H   0  0  0  0  0  0  0  0  0  0  0  0
    1.5866    0.8919    4.1487 H   0  0  0  0  0  0  0  0  0  0  0  0
    3.7162    2.2134    2.8716 H   0  0  0  0  0  0  0  0  0  0  0  0
    1.4898    0.9026    1.6831 H   0  0  0  0  0  0  0  0  0  0  0  0
    3.1324    0.3247    1.5738 H   0  0  0  0  0  0  0  0  0  0  0  0
    0.7514   -1.1462    2.7895 H   0  0  0  0  0  0  0  0  0  0  0  0
    1.5152   -1.5231    1.2780 H   0  0  0  0  0  0  0  0  0  0  0  0
    1.1995   -3.5102    3.8789 H   0  0  0  0  0  0  0  0  0  0  0  0
    1.3947   -3.6501    2.1716 H   0  0  0  0  0  0  0  0  0  0  0  0
    2.9864   -4.9689    4.3019 H   0  0  0  0  0  0  0  0  0  0  0  0
    1.9294   -6.0913    1.7067 H   0  0  0  0  0  0  0  0  0  0  0  0
    0.7371   -5.9981    4.4958 H   0  0  0  0  0  0  0  0  0  0  0  0
    0.0134   -5.5646    2.9626 H   0  0  0  0  0  0  0  0  0  0  0  0
   -1.6344   -6.9963    4.5300 H   0  0  0  0  0  0  0  0  0  0  0  0
   -1.7544   -8.6689    4.0487 H   0  0  0  0  0  0  0  0  0  0  0  0
   -2.0311   -7.3992    2.8563 H   0  0  0  0  0  0  0  0  0  0  0  0
    0.6224  -10.6629    2.0362 H   0  0  0  0  0  0  0  0  0  0  0  0
   -0.8952  -10.1406    2.7149 H   0  0  0  0  0  0  0  0  0  0  0  0
    0.3890  -10.7157    3.7822 H   0  0  0  0  0  0  0  0  0  0  0  0
    2.7512   -9.5116    3.1565 H   0  0  0  0  0  0  0  0  0  0  0  0
    2.3521   -8.8252    1.5893 H   0  0  0  0  0  0  0  0  0  0  0  0
    3.0591   -7.4047    4.1850 H   0  0  0  0  0  0  0  0  0  0  0  0
    4.9409   -8.1163    2.7845 H   0  0  0  0  0  0  0  0  0  0  0  0
    4.2680   -7.3394    1.3880 H   0  0  0  0  0  0  0  0  0  0  0  0
    5.2350   -6.0053    3.9530 H   0  0  0  0  0  0  0  0  0  0  0  0
    6.8309   -6.6701    2.5325 H   0  0  0  0  0  0  0  0  0  0  0  0
    3.8630   -2.8078   -1.1796 H   0  0  0  0  0  0  0  0  0  0  0  0
    3.8289   -1.1872   -0.3103 H   0  0  0  0  0  0  0  0  0  0  0  0
    4.5932   -1.3495    2.2506 H   0  0  0  0  0  0  0  0  0  0  0  0
    5.8779   -3.3256    2.6710 H   0  0  0  0  0  0  0  0  0  0  0  0
    5.3373   -3.9962    5.1042 H   0  0  0  0  0  0  0  0  0  0  0  0
    5.8143   -2.3730    4.7232 H   0  0  0  0  0  0  0  0  0  0  0  0
    3.1209   -3.3187    5.6392 H   0  0  0  0  0  0  0  0  0  0  0  0
    4.0796   -2.0385    6.2504 H   0  0  0  0  0  0  0  0  0  0  0  0
    1.9826   -1.4368    4.9617 H   0  0  0  0  0  0  0  0  0  0  0  0
  1  2  2  0
  1 31  1  0
  1 32  1  0
  2 30  1  0
  2  3  1  0
  3  4  1  0
  3  5  1  0
  3 33  1  1
  4 34  1  0
  5  6  1  0
  5 35  1  0
  5 36  1  0
  7  6  1  6
  6 37  1  0
  6 38  1  0
  7 26  1  0
  7 30  1  0
  7  8  1  0
  8  9  1  0
  8 39  1  0
  8 40  1  0
  9 21  1  0
  9 10  1  0
  9 41  1  1
 10 17  1  0
 10 11  1  0
 10 42  1  6
 11 12  1  0
 11 43  1  0
 11 44  1  0
 12 13  1  0
 12 14  2  0
 13 45  1  0
 13 46  1  0
 13 47  1  0
 14 15  1  0
 14 16  1  0
 15 48  1  0
 15 49  1  0
 15 50  1  0
 16 17  1  0
 16 51  1  0
 16 52  1  0
 17 18  1  0
 17 53  1  1
 18 19  1  0
 18 54  1  0
 18 55  1  0
 19 20  1  0
 19 21  1  0
 19 56  1  1
 20 57  1  0
 21 27  1  0
 21 22  1  6
 22 23  2  0
 22 24  1  0
 24 25  2  0
 24 26  1  0
 25 58  1  0
 25 59  1  0
 26 27  1  0
 26 60  1  6
 27 28  1  0
 27 61  1  6
 28 29  1  0
 28 62  1  0
 28 63  1  0
 29 30  1  0
 29 64  1  0
 29 65  1  0
 30 66  1  1
M  END
>  <i_m_ct_stereo_status>  (218) 
1

>  <s_m_source_file>  (218) 
/var/tmp/pbs.5076255.sched01/tmp25xsusm8/82mdre8bl4.sdf

>  <i_m_source_file_index>  (218) 
26

>  <i_lp_mmshare_version>  (218) 
48012

>  <i_f3d_flags>  (218) 
0

>  <s_epik_input>  (218) 
W0NIMl0xW0NIMl1bQ0BIXShbT0hdKUMoPVtDSDJdKVtDQEBIXTJbQ0gyXVtDSDJdW0NIXShbQ0hdM1tDQF0xMjQpW0NAXTUoQyg9TylDMz1bQ0gyXSlbQ0BASF0oW0NIMl00KVtDQEhdNltDQEhdKFtDSDJdW0NASF01W09IXSlbQ0gyXUMoW0NIM10pPUMoW0NIMl02KVtDSDNd

>  <s_epik_cmdline>  (218) 
J2VwaWtfcHl0aG9uJywgJy1waHQnLCAnMi4wJywgJy1waCcsICc3LjAnLCAnLXRuJywgJzgnLCAnLW1hJywgJzIwMCcsICctaW1hZScsICc8aW5maWxlLm1hZT4nLCAnLW9tYWUnLCAnPG91dGZpbGUubWFlPic=

>  <r_lp_tautomer_probability>  (218) 
1

>  <r_epik_Ionization_Penalty>  (218) 
2.53055e-07

>  <r_epik_Ionization_Penalty_Charging>  (218) 
0

>  <r_epik_Ionization_Penalty_Neutral>  (218) 
2.53055e-07

>  <r_epik_State_Penalty>  (218) 
-0

>  <r_epik_Charging_Adjusted_Penalty>  (218) 
0

>  <i_epik_Tot_Q>  (218) 
0

>  <i_epik_Tot_abs_Q>  (218) 
0

>  <s_lp_Force_Field>  (218) 
OPLS3e

>  <r_lp_Energy>  (218) 
47.52

>  <b_lp_Chiralities_Consistent>  (218) 
1

>  <s_lp_Variant>  (218) 
78:0-1

>  <s_i_glide_gridfile>  (218) 
pfpi4k_grid

>  <i_i_glide_lignum>  (218) 
26

>  <i_i_glide_rotatable_bonds>  (218) 
2

>  <r_i_docking_score>  (218) 
-2.81768

>  <r_i_glide_ligand_efficiency>  (218) 
-0.0939226

>  <r_i_glide_ligand_efficiency_sa>  (218) 
-0.291839

>  <r_i_glide_ligand_efficiency_ln>  (218) 
-0.640207

>  <r_i_glide_gscore>  (218) 
-2.81768

>  <r_i_glide_lipo>  (218) 
-0.148447

>  <r_i_glide_hbond>  (218) 
-0.32

>  <r_i_glide_metal>  (218) 
-0

>  <r_i_glide_rewards>  (218) 
-0.648508

>  <r_i_glide_evdw>  (218) 
-28.1271

>  <r_i_glide_ecoul>  (218) 
-1.96247

>  <r_i_glide_erotb>  (218) 
0

>  <r_i_glide_esite>  (218) 
0

>  <r_i_glide_emodel>  (218) 
-35.3932

>  <r_i_glide_energy>  (218) 
-30.0895

>  <r_i_glide_einternal>  (218) 
0.345218

>  <r_i_glide_intrahb_reward>  (218) 
-0

>  <i_i_glide_confnum>  (218) 
1

>  <i_i_glide_posenum>  (218) 
32

>  <r_i_glide_eff_state_penalty>  (218) 
0

>  <ligand_id>  (218) 
78

>  <original_smiles>  (218) 
C=C1C(O)CCC23CC4C5CC(C)=C(C)CC5CC(O)C45C(=O)C(=C)C2C5CCC13

>  <smiles>  (218) 
[H]OC1([H])C(=C([H])[H])C2([H])C([H])([H])C([H])([H])C3([H])C4([H])C(=C([H])[H])C(=O)C35C([H])(O[H])C([H])([H])C3([H])C([H])([H])C(C([H])([H])[H])=C(C([H])([H])[H])C([H])([H])C3([H])C5([H])C([H])([H])C24C([H])([H])C1([H])[H]

$$$$
78:0:2
     RDKit          3D

 66 71  0  0  1  0  0  0  0  0999 V2000
    4.5811    0.3809    4.8948 C   0  0  0  0  0  0  0  0  0  0  0  0
    3.4209   -0.0563    4.3628 C   0  0  0  0  0  0  0  0  0  0  0  0
    2.4756    0.8621    3.5869 C   0  0  1  0  0  0  0  0  0  0  0  0
    2.9477    2.1952    3.4820 O   0  0  0  0  0  0  0  0  0  0  0  0
    2.2005    0.2934    2.1888 C   0  0  0  0  0  0  0  0  0  0  0  0
    1.6960   -1.1567    2.2806 C   0  0  0  0  0  0  0  0  0  0  0  0
    2.6555   -2.1180    3.0421 C   0  0  1  0  0  0  0  0  0  0  0  0
    1.9414   -3.5198    3.1066 C   0  0  0  0  0  0  0  0  0  0  0  0
    2.8146   -4.8069    3.2723 C   0  0  1  0  0  0  0  0  0  0  0  0
    2.0910   -6.1179    2.8149 C   0  0  2  0  0  0  0  0  0  0  0  0
    0.6932   -6.2680    3.4581 C   0  0  0  0  0  0  0  0  0  0  0  0
    0.0747   -7.6602    3.3802 C   0  0  0  0  0  0  0  0  0  0  0  0
   -1.4042   -7.7022    3.7315 C   0  0  0  0  0  0  0  0  0  0  0  0
    0.7964   -8.7453    3.0253 C   0  0  0  0  0  0  0  0  0  0  0  0
    0.2162  -10.1487    2.9164 C   0  0  0  0  0  0  0  0  0  0  0  0
    2.2827   -8.6680    2.7114 C   0  0  0  0  0  0  0  0  0  0  0  0
    2.9608   -7.3495    3.1396 C   0  0  1  0  0  0  0  0  0  0  0  0
    4.3674   -7.2349    2.5187 C   0  0  0  0  0  0  0  0  0  0  0  0
    5.0698   -5.9203    2.9183 C   0  0  1  0  0  0  0  0  0  0  0  0
    6.3541   -5.8661    2.3203 O   0  0  0  0  0  0  0  0  0  0  0  0
    4.2183   -4.6511    2.6151 C   0  0  1  0  0  0  0  0  0  0  0  0
    4.0657   -4.3239    1.1136 C   0  0  0  0  0  0  0  0  0  0  0  0
    4.1301   -5.1598    0.2145 O   0  0  0  0  0  0  0  0  0  0  0  0
    3.9124   -2.8819    0.9554 C   0  0  0  0  0  0  0  0  0  0  0  0
    3.8655   -2.2556   -0.2316 C   0  0  0  0  0  0  0  0  0  0  0  0
    4.0329   -2.2707    2.3337 C   0  0  2  0  0  0  0  0  0  0  0  0
    4.8556   -3.3225    3.1024 C   0  0  1  0  0  0  0  0  0  0  0  0
    4.9924   -3.0444    4.6253 C   0  0  0  0  0  0  0  0  0  0  0  0
    3.7447   -2.4714    5.3332 C   0  0  0  0  0  0  0  0  0  0  0  0
    2.9077   -1.5104    4.4581 C   0  0  1  0  0  0  0  0  0  0  0  0
    5.2484   -0.2626    5.4420 H   0  0  0  0  0  0  0  0  0  0  0  0
    4.8923    1.4099    4.7932 H   0  0  0  0  0  0  0  0  0  0  0  0
    1.5361    0.9022    4.1394 H   0  0  0  0  0  0  0  0  0  0  0  0
    3.6739    2.2302    2.8729 H   0  0  0  0  0  0  0  0  0  0  0  0
    1.4545    0.8990    1.6731 H   0  0  0  0  0  0  0  0  0  0  0  0
    3.1023    0.3343    1.5774 H   0  0  0  0  0  0  0  0  0  0  0  0
    0.7263   -1.1502    2.7845 H   0  0  0  0  0  0  0  0  0  0  0  0
    1.5038   -1.5277    1.2814 H   0  0  0  0  0  0  0  0  0  0  0  0
    1.1820   -3.5025    3.8872 H   0  0  0  0  0  0  0  0  0  0  0  0
    1.4175   -3.6529    2.1685 H   0  0  0  0  0  0  0  0  0  0  0  0
    2.9860   -4.9486    4.3359 H   0  0  0  0  0  0  0  0  0  0  0  0
    1.9476   -6.0895    1.7344 H   0  0  0  0  0  0  0  0  0  0  0  0
    0.7351   -5.9904    4.5113 H   0  0  0  0  0  0  0  0  0  0  0  0
    0.0171   -5.5723    2.9746 H   0  0  0  0  0  0  0  0  0  0  0  0
   -1.6245   -7.0118    4.5450 H   0  0  0  0  0  0  0  0  0  0  0  0
   -1.7292   -8.6871    4.0694 H   0  0  0  0  0  0  0  0  0  0  0  0
   -2.0116   -7.4236    2.8708 H   0  0  0  0  0  0  0  0  0  0  0  0
    0.6688  -10.6740    2.0812 H   0  0  0  0  0  0  0  0  0  0  0  0
   -0.8581  -10.1573    2.7460 H   0  0  0  0  0  0  0  0  0  0  0  0
    0.4283  -10.7205    3.8194 H   0  0  0  0  0  0  0  0  0  0  0  0
    2.7876   -9.4990    3.2069 H   0  0  0  0  0  0  0  0  0  0  0  0
    2.3947   -8.8261    1.6360 H   0  0  0  0  0  0  0  0  0  0  0  0
    3.0742   -7.3815    4.2246 H   0  0  0  0  0  0  0  0  0  0  0  0
    4.9725   -8.0827    2.8419 H   0  0  0  0  0  0  0  0  0  0  0  0
    4.2961   -7.3283    1.4354 H   0  0  0  0  0  0  0  0  0  0  0  0
    5.2480   -5.9652    3.9930 H   0  0  0  0  0  0  0  0  0  0  0  0
    6.2577   -5.8899    1.3793 H   0  0  0  0  0  0  0  0  0  0  0  0
    3.8713   -2.8061   -1.1576 H   0  0  0  0  0  0  0  0  0  0  0  0
    3.8238   -1.1819   -0.2962 H   0  0  0  0  0  0  0  0  0  0  0  0
    4.5713   -1.3243    2.2713 H   0  0  0  0  0  0  0  0  0  0  0  0
    5.8710   -3.2872    2.7075 H   0  0  0  0  0  0  0  0  0  0  0  0
    5.3216   -3.9475    5.1387 H   0  0  0  0  0  0  0  0  0  0  0  0
    5.8137   -2.3369    4.7541 H   0  0  0  0  0  0  0  0  0  0  0  0
    3.1012   -3.2898    5.6536 H   0  0  0  0  0  0  0  0  0  0  0  0
    4.0415   -1.9981    6.2714 H   0  0  0  0  0  0  0  0  0  0  0  0
    1.9493   -1.4183    4.9682 H   0  0  0  0  0  0  0  0  0  0  0  0
  1  2  2  0
  1 31  1  0
  1 32  1  0
  2 30  1  0
  2  3  1  0
  3  4  1  0
  3  5  1  0
  3 33  1  1
  4 34  1  0
  5  6  1  0
  5 35  1  0
  5 36  1  0
  7  6  1  6
  6 37  1  0
  6 38  1  0
  7 26  1  0
  7 30  1  0
  7  8  1  0
  8  9  1  0
  8 39  1  0
  8 40  1  0
  9 21  1  0
  9 10  1  0
  9 41  1  1
 10 17  1  0
 10 11  1  0
 10 42  1  6
 11 12  1  0
 11 43  1  0
 11 44  1  0
 12 13  1  0
 12 14  2  0
 13 45  1  0
 13 46  1  0
 13 47  1  0
 14 15  1  0
 14 16  1  0
 15 48  1  0
 15 49  1  0
 15 50  1  0
 16 17  1  0
 16 51  1  0
 16 52  1  0
 17 18  1  0
 17 53  1  1
 18 19  1  0
 18 54  1  0
 18 55  1  0
 19 20  1  0
 19 21  1  0
 19 56  1  1
 20 57  1  0
 21 27  1  0
 21 22  1  6
 22 23  2  0
 22 24  1  0
 24 25  2  0
 24 26  1  0
 25 58  1  0
 25 59  1  0
 26 27  1  0
 26 60  1  6
 27 28  1  0
 27 61  1  6
 28 29  1  0
 28 62  1  0
 28 63  1  0
 29 30  1  0
 29 64  1  0
 29 65  1  0
 30 66  1  1
M  END
>  <i_m_ct_stereo_status>  (219) 
1

>  <s_m_source_file>  (219) 
/var/tmp/pbs.5076255.sched01/tmp25xsusm8/82mdre8bl4.sdf

>  <i_m_source_file_index>  (219) 
26

>  <i_lp_mmshare_version>  (219) 
48012

>  <i_f3d_flags>  (219) 
0

>  <s_epik_input>  (219) 
W0NIMl0xW0NIMl1bQ0BIXShbT0hdKUMoPVtDSDJdKVtDQEBIXTJbQ0gyXVtDSDJdW0NIXShbQ0hdM1tDQF0xMjQpW0NAXTUoQyg9TylDMz1bQ0gyXSlbQ0BASF0oW0NIMl00KVtDQEhdNltDQEhdKFtDSDJdW0NASF01W09IXSlbQ0gyXUMoW0NIM10pPUMoW0NIMl02KVtDSDNd

>  <s_epik_cmdline>  (219) 
J2VwaWtfcHl0aG9uJywgJy1waHQnLCAnMi4wJywgJy1waCcsICc3LjAnLCAnLXRuJywgJzgnLCAnLW1hJywgJzIwMCcsICctaW1hZScsICc8aW5maWxlLm1hZT4nLCAnLW9tYWUnLCAnPG91dGZpbGUubWFlPic=

>  <r_lp_tautomer_probability>  (219) 
1

>  <r_epik_Ionization_Penalty>  (219) 
2.53055e-07

>  <r_epik_Ionization_Penalty_Charging>  (219) 
0

>  <r_epik_Ionization_Penalty_Neutral>  (219) 
2.53055e-07

>  <r_epik_State_Penalty>  (219) 
-0

>  <r_epik_Charging_Adjusted_Penalty>  (219) 
0

>  <i_epik_Tot_Q>  (219) 
0

>  <i_epik_Tot_abs_Q>  (219) 
0

>  <s_lp_Force_Field>  (219) 
OPLS3e

>  <r_lp_Energy>  (219) 
47.52

>  <b_lp_Chiralities_Consistent>  (219) 
1

>  <s_lp_Variant>  (219) 
78:0-1

>  <s_i_glide_gridfile>  (219) 
pfpi4k_grid

>  <i_i_glide_lignum>  (219) 
26

>  <i_i_glide_rotatable_bonds>  (219) 
2

>  <r_i_docking_score>  (219) 
-2.79494

>  <r_i_glide_ligand_efficiency>  (219) 
-0.0931647

>  <r_i_glide_ligand_efficiency_sa>  (219) 
-0.289484

>  <r_i_glide_ligand_efficiency_ln>  (219) 
-0.635041

>  <r_i_glide_gscore>  (219) 
-2.79494

>  <r_i_glide_lipo>  (219) 
-0.140394

>  <r_i_glide_hbond>  (219) 
-0.32

>  <r_i_glide_metal>  (219) 
-0

>  <r_i_glide_rewards>  (219) 
-0.648379

>  <r_i_glide_evdw>  (219) 
-28.2281

>  <r_i_glide_ecoul>  (219) 
-1.83176

>  <r_i_glide_erotb>  (219) 
0

>  <r_i_glide_esite>  (219) 
0

>  <r_i_glide_emodel>  (219) 
-35.5265

>  <r_i_glide_energy>  (219) 
-30.0598

>  <r_i_glide_einternal>  (219) 
0.0178448

>  <r_i_glide_intrahb_reward>  (219) 
-0

>  <i_i_glide_confnum>  (219) 
2

>  <i_i_glide_posenum>  (219) 
24

>  <r_i_glide_eff_state_penalty>  (219) 
0

>  <ligand_id>  (219) 
78

>  <original_smiles>  (219) 
C=C1C(O)CCC23CC4C5CC(C)=C(C)CC5CC(O)C45C(=O)C(=C)C2C5CCC13

>  <smiles>  (219) 
[H]OC1([H])C(=C([H])[H])C2([H])C([H])([H])C([H])([H])C3([H])C4([H])C(=C([H])[H])C(=O)C35C([H])(O[H])C([H])([H])C3([H])C([H])([H])C(C([H])([H])[H])=C(C([H])([H])[H])C([H])([H])C3([H])C5([H])C([H])([H])C24C([H])([H])C1([H])[H]

$$$$
79:0:0
     RDKit          3D

 46 51  0  0  1  0  0  0  0  0999 V2000
    8.6260   -3.7481    0.8384 C   0  0  0  0  0  0  0  0  0  0  0  0
    7.3473   -4.0888    1.0297 C   0  0  0  0  0  0  0  0  0  0  0  0
    6.9583   -5.2861    1.9586 C   0  0  0  0  0  0  0  0  0  0  0  0
    5.4827   -5.8104    1.7656 C   0  0  1  0  0  0  0  0  0  0  0  0
    4.1960   -5.5600    2.6775 C   0  0  2  0  0  0  0  0  0  0  0  0
    3.0633   -6.1338    1.8669 C   0  0  0  0  0  0  0  0  0  0  0  0
    3.3625   -5.7562    0.6378 C   0  0  0  0  0  0  0  0  0  0  0  0
    4.6200   -4.9460    0.8475 C   0  0  2  0  0  0  0  0  0  0  0  0
    5.3190   -4.3042   -0.3472 C   0  0  1  0  0  0  0  0  0  0  0  0
    4.5161   -3.8136   -1.5700 C   0  0  0  0  0  0  0  0  0  0  0  0
    4.1765   -2.6045   -2.0966 C   0  0  0  0  0  0  0  0  0  0  0  0
    3.5054   -2.5458   -3.2943 O   0  0  0  0  0  0  0  0  0  0  0  0
    2.2335   -3.1840   -3.3364 C   0  0  0  0  0  0  0  0  0  0  0  0
    4.4590   -1.2578   -1.5455 C   0  0  0  0  0  0  0  0  0  0  0  0
    5.0142   -0.4324   -2.2643 O   0  0  0  0  0  0  0  0  0  0  0  0
    3.9876   -0.8127   -0.1354 C   0  0  0  0  0  0  0  0  0  0  0  0
    4.2712   -1.8743    0.9134 C   0  0  2  0  0  0  0  0  0  0  0  0
    2.8797   -2.6225    0.7829 C   0  0  0  0  0  0  0  0  0  0  0  0
    3.5896   -2.8413    1.9878 C   0  0  1  0  0  0  0  0  0  0  0  0
    4.4100   -4.1215    2.1921 C   0  0  1  0  0  0  0  0  0  0  0  0
    5.7671   -2.2248    0.8807 C   0  0  0  0  0  0  0  0  0  0  0  0
    6.5792   -1.5099    1.7329 O   0  0  0  0  0  0  0  0  0  0  0  0
    5.9767   -0.6241    2.6693 C   0  0  0  0  0  0  0  0  0  0  0  0
    6.2511   -3.3746    0.3624 C   0  0  0  0  0  0  0  0  0  0  0  0
    8.9056   -2.9114    0.2101 H   0  0  0  0  0  0  0  0  0  0  0  0
    9.4138   -4.2888    1.3474 H   0  0  0  0  0  0  0  0  0  0  0  0
    7.6597   -6.0965    1.7538 H   0  0  0  0  0  0  0  0  0  0  0  0
    7.1398   -5.0544    3.0077 H   0  0  0  0  0  0  0  0  0  0  0  0
    5.5031   -6.8418    1.4120 H   0  0  0  0  0  0  0  0  0  0  0  0
    4.2842   -5.7890    3.7409 H   0  0  0  0  0  0  0  0  0  0  0  0
    2.2095   -6.6866    2.2233 H   0  0  0  0  0  0  0  0  0  0  0  0
    2.8110   -5.9075   -0.2803 H   0  0  0  0  0  0  0  0  0  0  0  0
    5.9620   -5.0685   -0.7613 H   0  0  0  0  0  0  0  0  0  0  0  0
    4.2285   -4.6460   -2.1690 H   0  0  0  0  0  0  0  0  0  0  0  0
    1.9122   -3.2669   -4.3743 H   0  0  0  0  0  0  0  0  0  0  0  0
    1.4946   -2.5903   -2.8020 H   0  0  0  0  0  0  0  0  0  0  0  0
    2.2103   -4.1844   -2.9187 H   0  0  0  0  0  0  0  0  0  0  0  0
    4.5158    0.1004    0.1273 H   0  0  0  0  0  0  0  0  0  0  0  0
    2.9351   -0.5483   -0.1708 H   0  0  0  0  0  0  0  0  0  0  0  0
    1.9755   -2.0321    0.9207 H   0  0  0  0  0  0  0  0  0  0  0  0
    2.7165   -3.4045    0.0585 H   0  0  0  0  0  0  0  0  0  0  0  0
    3.1681   -2.4009    2.8885 H   0  0  0  0  0  0  0  0  0  0  0  0
    5.2631   -3.7968    2.7970 H   0  0  0  0  0  0  0  0  0  0  0  0
    6.7591   -0.1703    3.2734 H   0  0  0  0  0  0  0  0  0  0  0  0
    5.3083   -1.1313    3.3668 H   0  0  0  0  0  0  0  0  0  0  0  0
    5.4398    0.1871    2.1840 H   0  0  0  0  0  0  0  0  0  0  0  0
  1  2  2  0
  1 25  1  0
  1 26  1  0
  2 24  1  0
  2  3  1  0
  3  4  1  0
  3 27  1  0
  3 28  1  0
  4  8  1  0
  4  5  1  0
  4 29  1  6
  5 20  1  0
  5  6  1  0
  5 30  1  1
  6  7  2  0
  6 31  1  0
  8  7  1  6
  7 32  1  0
  8 20  1  0
  8  9  1  0
  9 24  1  0
  9 10  1  0
  9 33  1  6
 10 11  2  3
 10 34  1  0
 11 12  1  0
 11 14  1  0
 12 13  1  0
 13 35  1  0
 13 36  1  0
 13 37  1  0
 14 15  2  0
 14 16  1  0
 17 16  1  1
 16 38  1  0
 16 39  1  0
 17 19  1  0
 17 18  1  0
 17 21  1  0
 18 19  1  0
 18 40  1  0
 18 41  1  0
 19 20  1  0
 19 42  1  1
 20 43  1  1
 21 22  1  0
 21 24  2  0
 22 23  1  0
 23 44  1  0
 23 45  1  0
 23 46  1  0
M  END
>  <i_m_ct_stereo_status>  (220) 
1

>  <s_m_source_file>  (220) 
/var/tmp/pbs.5076255.sched01/tmp25xsusm8/82mdre8bl4.sdf

>  <i_m_source_file_index>  (220) 
27

>  <i_lp_mmshare_version>  (220) 
48012

>  <i_f3d_flags>  (220) 
0

>  <s_epik_input>  (220) 
W0NIM11PQzE9QyhDKD1bQ0gyXSlbQ0gyXTIpW0NIXTMvW0NIXT1DKC9PW0NIM10pQyg9TylbQ0gyXVtDQF0xKFtDSDJdNClbQ0BASF00W0NASF01W0NASF0oW0NAQEhdMltDQF0zNTYpW0NIXT1bQ0hdNg==

>  <s_epik_cmdline>  (220) 
J2VwaWtfcHl0aG9uJywgJy1waHQnLCAnMi4wJywgJy1waCcsICc3LjAnLCAnLXRuJywgJzgnLCAnLW1hJywgJzIwMCcsICctaW1hZScsICc8aW5maWxlLm1hZT4nLCAnLW9tYWUnLCAnPG91dGZpbGUubWFlPic=

>  <r_lp_tautomer_probability>  (220) 
1

>  <r_epik_Ionization_Penalty>  (220) 
0

>  <r_epik_Ionization_Penalty_Charging>  (220) 
0

>  <r_epik_Ionization_Penalty_Neutral>  (220) 
0

>  <r_epik_State_Penalty>  (220) 
-0

>  <r_epik_Charging_Adjusted_Penalty>  (220) 
0

>  <i_epik_Tot_Q>  (220) 
0

>  <i_epik_Tot_abs_Q>  (220) 
0

>  <s_lp_Force_Field>  (220) 
OPLS3e

>  <r_lp_Energy>  (220) 
194.156

>  <b_lp_Chiralities_Consistent>  (220) 
1

>  <s_lp_Variant>  (220) 
79:0-1

>  <s_i_glide_gridfile>  (220) 
pfpi4k_grid

>  <i_i_glide_lignum>  (220) 
27

>  <i_i_glide_rotatable_bonds>  (220) 
2

>  <r_i_docking_score>  (220) 
-3.63516

>  <r_i_glide_ligand_efficiency>  (220) 
-0.151465

>  <r_i_glide_ligand_efficiency_sa>  (220) 
-0.4369

>  <r_i_glide_ligand_efficiency_ln>  (220) 
-0.870059

>  <r_i_glide_gscore>  (220) 
-3.63516

>  <r_i_glide_lipo>  (220) 
-0.864323

>  <r_i_glide_hbond>  (220) 
0

>  <r_i_glide_metal>  (220) 
-0

>  <r_i_glide_rewards>  (220) 
-1.21093

>  <r_i_glide_evdw>  (220) 
-20.0544

>  <r_i_glide_ecoul>  (220) 
-3.40159

>  <r_i_glide_erotb>  (220) 
0

>  <r_i_glide_esite>  (220) 
-0.0469505

>  <r_i_glide_emodel>  (220) 
-27.1081

>  <r_i_glide_energy>  (220) 
-23.4559

>  <r_i_glide_einternal>  (220) 
3.00029

>  <r_i_glide_intrahb_reward>  (220) 
-0

>  <i_i_glide_confnum>  (220) 
1

>  <i_i_glide_posenum>  (220) 
19

>  <r_i_glide_eff_state_penalty>  (220) 
0

>  <ligand_id>  (220) 
79

>  <original_smiles>  (220) 
C=C1CC2C3C=CC24C2C=C(OC)C(=O)CC5(CC5C34)C(OC)=C12

>  <smiles>  (220) 
[H]C([H])=C1C2=C(OC([H])([H])[H])C34C([H])([H])C(=O)C(OC([H])([H])[H])=C([H])C2([H])C25C([H])=C([H])C([H])(C2([H])C1([H])[H])C5([H])C3([H])C4([H])[H]

$$$$
79:0:1
     RDKit          3D

 46 51  0  0  1  0  0  0  0  0999 V2000
    8.5514   -2.4460   -0.1454 C   0  0  0  0  0  0  0  0  0  0  0  0
    7.2990   -2.6128   -0.5771 C   0  0  0  0  0  0  0  0  0  0  0  0
    6.9917   -2.8772   -2.0766 C   0  0  0  0  0  0  0  0  0  0  0  0
    5.4887   -2.6596   -2.4901 C   0  0  1  0  0  0  0  0  0  0  0  0
    4.3407   -3.7354   -2.7495 C   0  0  2  0  0  0  0  0  0  0  0  0
    3.0953   -2.9030   -2.9003 C   0  0  0  0  0  0  0  0  0  0  0  0
    3.2723   -1.9751   -1.9807 C   0  0  0  0  0  0  0  0  0  0  0  0
    4.5581   -2.3804   -1.3229 C   0  0  2  0  0  0  0  0  0  0  0  0
    5.1183   -1.5517   -0.1592 C   0  0  1  0  0  0  0  0  0  0  0  0
    4.1742   -0.8397    0.8295 C   0  0  0  0  0  0  0  0  0  0  0  0
    3.8246   -1.0143    2.1360 C   0  0  0  0  0  0  0  0  0  0  0  0
    2.9581   -0.1317    2.7477 O   0  0  0  0  0  0  0  0  0  0  0  0
    1.7850    0.2603    2.0337 C   0  0  0  0  0  0  0  0  0  0  0  0
    4.2350   -2.1133    3.0627 C   0  0  0  0  0  0  0  0  0  0  0  0
    4.7336   -1.8641    4.1591 O   0  0  0  0  0  0  0  0  0  0  0  0
    3.9468   -3.6058    2.7587 C   0  0  0  0  0  0  0  0  0  0  0  0
    4.3355   -3.9736    1.3346 C   0  0  2  0  0  0  0  0  0  0  0  0
    2.9102   -3.6792    0.7025 C   0  0  0  0  0  0  0  0  0  0  0  0
    3.7629   -4.5227   -0.0500 C   0  0  1  0  0  0  0  0  0  0  0  0
    4.5480   -3.9734   -1.2479 C   0  0  1  0  0  0  0  0  0  0  0  0
    5.7947   -3.5754    1.0847 C   0  0  0  0  0  0  0  0  0  0  0  0
    6.7418   -4.5691    1.2634 O   0  0  0  0  0  0  0  0  0  0  0  0
    6.3822   -5.7469    1.9722 C   0  0  0  0  0  0  0  0  0  0  0  0
    6.1594   -2.5067    0.3396 C   0  0  0  0  0  0  0  0  0  0  0  0
    8.7713   -2.2494    0.8862 H   0  0  0  0  0  0  0  0  0  0  0  0
    9.3903   -2.4891   -0.8197 H   0  0  0  0  0  0  0  0  0  0  0  0
    7.6357   -2.2442   -2.6697 H   0  0  0  0  0  0  0  0  0  0  0  0
    7.3251   -3.8517   -2.3638 H   0  0  0  0  0  0  0  0  0  0  0  0
    5.4129   -1.8596   -3.2166 H   0  0  0  0  0  0  0  0  0  0  0  0
    4.5673   -4.5279   -3.4672 H   0  0  0  0  0  0  0  0  0  0  0  0
    2.2513   -3.0662   -3.5593 H   0  0  0  0  0  0  0  0  0  0  0  0
    2.6318   -1.1693   -1.6895 H   0  0  0  0  0  0  0  0  0  0  0  0
    5.6692   -0.7110   -0.5779 H   0  0  0  0  0  0  0  0  0  0  0  0
    3.7953    0.0324    0.3262 H   0  0  0  0  0  0  0  0  0  0  0  0
    1.3610    1.1366    2.5242 H   0  0  0  0  0  0  0  0  0  0  0  0
    1.0513   -0.5433    2.0859 H   0  0  0  0  0  0  0  0  0  0  0  0
    1.9038    0.5371    0.9867 H   0  0  0  0  0  0  0  0  0  0  0  0
    4.5364   -4.1992    3.4566 H   0  0  0  0  0  0  0  0  0  0  0  0
    2.9113   -3.8426    2.9931 H   0  0  0  0  0  0  0  0  0  0  0  0
    2.0631   -4.2062    1.1388 H   0  0  0  0  0  0  0  0  0  0  0  0
    2.6247   -2.7015    0.3508 H   0  0  0  0  0  0  0  0  0  0  0  0
    3.4776   -5.5704   -0.1140 H   0  0  0  0  0  0  0  0  0  0  0  0
    5.4786   -4.5502   -1.2367 H   0  0  0  0  0  0  0  0  0  0  0  0
    7.2615   -6.3908    2.0412 H   0  0  0  0  0  0  0  0  0  0  0  0
    5.6086   -6.3192    1.4629 H   0  0  0  0  0  0  0  0  0  0  0  0
    6.0826   -5.5421    2.9969 H   0  0  0  0  0  0  0  0  0  0  0  0
  1  2  2  0
  1 25  1  0
  1 26  1  0
  2 24  1  0
  2  3  1  0
  3  4  1  0
  3 27  1  0
  3 28  1  0
  4  8  1  0
  4  5  1  0
  4 29  1  6
  5 20  1  0
  5  6  1  0
  5 30  1  6
  6  7  2  0
  6 31  1  0
  8  7  1  6
  7 32  1  0
  8 20  1  0
  8  9  1  0
  9 24  1  0
  9 10  1  0
  9 33  1  6
 10 11  2  3
 10 34  1  0
 11 12  1  0
 11 14  1  0
 12 13  1  0
 13 35  1  0
 13 36  1  0
 13 37  1  0
 14 15  2  0
 14 16  1  0
 17 16  1  1
 16 38  1  0
 16 39  1  0
 17 19  1  0
 17 18  1  0
 17 21  1  0
 18 19  1  0
 18 40  1  0
 18 41  1  0
 19 20  1  0
 19 42  1  1
 20 43  1  6
 21 22  1  0
 21 24  2  0
 22 23  1  0
 23 44  1  0
 23 45  1  0
 23 46  1  0
M  END
>  <i_m_ct_stereo_status>  (221) 
1

>  <s_m_source_file>  (221) 
/var/tmp/pbs.5076255.sched01/tmp25xsusm8/82mdre8bl4.sdf

>  <i_m_source_file_index>  (221) 
27

>  <i_lp_mmshare_version>  (221) 
48012

>  <i_f3d_flags>  (221) 
0

>  <s_epik_input>  (221) 
W0NIM11PQzE9QyhDKD1bQ0gyXSlbQ0gyXTIpW0NIXTMvW0NIXT1DKC9PW0NIM10pQyg9TylbQ0gyXVtDQF0xKFtDSDJdNClbQ0BASF00W0NASF01W0NASF0oW0NAQEhdMltDQF0zNTYpW0NIXT1bQ0hdNg==

>  <s_epik_cmdline>  (221) 
J2VwaWtfcHl0aG9uJywgJy1waHQnLCAnMi4wJywgJy1waCcsICc3LjAnLCAnLXRuJywgJzgnLCAnLW1hJywgJzIwMCcsICctaW1hZScsICc8aW5maWxlLm1hZT4nLCAnLW9tYWUnLCAnPG91dGZpbGUubWFlPic=

>  <r_lp_tautomer_probability>  (221) 
1

>  <r_epik_Ionization_Penalty>  (221) 
0

>  <r_epik_Ionization_Penalty_Charging>  (221) 
0

>  <r_epik_Ionization_Penalty_Neutral>  (221) 
0

>  <r_epik_State_Penalty>  (221) 
-0

>  <r_epik_Charging_Adjusted_Penalty>  (221) 
0

>  <i_epik_Tot_Q>  (221) 
0

>  <i_epik_Tot_abs_Q>  (221) 
0

>  <s_lp_Force_Field>  (221) 
OPLS3e

>  <r_lp_Energy>  (221) 
194.156

>  <b_lp_Chiralities_Consistent>  (221) 
1

>  <s_lp_Variant>  (221) 
79:0-1

>  <s_i_glide_gridfile>  (221) 
pfpi4k_grid

>  <i_i_glide_lignum>  (221) 
27

>  <i_i_glide_rotatable_bonds>  (221) 
2

>  <r_i_docking_score>  (221) 
-3.07884

>  <r_i_glide_ligand_efficiency>  (221) 
-0.128285

>  <r_i_glide_ligand_efficiency_sa>  (221) 
-0.370037

>  <r_i_glide_ligand_efficiency_ln>  (221) 
-0.736907

>  <r_i_glide_gscore>  (221) 
-3.07884

>  <r_i_glide_lipo>  (221) 
-0.366602

>  <r_i_glide_hbond>  (221) 
0

>  <r_i_glide_metal>  (221) 
-0

>  <r_i_glide_rewards>  (221) 
-1.22316

>  <r_i_glide_evdw>  (221) 
-23.2601

>  <r_i_glide_ecoul>  (221) 
-2.17382

>  <r_i_glide_erotb>  (221) 
0

>  <r_i_glide_esite>  (221) 
0

>  <r_i_glide_emodel>  (221) 
-28.758

>  <r_i_glide_energy>  (221) 
-25.4339

>  <r_i_glide_einternal>  (221) 
1.84931

>  <r_i_glide_intrahb_reward>  (221) 
-0

>  <i_i_glide_confnum>  (221) 
2

>  <i_i_glide_posenum>  (221) 
30

>  <r_i_glide_eff_state_penalty>  (221) 
0

>  <ligand_id>  (221) 
79

>  <original_smiles>  (221) 
C=C1CC2C3C=CC24C2C=C(OC)C(=O)CC5(CC5C34)C(OC)=C12

>  <smiles>  (221) 
[H]C([H])=C1C2=C(OC([H])([H])[H])C34C([H])([H])C(=O)C(OC([H])([H])[H])=C([H])C2([H])C25C([H])=C([H])C([H])(C2([H])C1([H])[H])C5([H])C3([H])C4([H])[H]

$$$$
79:0:2
     RDKit          3D

 46 51  0  0  1  0  0  0  0  0999 V2000
    3.8968   -1.3784   -1.8703 C   0  0  0  0  0  0  0  0  0  0  0  0
    3.7734   -2.3698   -0.9785 C   0  0  0  0  0  0  0  0  0  0  0  0
    3.5329   -3.8441   -1.4389 C   0  0  0  0  0  0  0  0  0  0  0  0
    3.0263   -4.8091   -0.2950 C   0  0  1  0  0  0  0  0  0  0  0  0
    3.8359   -5.9116    0.5224 C   0  0  2  0  0  0  0  0  0  0  0  0
    2.8627   -6.3565    1.5827 C   0  0  0  0  0  0  0  0  0  0  0  0
    2.2938   -5.2221    1.9471 C   0  0  0  0  0  0  0  0  0  0  0  0
    3.0192   -4.2051    1.0910 C   0  0  2  0  0  0  0  0  0  0  0  0
    2.6690   -2.7271    1.1843 C   0  0  1  0  0  0  0  0  0  0  0  0
    2.1885   -2.1399    2.5125 C   0  0  0  0  0  0  0  0  0  0  0  0
    2.6964   -1.2870    3.4552 C   0  0  0  0  0  0  0  0  0  0  0  0
    1.9201   -0.8650    4.5171 O   0  0  0  0  0  0  0  0  0  0  0  0
    0.5166   -0.7522    4.2903 C   0  0  0  0  0  0  0  0  0  0  0  0
    4.0642   -0.6838    3.4964 C   0  0  0  0  0  0  0  0  0  0  0  0
    4.2155    0.5271    3.6397 O   0  0  0  0  0  0  0  0  0  0  0  0
    5.3580   -1.5384    3.5107 C   0  0  0  0  0  0  0  0  0  0  0  0
    5.3158   -2.6419    2.4655 C   0  0  2  0  0  0  0  0  0  0  0  0
    4.6886   -3.7374    3.4283 C   0  0  0  0  0  0  0  0  0  0  0  0
    5.3463   -4.2245    2.2747 C   0  0  1  0  0  0  0  0  0  0  0  0
    4.5446   -4.6595    1.0433 C   0  0  1  0  0  0  0  0  0  0  0  0
    5.0267   -2.0328    1.0858 C   0  0  0  0  0  0  0  0  0  0  0  0
    6.1229   -1.7508    0.2886 O   0  0  0  0  0  0  0  0  0  0  0  0
    7.4136   -1.7824    0.8733 C   0  0  0  0  0  0  0  0  0  0  0  0
    3.8311   -2.1264    0.4635 C   0  0  0  0  0  0  0  0  0  0  0  0
    4.0644   -0.3634   -1.5481 H   0  0  0  0  0  0  0  0  0  0  0  0
    3.8028   -1.5688   -2.9307 H   0  0  0  0  0  0  0  0  0  0  0  0
    2.7860   -3.8135   -2.2367 H   0  0  0  0  0  0  0  0  0  0  0  0
    4.4433   -4.2247   -1.9109 H   0  0  0  0  0  0  0  0  0  0  0  0
    2.0431   -5.1817   -0.5400 H   0  0  0  0  0  0  0  0  0  0  0  0
    4.3877   -6.6482   -0.0651 H   0  0  0  0  0  0  0  0  0  0  0  0
    2.7245   -7.3549    1.9777 H   0  0  0  0  0  0  0  0  0  0  0  0
    1.5750   -5.0632    2.7378 H   0  0  0  0  0  0  0  0  0  0  0  0
    1.8138   -2.5367    0.5384 H   0  0  0  0  0  0  0  0  0  0  0  0
    1.1968   -2.5290    2.6459 H   0  0  0  0  0  0  0  0  0  0  0  0
    0.0454   -0.2228    5.1204 H   0  0  0  0  0  0  0  0  0  0  0  0
    0.0137   -1.7196    4.2194 H   0  0  0  0  0  0  0  0  0  0  0  0
    0.3194   -0.1811    3.3802 H   0  0  0  0  0  0  0  0  0  0  0  0
    6.1938   -0.8698    3.2966 H   0  0  0  0  0  0  0  0  0  0  0  0
    5.5390   -1.9129    4.5180 H   0  0  0  0  0  0  0  0  0  0  0  0
    5.2210   -3.9580    4.3535 H   0  0  0  0  0  0  0  0  0  0  0  0
    3.6259   -3.8404    3.5583 H   0  0  0  0  0  0  0  0  0  0  0  0
    6.2855   -4.7461    2.4376 H   0  0  0  0  0  0  0  0  0  0  0  0
    5.1930   -4.3980    0.1980 H   0  0  0  0  0  0  0  0  0  0  0  0
    8.1540   -1.5023    0.1226 H   0  0  0  0  0  0  0  0  0  0  0  0
    7.6744   -2.7798    1.2261 H   0  0  0  0  0  0  0  0  0  0  0  0
    7.4956   -1.0526    1.6767 H   0  0  0  0  0  0  0  0  0  0  0  0
  1  2  2  0
  1 25  1  0
  1 26  1  0
  2 24  1  0
  2  3  1  0
  3  4  1  0
  3 27  1  0
  3 28  1  0
  4  8  1  0
  4  5  1  0
  4 29  1  6
  5 20  1  0
  5  6  1  0
  5 30  1  6
  6  7  2  0
  6 31  1  0
  8  7  1  1
  7 32  1  0
  8 20  1  0
  8  9  1  0
  9 24  1  0
  9 10  1  0
  9 33  1  6
 10 11  2  3
 10 34  1  0
 11 12  1  0
 11 14  1  0
 12 13  1  0
 13 35  1  0
 13 36  1  0
 13 37  1  0
 14 15  2  0
 14 16  1  0
 17 16  1  1
 16 38  1  0
 16 39  1  0
 17 19  1  0
 17 18  1  0
 17 21  1  0
 18 19  1  0
 18 40  1  0
 18 41  1  0
 19 20  1  0
 19 42  1  1
 20 43  1  6
 21 22  1  0
 21 24  2  0
 22 23  1  0
 23 44  1  0
 23 45  1  0
 23 46  1  0
M  END
>  <i_m_ct_stereo_status>  (222) 
1

>  <s_m_source_file>  (222) 
/var/tmp/pbs.5076255.sched01/tmp25xsusm8/82mdre8bl4.sdf

>  <i_m_source_file_index>  (222) 
27

>  <i_lp_mmshare_version>  (222) 
48012

>  <i_f3d_flags>  (222) 
0

>  <s_epik_input>  (222) 
W0NIM11PQzE9QyhDKD1bQ0gyXSlbQ0gyXTIpW0NIXTMvW0NIXT1DKC9PW0NIM10pQyg9TylbQ0gyXVtDQF0xKFtDSDJdNClbQ0BASF00W0NASF01W0NASF0oW0NAQEhdMltDQF0zNTYpW0NIXT1bQ0hdNg==

>  <s_epik_cmdline>  (222) 
J2VwaWtfcHl0aG9uJywgJy1waHQnLCAnMi4wJywgJy1waCcsICc3LjAnLCAnLXRuJywgJzgnLCAnLW1hJywgJzIwMCcsICctaW1hZScsICc8aW5maWxlLm1hZT4nLCAnLW9tYWUnLCAnPG91dGZpbGUubWFlPic=

>  <r_lp_tautomer_probability>  (222) 
1

>  <r_epik_Ionization_Penalty>  (222) 
0

>  <r_epik_Ionization_Penalty_Charging>  (222) 
0

>  <r_epik_Ionization_Penalty_Neutral>  (222) 
0

>  <r_epik_State_Penalty>  (222) 
-0

>  <r_epik_Charging_Adjusted_Penalty>  (222) 
0

>  <i_epik_Tot_Q>  (222) 
0

>  <i_epik_Tot_abs_Q>  (222) 
0

>  <s_lp_Force_Field>  (222) 
OPLS3e

>  <r_lp_Energy>  (222) 
194.156

>  <b_lp_Chiralities_Consistent>  (222) 
1

>  <s_lp_Variant>  (222) 
79:0-1

>  <s_i_glide_gridfile>  (222) 
pfpi4k_grid

>  <i_i_glide_lignum>  (222) 
27

>  <i_i_glide_rotatable_bonds>  (222) 
2

>  <r_i_docking_score>  (222) 
-2.64834

>  <r_i_glide_ligand_efficiency>  (222) 
-0.110347

>  <r_i_glide_ligand_efficiency_sa>  (222) 
-0.318297

>  <r_i_glide_ligand_efficiency_ln>  (222) 
-0.633869

>  <r_i_glide_gscore>  (222) 
-2.64834

>  <r_i_glide_lipo>  (222) 
-0.30405

>  <r_i_glide_hbond>  (222) 
0

>  <r_i_glide_metal>  (222) 
-0

>  <r_i_glide_rewards>  (222) 
-1.23369

>  <r_i_glide_evdw>  (222) 
-19.2893

>  <r_i_glide_ecoul>  (222) 
-0.974211

>  <r_i_glide_erotb>  (222) 
0

>  <r_i_glide_esite>  (222) 
0

>  <r_i_glide_emodel>  (222) 
-23.8464

>  <r_i_glide_energy>  (222) 
-20.2635

>  <r_i_glide_einternal>  (222) 
0.0500289

>  <r_i_glide_intrahb_reward>  (222) 
-0

>  <i_i_glide_confnum>  (222) 
2

>  <i_i_glide_posenum>  (222) 
39

>  <r_i_glide_eff_state_penalty>  (222) 
0

>  <ligand_id>  (222) 
79

>  <original_smiles>  (222) 
C=C1CC2C3C=CC24C2C=C(OC)C(=O)CC5(CC5C34)C(OC)=C12

>  <smiles>  (222) 
[H]C([H])=C1C2=C(OC([H])([H])[H])C34C([H])([H])C(=O)C(OC([H])([H])[H])=C([H])C2([H])C25C([H])=C([H])C([H])(C2([H])C1([H])[H])C5([H])C3([H])C4([H])[H]

$$$$
79:1:0
     RDKit          3D

 46 51  0  0  1  0  0  0  0  0999 V2000
    2.1375   -6.7286    1.2853 C   0  0  0  0  0  0  0  0  0  0  0  0
    3.3857   -6.2790    1.0738 C   0  0  0  0  0  0  0  0  0  0  0  0
    4.7208   -7.1751    1.3990 C   0  0  0  0  0  0  0  0  0  0  0  0
    6.1944   -6.4045    1.3912 C   0  0  2  0  0  0  0  0  0  0  0  0
    7.0407   -5.5640    2.4787 C   0  0  2  0  0  0  0  0  0  0  0  0
    6.1470   -5.4466    3.6079 C   0  0  0  0  0  0  0  0  0  0  0  0
    5.1330   -5.0903    2.8601 C   0  0  0  0  0  0  0  0  0  0  0  0
    5.6709   -5.0556    1.3290 C   0  0  2  0  0  0  0  0  0  0  0  0
    4.9053   -4.9019    0.0223 C   0  0  1  0  0  0  0  0  0  0  0  0
    5.1050   -4.1263   -1.3210 C   0  0  0  0  0  0  0  0  0  0  0  0
    4.2523   -3.1460   -1.7264 C   0  0  0  0  0  0  0  0  0  0  0  0
    2.9002   -3.3481   -1.5621 O   0  0  0  0  0  0  0  0  0  0  0  0
    2.1410   -2.8051   -2.6253 C   0  0  0  0  0  0  0  0  0  0  0  0
    4.6926   -1.8324   -1.1856 C   0  0  0  0  0  0  0  0  0  0  0  0
    5.4127   -1.0673   -1.8254 O   0  0  0  0  0  0  0  0  0  0  0  0
    4.2818   -1.4487    0.2714 C   0  0  0  0  0  0  0  0  0  0  0  0
    4.4417   -2.5165    1.3902 C   0  0  2  0  0  0  0  0  0  0  0  0
    5.0168   -2.1816    2.7631 C   0  0  0  0  0  0  0  0  0  0  0  0
    6.0523   -2.7687    1.8051 C   0  0  1  0  0  0  0  0  0  0  0  0
    6.8277   -4.2066    1.6204 C   0  0  1  0  0  0  0  0  0  0  0  0
    3.3474   -3.6729    1.2565 C   0  0  0  0  0  0  0  0  0  0  0  0
    2.2877   -3.6363    2.1647 O   0  0  0  0  0  0  0  0  0  0  0  0
    1.8022   -2.3650    2.5319 C   0  0  0  0  0  0  0  0  0  0  0  0
    3.6324   -4.8703    0.6502 C   0  0  0  0  0  0  0  0  0  0  0  0
    1.2816   -6.0981    1.0940 H   0  0  0  0  0  0  0  0  0  0  0  0
    1.9549   -7.7399    1.6296 H   0  0  0  0  0  0  0  0  0  0  0  0
    4.5434   -7.6571    2.3665 H   0  0  0  0  0  0  0  0  0  0  0  0
    4.7184   -8.0039    0.6862 H   0  0  0  0  0  0  0  0  0  0  0  0
    6.8062   -6.6207    0.5094 H   0  0  0  0  0  0  0  0  0  0  0  0
    8.0720   -5.8894    2.6514 H   0  0  0  0  0  0  0  0  0  0  0  0
    6.2901   -5.6262    4.6620 H   0  0  0  0  0  0  0  0  0  0  0  0
    4.1481   -4.9019    3.2671 H   0  0  0  0  0  0  0  0  0  0  0  0
    5.3757   -3.9821    0.0193 H   0  0  0  0  0  0  0  0  0  0  0  0
    6.1541   -3.9482   -1.5934 H   0  0  0  0  0  0  0  0  0  0  0  0
    1.0913   -3.0554   -2.4426 H   0  0  0  0  0  0  0  0  0  0  0  0
    2.4242   -3.2412   -3.5835 H   0  0  0  0  0  0  0  0  0  0  0  0
    2.2452   -1.7216   -2.6867 H   0  0  0  0  0  0  0  0  0  0  0  0
    4.8660   -0.5642    0.5544 H   0  0  0  0  0  0  0  0  0  0  0  0
    3.2404   -1.1272    0.2389 H   0  0  0  0  0  0  0  0  0  0  0  0
    5.0883   -1.1226    2.9805 H   0  0  0  0  0  0  0  0  0  0  0  0
    4.6799   -2.7626    3.6167 H   0  0  0  0  0  0  0  0  0  0  0  0
    6.7142   -1.9717    1.4552 H   0  0  0  0  0  0  0  0  0  0  0  0
    7.5513   -4.1966    0.8067 H   0  0  0  0  0  0  0  0  0  0  0  0
    0.8778   -2.5088    3.0896 H   0  0  0  0  0  0  0  0  0  0  0  0
    1.5707   -1.7376    1.6697 H   0  0  0  0  0  0  0  0  0  0  0  0
    2.4825   -1.8398    3.1955 H   0  0  0  0  0  0  0  0  0  0  0  0
  1  2  2  0
  1 25  1  0
  1 26  1  0
  2 24  1  0
  2  3  1  0
  3  4  1  0
  3 27  1  0
  3 28  1  0
  4  8  1  0
  4  5  1  0
  4 29  1  6
  5 20  1  0
  5  6  1  0
  5 30  1  1
  6  7  2  0
  6 31  1  0
  8  7  1  1
  7 32  1  0
  8 20  1  0
  8  9  1  0
  9 24  1  0
  9 10  1  0
  9 33  1  6
 10 11  2  3
 10 34  1  0
 11 12  1  0
 11 14  1  0
 12 13  1  0
 13 35  1  0
 13 36  1  0
 13 37  1  0
 14 15  2  0
 14 16  1  0
 17 16  1  6
 16 38  1  0
 16 39  1  0
 17 19  1  0
 17 18  1  0
 17 21  1  0
 18 19  1  0
 18 40  1  0
 18 41  1  0
 19 20  1  0
 19 42  1  6
 20 43  1  6
 21 22  1  0
 21 24  2  0
 22 23  1  0
 23 44  1  0
 23 45  1  0
 23 46  1  0
M  END
>  <i_m_ct_stereo_status>  (223) 
1

>  <s_m_source_file>  (223) 
/var/tmp/pbs.5076255.sched01/tmp25xsusm8/82mdre8bl4.sdf

>  <i_m_source_file_index>  (223) 
28

>  <i_lp_mmshare_version>  (223) 
48012

>  <i_f3d_flags>  (223) 
0

>  <s_epik_input>  (223) 
W0NIM11PQzE9QyhDKD1bQ0gyXSlbQ0gyXTIpW0NIXTMvW0NIXT1DKC9PW0NIM10pQyg9TylbQ0gyXVtDQF0xKFtDSDJdNClbQ0BASF00W0NASF01W0NASF0oW0NAQEhdMltDQF0zNTYpW0NIXT1bQ0hdNg==

>  <s_epik_cmdline>  (223) 
J2VwaWtfcHl0aG9uJywgJy1waHQnLCAnMi4wJywgJy1waCcsICc3LjAnLCAnLXRuJywgJzgnLCAnLW1hJywgJzIwMCcsICctaW1hZScsICc8aW5maWxlLm1hZT4nLCAnLW9tYWUnLCAnPG91dGZpbGUubWFlPic=

>  <r_lp_tautomer_probability>  (223) 
1

>  <r_epik_Ionization_Penalty>  (223) 
0

>  <r_epik_Ionization_Penalty_Charging>  (223) 
0

>  <r_epik_Ionization_Penalty_Neutral>  (223) 
0

>  <r_epik_State_Penalty>  (223) 
-0

>  <r_epik_Charging_Adjusted_Penalty>  (223) 
0

>  <i_epik_Tot_Q>  (223) 
0

>  <i_epik_Tot_abs_Q>  (223) 
0

>  <s_lp_Force_Field>  (223) 
OPLS3e

>  <r_lp_Energy>  (223) 
345.782

>  <b_lp_Chiralities_Consistent>  (223) 
1

>  <s_lp_Variant>  (223) 
79:0-2

>  <s_i_glide_gridfile>  (223) 
pfpi4k_grid

>  <i_i_glide_lignum>  (223) 
28

>  <i_i_glide_rotatable_bonds>  (223) 
2

>  <r_i_docking_score>  (223) 
-3.08506

>  <r_i_glide_ligand_efficiency>  (223) 
-0.128544

>  <r_i_glide_ligand_efficiency_sa>  (223) 
-0.370786

>  <r_i_glide_ligand_efficiency_ln>  (223) 
-0.738396

>  <r_i_glide_gscore>  (223) 
-3.08506

>  <r_i_glide_lipo>  (223) 
-0.572392

>  <r_i_glide_hbond>  (223) 
-0.00801099

>  <r_i_glide_metal>  (223) 
-0

>  <r_i_glide_rewards>  (223) 
-1.21093

>  <r_i_glide_evdw>  (223) 
-22.5808

>  <r_i_glide_ecoul>  (223) 
-0.882137

>  <r_i_glide_erotb>  (223) 
0

>  <r_i_glide_esite>  (223) 
-0.0323732

>  <r_i_glide_emodel>  (223) 
-27.6945

>  <r_i_glide_energy>  (223) 
-23.4629

>  <r_i_glide_einternal>  (223) 
0.827423

>  <r_i_glide_intrahb_reward>  (223) 
-0

>  <i_i_glide_confnum>  (223) 
1

>  <i_i_glide_posenum>  (223) 
22

>  <r_i_glide_eff_state_penalty>  (223) 
0

>  <ligand_id>  (223) 
79

>  <original_smiles>  (223) 
C=C1CC2C3C=CC24C2C=C(OC)C(=O)CC5(CC5C34)C(OC)=C12

>  <smiles>  (223) 
[H]C([H])=C1C2=C(OC([H])([H])[H])C34C([H])([H])C(=O)C(OC([H])([H])[H])=C([H])C2([H])C25C([H])=C([H])C([H])(C2([H])C1([H])[H])C5([H])C3([H])C4([H])[H]

$$$$
79:1:1
     RDKit          3D

 46 51  0  0  1  0  0  0  0  0999 V2000
    1.8621   -6.1398    1.5357 C   0  0  0  0  0  0  0  0  0  0  0  0
    3.1003   -5.8159    1.2122 C   0  0  0  0  0  0  0  0  0  0  0  0
    4.3640   -6.8702    1.3325 C   0  0  0  0  0  0  0  0  0  0  0  0
    5.8998   -6.2745    1.1669 C   0  0  2  0  0  0  0  0  0  0  0  0
    6.9601   -5.5894    2.1772 C   0  0  2  0  0  0  0  0  0  0  0  0
    6.2144   -5.4188    3.4158 C   0  0  0  0  0  0  0  0  0  0  0  0
    5.1780   -4.8971    2.8140 C   0  0  0  0  0  0  0  0  0  0  0  0
    5.5498   -4.8794    1.2374 C   0  0  2  0  0  0  0  0  0  0  0  0
    4.6317   -4.5803    0.0175 C   0  0  1  0  0  0  0  0  0  0  0  0
    4.7421   -3.8419   -1.3559 C   0  0  0  0  0  0  0  0  0  0  0  0
    3.9801   -2.7271   -1.6044 C   0  0  0  0  0  0  0  0  0  0  0  0
    2.6136   -2.6613   -1.3998 O   0  0  0  0  0  0  0  0  0  0  0  0
    1.8208   -3.7917   -1.7249 C   0  0  0  0  0  0  0  0  0  0  0  0
    4.6428   -1.5042   -1.0902 C   0  0  0  0  0  0  0  0  0  0  0  0
    5.3832   -0.8371   -1.7993 O   0  0  0  0  0  0  0  0  0  0  0  0
    4.4663   -1.0980    0.4077 C   0  0  0  0  0  0  0  0  0  0  0  0
    4.6348   -2.2096    1.4780 C   0  0  2  0  0  0  0  0  0  0  0  0
    5.4075   -2.0007    2.7650 C   0  0  0  0  0  0  0  0  0  0  0  0
    6.2435   -2.6603    1.6634 C   0  0  1  0  0  0  0  0  0  0  0  0
    6.8254   -4.1877    1.3853 C   0  0  1  0  0  0  0  0  0  0  0  0
    3.3858   -3.2149    1.4724 C   0  0  0  0  0  0  0  0  0  0  0  0
    2.4723   -3.0835    2.5062 O   0  0  0  0  0  0  0  0  0  0  0  0
    2.1202   -1.7575    2.8711 C   0  0  0  0  0  0  0  0  0  0  0  0
    3.4683   -4.4181    0.8158 C   0  0  0  0  0  0  0  0  0  0  0  0
    1.0902   -5.3887    1.5064 H   0  0  0  0  0  0  0  0  0  0  0  0
    1.5889   -7.1524    1.8263 H   0  0  0  0  0  0  0  0  0  0  0  0
    4.2378   -7.3828    2.2996 H   0  0  0  0  0  0  0  0  0  0  0  0
    4.1756   -7.6405    0.5827 H   0  0  0  0  0  0  0  0  0  0  0  0
    6.3962   -6.4538    0.2015 H   0  0  0  0  0  0  0  0  0  0  0  0
    7.9610   -6.0389    2.1780 H   0  0  0  0  0  0  0  0  0  0  0  0
    6.3793   -5.6659    4.4520 H   0  0  0  0  0  0  0  0  0  0  0  0
    4.2722   -4.6370    3.3430 H   0  0  0  0  0  0  0  0  0  0  0  0
    5.2035   -3.7346   -0.0012 H   0  0  0  0  0  0  0  0  0  0  0  0
    5.7819   -3.7583   -1.6856 H   0  0  0  0  0  0  0  0  0  0  0  0
    0.8095   -3.6236   -1.3585 H   0  0  0  0  0  0  0  0  0  0  0  0
    2.0986   -4.6922   -1.2042 H   0  0  0  0  0  0  0  0  0  0  0  0
    1.7875   -3.9480   -2.8099 H   0  0  0  0  0  0  0  0  0  0  0  0
    5.1752   -0.2904    0.6309 H   0  0  0  0  0  0  0  0  0  0  0  0
    3.4698   -0.6720    0.5045 H   0  0  0  0  0  0  0  0  0  0  0  0
    5.6156   -0.9603    2.9806 H   0  0  0  0  0  0  0  0  0  0  0  0
    5.0684   -2.5624    3.6322 H   0  0  0  0  0  0  0  0  0  0  0  0
    6.9535   -1.9518    1.2491 H   0  0  0  0  0  0  0  0  0  0  0  0
    7.3794   -4.2798    0.4405 H   0  0  0  0  0  0  0  0  0  0  0  0
    1.2517   -1.8263    3.5211 H   0  0  0  0  0  0  0  0  0  0  0  0
    1.8368   -1.1310    2.0189 H   0  0  0  0  0  0  0  0  0  0  0  0
    2.9077   -1.2741    3.4451 H   0  0  0  0  0  0  0  0  0  0  0  0
  1  2  2  0
  1 25  1  0
  1 26  1  0
  2 24  1  0
  2  3  1  0
  3  4  1  0
  3 27  1  0
  3 28  1  0
  4  8  1  0
  4  5  1  0
  4 29  1  6
  5 20  1  0
  5  6  1  0
  5 30  1  1
  6  7  2  0
  6 31  1  0
  8  7  1  1
  7 32  1  0
  8 20  1  0
  8  9  1  0
  9 24  1  0
  9 10  1  0
  9 33  1  6
 10 11  2  3
 10 34  1  0
 11 12  1  0
 11 14  1  0
 12 13  1  0
 13 35  1  0
 13 36  1  0
 13 37  1  0
 14 15  2  0
 14 16  1  0
 17 16  1  6
 16 38  1  0
 16 39  1  0
 17 19  1  0
 17 18  1  0
 17 21  1  0
 18 19  1  0
 18 40  1  0
 18 41  1  0
 19 20  1  0
 19 42  1  6
 20 43  1  6
 21 22  1  0
 21 24  2  0
 22 23  1  0
 23 44  1  0
 23 45  1  0
 23 46  1  0
M  END
>  <i_m_ct_stereo_status>  (224) 
1

>  <s_m_source_file>  (224) 
/var/tmp/pbs.5076255.sched01/tmp25xsusm8/82mdre8bl4.sdf

>  <i_m_source_file_index>  (224) 
28

>  <i_lp_mmshare_version>  (224) 
48012

>  <i_f3d_flags>  (224) 
0

>  <s_epik_input>  (224) 
W0NIM11PQzE9QyhDKD1bQ0gyXSlbQ0gyXTIpW0NIXTMvW0NIXT1DKC9PW0NIM10pQyg9TylbQ0gyXVtDQF0xKFtDSDJdNClbQ0BASF00W0NASF01W0NASF0oW0NAQEhdMltDQF0zNTYpW0NIXT1bQ0hdNg==

>  <s_epik_cmdline>  (224) 
J2VwaWtfcHl0aG9uJywgJy1waHQnLCAnMi4wJywgJy1waCcsICc3LjAnLCAnLXRuJywgJzgnLCAnLW1hJywgJzIwMCcsICctaW1hZScsICc8aW5maWxlLm1hZT4nLCAnLW9tYWUnLCAnPG91dGZpbGUubWFlPic=

>  <r_lp_tautomer_probability>  (224) 
1

>  <r_epik_Ionization_Penalty>  (224) 
0

>  <r_epik_Ionization_Penalty_Charging>  (224) 
0

>  <r_epik_Ionization_Penalty_Neutral>  (224) 
0

>  <r_epik_State_Penalty>  (224) 
-0

>  <r_epik_Charging_Adjusted_Penalty>  (224) 
0

>  <i_epik_Tot_Q>  (224) 
0

>  <i_epik_Tot_abs_Q>  (224) 
0

>  <s_lp_Force_Field>  (224) 
OPLS3e

>  <r_lp_Energy>  (224) 
345.782

>  <b_lp_Chiralities_Consistent>  (224) 
1

>  <s_lp_Variant>  (224) 
79:0-2

>  <s_i_glide_gridfile>  (224) 
pfpi4k_grid

>  <i_i_glide_lignum>  (224) 
28

>  <i_i_glide_rotatable_bonds>  (224) 
2

>  <r_i_docking_score>  (224) 
-2.87743

>  <r_i_glide_ligand_efficiency>  (224) 
-0.119893

>  <r_i_glide_ligand_efficiency_sa>  (224) 
-0.345831

>  <r_i_glide_ligand_efficiency_ln>  (224) 
-0.688702

>  <r_i_glide_gscore>  (224) 
-2.87743

>  <r_i_glide_lipo>  (224) 
-0.587923

>  <r_i_glide_hbond>  (224) 
-0.0063474

>  <r_i_glide_metal>  (224) 
-0

>  <r_i_glide_rewards>  (224) 
-1.21093

>  <r_i_glide_evdw>  (224) 
-19.8078

>  <r_i_glide_ecoul>  (224) 
-0.281676

>  <r_i_glide_erotb>  (224) 
0

>  <r_i_glide_esite>  (224) 
-0.0395939

>  <r_i_glide_emodel>  (224) 
-23.7269

>  <r_i_glide_energy>  (224) 
-20.0895

>  <r_i_glide_einternal>  (224) 
0.45413

>  <r_i_glide_intrahb_reward>  (224) 
-0

>  <i_i_glide_confnum>  (224) 
1

>  <i_i_glide_posenum>  (224) 
1

>  <r_i_glide_eff_state_penalty>  (224) 
0

>  <ligand_id>  (224) 
79

>  <original_smiles>  (224) 
C=C1CC2C3C=CC24C2C=C(OC)C(=O)CC5(CC5C34)C(OC)=C12

>  <smiles>  (224) 
[H]C([H])=C1C2=C(OC([H])([H])[H])C34C([H])([H])C(=O)C(OC([H])([H])[H])=C([H])C2([H])C25C([H])=C([H])C([H])(C2([H])C1([H])[H])C5([H])C3([H])C4([H])[H]

$$$$
79:1:2
     RDKit          3D

 46 51  0  0  1  0  0  0  0  0999 V2000
    2.5057   -3.4420   -1.1863 C   0  0  0  0  0  0  0  0  0  0  0  0
    2.9471   -3.0559    0.0112 C   0  0  0  0  0  0  0  0  0  0  0  0
    3.5558   -1.5563    0.2954 C   0  0  0  0  0  0  0  0  0  0  0  0
    4.3263   -1.2925    1.7421 C   0  0  2  0  0  0  0  0  0  0  0  0
    5.8291   -1.5205    2.2770 C   0  0  2  0  0  0  0  0  0  0  0  0
    6.4896   -2.2043    1.1882 C   0  0  0  0  0  0  0  0  0  0  0  0
    5.5140   -3.0625    1.0361 C   0  0  0  0  0  0  0  0  0  0  0  0
    4.3876   -2.6830    2.1478 C   0  0  2  0  0  0  0  0  0  0  0  0
    2.9589   -3.2004    2.3132 C   0  0  1  0  0  0  0  0  0  0  0  0
    2.0300   -3.6214    3.5021 C   0  0  0  0  0  0  0  0  0  0  0  0
    1.5903   -4.9081    3.6510 C   0  0  0  0  0  0  0  0  0  0  0  0
    1.1220   -5.5749    2.5329 O   0  0  0  0  0  0  0  0  0  0  0  0
    0.3163   -6.7163    2.8308 C   0  0  0  0  0  0  0  0  0  0  0  0
    2.5853   -5.7000    4.4213 C   0  0  0  0  0  0  0  0  0  0  0  0
    2.4905   -5.8690    5.6370 O   0  0  0  0  0  0  0  0  0  0  0  0
    3.7886   -6.3416    3.6587 C   0  0  0  0  0  0  0  0  0  0  0  0
    4.5644   -5.4542    2.6568 C   0  0  2  0  0  0  0  0  0  0  0  0
    6.0882   -5.4519    2.5885 C   0  0  0  0  0  0  0  0  0  0  0  0
    5.5212   -4.3166    3.4334 C   0  0  1  0  0  0  0  0  0  0  0  0
    5.3181   -2.6921    3.2725 C   0  0  1  0  0  0  0  0  0  0  0  0
    3.7216   -5.1792    1.3223 C   0  0  0  0  0  0  0  0  0  0  0  0
    4.1073   -5.8817    0.1925 O   0  0  0  0  0  0  0  0  0  0  0  0
    4.5016   -7.2204    0.3751 C   0  0  0  0  0  0  0  0  0  0  0  0
    3.0111   -4.0130    1.1542 C   0  0  0  0  0  0  0  0  0  0  0  0
    2.1355   -4.4488   -1.3489 H   0  0  0  0  0  0  0  0  0  0  0  0
    2.4862   -2.7591   -2.0291 H   0  0  0  0  0  0  0  0  0  0  0  0
    4.2153   -1.3221   -0.5429 H   0  0  0  0  0  0  0  0  0  0  0  0
    2.7245   -0.8558    0.1856 H   0  0  0  0  0  0  0  0  0  0  0  0
    3.7384   -0.7054    2.4571 H   0  0  0  0  0  0  0  0  0  0  0  0
    6.3206   -0.6553    2.7370 H   0  0  0  0  0  0  0  0  0  0  0  0
    7.4345   -2.0343    0.6966 H   0  0  0  0  0  0  0  0  0  0  0  0
    5.5144   -3.8200    0.2670 H   0  0  0  0  0  0  0  0  0  0  0  0
    3.3744   -3.6530    3.1397 H   0  0  0  0  0  0  0  0  0  0  0  0
    2.2700   -3.1130    4.4466 H   0  0  0  0  0  0  0  0  0  0  0  0
   -0.0596   -7.1335    1.8953 H   0  0  0  0  0  0  0  0  0  0  0  0
   -0.5309   -6.4414    3.4574 H   0  0  0  0  0  0  0  0  0  0  0  0
    0.8810   -7.5027    3.3327 H   0  0  0  0  0  0  0  0  0  0  0  0
    4.4901   -6.7253    4.4031 H   0  0  0  0  0  0  0  0  0  0  0  0
    3.4041   -7.2128    3.1257 H   0  0  0  0  0  0  0  0  0  0  0  0
    6.5625   -6.2721    3.1106 H   0  0  0  0  0  0  0  0  0  0  0  0
    6.5604   -5.2372    1.6309 H   0  0  0  0  0  0  0  0  0  0  0  0
    5.6744   -4.5389    4.4947 H   0  0  0  0  0  0  0  0  0  0  0  0
    4.8930   -2.2290    4.1655 H   0  0  0  0  0  0  0  0  0  0  0  0
    4.5662   -7.6810   -0.6140 H   0  0  0  0  0  0  0  0  0  0  0  0
    3.7814   -7.7976    0.9459 H   0  0  0  0  0  0  0  0  0  0  0  0
    5.4854   -7.2991    0.8278 H   0  0  0  0  0  0  0  0  0  0  0  0
  1  2  2  0
  1 25  1  0
  1 26  1  0
  2 24  1  0
  2  3  1  0
  3  4  1  0
  3 27  1  0
  3 28  1  0
  4  8  1  0
  4  5  1  0
  4 29  1  1
  5 20  1  0
  5  6  1  0
  5 30  1  1
  6  7  2  0
  6 31  1  0
  8  7  1  6
  7 32  1  0
  8 20  1  0
  8  9  1  0
  9 24  1  0
  9 10  1  0
  9 33  1  6
 10 11  2  3
 10 34  1  0
 11 12  1  0
 11 14  1  0
 12 13  1  0
 13 35  1  0
 13 36  1  0
 13 37  1  0
 14 15  2  0
 14 16  1  0
 17 16  1  1
 16 38  1  0
 16 39  1  0
 17 19  1  0
 17 18  1  0
 17 21  1  0
 18 19  1  0
 18 40  1  0
 18 41  1  0
 19 20  1  0
 19 42  1  1
 20 43  1  1
 21 22  1  0
 21 24  2  0
 22 23  1  0
 23 44  1  0
 23 45  1  0
 23 46  1  0
M  END
>  <i_m_ct_stereo_status>  (225) 
1

>  <s_m_source_file>  (225) 
/var/tmp/pbs.5076255.sched01/tmp25xsusm8/82mdre8bl4.sdf

>  <i_m_source_file_index>  (225) 
28

>  <i_lp_mmshare_version>  (225) 
48012

>  <i_f3d_flags>  (225) 
0

>  <s_epik_input>  (225) 
W0NIM11PQzE9QyhDKD1bQ0gyXSlbQ0gyXTIpW0NIXTMvW0NIXT1DKC9PW0NIM10pQyg9TylbQ0gyXVtDQF0xKFtDSDJdNClbQ0BASF00W0NASF01W0NASF0oW0NAQEhdMltDQF0zNTYpW0NIXT1bQ0hdNg==

>  <s_epik_cmdline>  (225) 
J2VwaWtfcHl0aG9uJywgJy1waHQnLCAnMi4wJywgJy1waCcsICc3LjAnLCAnLXRuJywgJzgnLCAnLW1hJywgJzIwMCcsICctaW1hZScsICc8aW5maWxlLm1hZT4nLCAnLW9tYWUnLCAnPG91dGZpbGUubWFlPic=

>  <r_lp_tautomer_probability>  (225) 
1

>  <r_epik_Ionization_Penalty>  (225) 
0

>  <r_epik_Ionization_Penalty_Charging>  (225) 
0

>  <r_epik_Ionization_Penalty_Neutral>  (225) 
0

>  <r_epik_State_Penalty>  (225) 
-0

>  <r_epik_Charging_Adjusted_Penalty>  (225) 
0

>  <i_epik_Tot_Q>  (225) 
0

>  <i_epik_Tot_abs_Q>  (225) 
0

>  <s_lp_Force_Field>  (225) 
OPLS3e

>  <r_lp_Energy>  (225) 
345.782

>  <b_lp_Chiralities_Consistent>  (225) 
1

>  <s_lp_Variant>  (225) 
79:0-2

>  <s_i_glide_gridfile>  (225) 
pfpi4k_grid

>  <i_i_glide_lignum>  (225) 
28

>  <i_i_glide_rotatable_bonds>  (225) 
2

>  <r_i_docking_score>  (225) 
-2.5849

>  <r_i_glide_ligand_efficiency>  (225) 
-0.107704

>  <r_i_glide_ligand_efficiency_sa>  (225) 
-0.310673

>  <r_i_glide_ligand_efficiency_ln>  (225) 
-0.618686

>  <r_i_glide_gscore>  (225) 
-2.5849

>  <r_i_glide_lipo>  (225) 
-0.545735

>  <r_i_glide_hbond>  (225) 
-0.0162789

>  <r_i_glide_metal>  (225) 
-0

>  <r_i_glide_rewards>  (225) 
-1.21093

>  <r_i_glide_evdw>  (225) 
-16.748

>  <r_i_glide_ecoul>  (225) 
0.169586

>  <r_i_glide_erotb>  (225) 
0

>  <r_i_glide_esite>  (225) 
0

>  <r_i_glide_emodel>  (225) 
-20.1819

>  <r_i_glide_energy>  (225) 
-16.5784

>  <r_i_glide_einternal>  (225) 
0.548015

>  <r_i_glide_intrahb_reward>  (225) 
-0

>  <i_i_glide_confnum>  (225) 
2

>  <i_i_glide_posenum>  (225) 
26

>  <r_i_glide_eff_state_penalty>  (225) 
0

>  <ligand_id>  (225) 
79

>  <original_smiles>  (225) 
C=C1CC2C3C=CC24C2C=C(OC)C(=O)CC5(CC5C34)C(OC)=C12

>  <smiles>  (225) 
[H]C([H])=C1C2=C(OC([H])([H])[H])C34C([H])([H])C(=O)C(OC([H])([H])[H])=C([H])C2([H])C25C([H])=C([H])C([H])(C2([H])C1([H])[H])C5([H])C3([H])C4([H])[H]

$$$$
79:2:0
     RDKit          3D

 46 51  0  0  1  0  0  0  0  0999 V2000
    4.3631   -8.1380    1.2544 C   0  0  0  0  0  0  0  0  0  0  0  0
    4.8251   -6.9448    1.6398 C   0  0  0  0  0  0  0  0  0  0  0  0
    5.5274   -6.7062    3.0968 C   0  0  0  0  0  0  0  0  0  0  0  0
    5.9797   -5.1484    3.5293 C   0  0  2  0  0  0  0  0  0  0  0  0
    5.2546   -3.8499    4.2221 C   0  0  2  0  0  0  0  0  0  0  0  0
    3.8767   -4.2898    4.4000 C   0  0  0  0  0  0  0  0  0  0  0  0
    3.7942   -4.7849    3.1893 C   0  0  0  0  0  0  0  0  0  0  0  0
    5.2215   -4.4567    2.4890 C   0  0  2  0  0  0  0  0  0  0  0  0
    5.7597   -4.8523    1.1211 C   0  0  2  0  0  0  0  0  0  0  0  0
    6.4567   -3.8006    0.2215 C   0  0  0  0  0  0  0  0  0  0  0  0
    6.1515   -3.1548   -0.9319 C   0  0  0  0  0  0  0  0  0  0  0  0
    7.0493   -2.3058   -1.5426 O   0  0  0  0  0  0  0  0  0  0  0  0
    8.4259   -2.6784   -1.4711 C   0  0  0  0  0  0  0  0  0  0  0  0
    4.8749   -3.2948   -1.6484 C   0  0  0  0  0  0  0  0  0  0  0  0
    4.8387   -3.5739   -2.8432 O   0  0  0  0  0  0  0  0  0  0  0  0
    3.5813   -2.9294   -0.9184 C   0  0  0  0  0  0  0  0  0  0  0  0
    3.4636   -3.5194    0.4770 C   0  0  2  0  0  0  0  0  0  0  0  0
    2.5674   -2.8176    1.4919 C   0  0  0  0  0  0  0  0  0  0  0  0
    4.0781   -2.5858    1.6791 C   0  0  1  0  0  0  0  0  0  0  0  0
    5.2111   -3.0360    2.8059 C   0  0  1  0  0  0  0  0  0  0  0  0
    3.4969   -5.0836    0.4096 C   0  0  0  0  0  0  0  0  0  0  0  0
    2.2580   -5.6830    0.2283 O   0  0  0  0  0  0  0  0  0  0  0  0
    1.5533   -6.2747    1.3192 C   0  0  0  0  0  0  0  0  0  0  0  0
    4.6493   -5.7277    0.7906 C   0  0  0  0  0  0  0  0  0  0  0  0
    3.8634   -8.2561    0.3019 H   0  0  0  0  0  0  0  0  0  0  0  0
    4.4105   -9.0136    1.8876 H   0  0  0  0  0  0  0  0  0  0  0  0
    4.8633   -7.1581    3.8397 H   0  0  0  0  0  0  0  0  0  0  0  0
    6.4205   -7.3376    3.1084 H   0  0  0  0  0  0  0  0  0  0  0  0
    7.0637   -5.0364    3.4455 H   0  0  0  0  0  0  0  0  0  0  0  0
    5.7267   -3.3671    5.0939 H   0  0  0  0  0  0  0  0  0  0  0  0
    3.2075   -4.3367    5.2349 H   0  0  0  0  0  0  0  0  0  0  0  0
    3.0067   -5.3541    2.9117 H   0  0  0  0  0  0  0  0  0  0  0  0
    6.6561   -5.4930    1.2026 H   0  0  0  0  0  0  0  0  0  0  0  0
    7.3944   -3.5582    0.6949 H   0  0  0  0  0  0  0  0  0  0  0  0
    9.0013   -2.0574   -2.1564 H   0  0  0  0  0  0  0  0  0  0  0  0
    8.5725   -3.7157   -1.7758 H   0  0  0  0  0  0  0  0  0  0  0  0
    8.8632   -2.5304   -0.4832 H   0  0  0  0  0  0  0  0  0  0  0  0
    3.5331   -1.8440   -0.8479 H   0  0  0  0  0  0  0  0  0  0  0  0
    2.7293   -3.2153   -1.5391 H   0  0  0  0  0  0  0  0  0  0  0  0
    2.0001   -1.9785    1.0848 H   0  0  0  0  0  0  0  0  0  0  0  0
    2.0155   -3.3944    2.2358 H   0  0  0  0  0  0  0  0  0  0  0  0
    4.3298   -1.5830    1.3401 H   0  0  0  0  0  0  0  0  0  0  0  0
    6.1731   -2.5508    2.6472 H   0  0  0  0  0  0  0  0  0  0  0  0
    0.6823   -6.8311    1.1093 H   0  0  0  0  0  0  0  0  0  0  0  0
    1.2472   -5.4135    1.9470 H   0  0  0  0  0  0  0  0  0  0  0  0
    2.1805   -6.9076    1.9909 H   0  0  0  0  0  0  0  0  0  0  0  0
  1  2  2  0
  1 25  1  0
  1 26  1  0
  2 24  1  0
  2  3  1  0
  3  4  1  0
  3 27  1  0
  3 28  1  0
  4  8  1  0
  4  5  1  0
  4 29  1  6
  5 20  1  0
  5  6  1  0
  5 30  1  1
  6  7  2  0
  6 31  1  0
  8  7  1  6
  7 32  1  0
  8 20  1  0
  8  9  1  0
  9 24  1  0
  9 10  1  0
  9 33  1  1
 10 11  2  3
 10 34  1  0
 11 12  1  0
 11 14  1  0
 12 13  1  0
 13 35  1  0
 13 36  1  0
 13 37  1  0
 14 15  2  0
 14 16  1  0
 17 16  1  6
 16 38  1  0
 16 39  1  0
 17 19  1  0
 17 18  1  0
 17 21  1  0
 18 19  1  0
 18 40  1  0
 18 41  1  0
 19 20  1  0
 19 42  1  6
 20 43  1  6
 21 22  1  0
 21 24  2  0
 22 23  1  0
 23 44  1  0
 23 45  1  0
 23 46  1  0
M  END
>  <i_m_ct_stereo_status>  (226) 
1

>  <s_m_source_file>  (226) 
/var/tmp/pbs.5076255.sched01/tmp25xsusm8/82mdre8bl4.sdf

>  <i_m_source_file_index>  (226) 
29

>  <i_lp_mmshare_version>  (226) 
48012

>  <i_f3d_flags>  (226) 
0

>  <s_epik_input>  (226) 
W0NIM11PQzE9QyhDKD1bQ0gyXSlbQ0gyXTIpW0NIXTMvW0NIXT1DKC9PW0NIM10pQyg9TylbQ0gyXVtDQF0xKFtDSDJdNClbQ0BASF00W0NASF01W0NASF0oW0NAQEhdMltDQF0zNTYpW0NIXT1bQ0hdNg==

>  <s_epik_cmdline>  (226) 
J2VwaWtfcHl0aG9uJywgJy1waHQnLCAnMi4wJywgJy1waCcsICc3LjAnLCAnLXRuJywgJzgnLCAnLW1hJywgJzIwMCcsICctaW1hZScsICc8aW5maWxlLm1hZT4nLCAnLW9tYWUnLCAnPG91dGZpbGUubWFlPic=

>  <r_lp_tautomer_probability>  (226) 
1

>  <r_epik_Ionization_Penalty>  (226) 
0

>  <r_epik_Ionization_Penalty_Charging>  (226) 
0

>  <r_epik_Ionization_Penalty_Neutral>  (226) 
0

>  <r_epik_State_Penalty>  (226) 
-0

>  <r_epik_Charging_Adjusted_Penalty>  (226) 
0

>  <i_epik_Tot_Q>  (226) 
0

>  <i_epik_Tot_abs_Q>  (226) 
0

>  <s_lp_Force_Field>  (226) 
OPLS3e

>  <r_lp_Energy>  (226) 
255.556

>  <b_lp_Chiralities_Consistent>  (226) 
1

>  <s_lp_Variant>  (226) 
79:0-3

>  <s_i_glide_gridfile>  (226) 
pfpi4k_grid

>  <i_i_glide_lignum>  (226) 
29

>  <i_i_glide_rotatable_bonds>  (226) 
2

>  <r_i_docking_score>  (226) 
-3.22424

>  <r_i_glide_ligand_efficiency>  (226) 
-0.134343

>  <r_i_glide_ligand_efficiency_sa>  (226) 
-0.387513

>  <r_i_glide_ligand_efficiency_ln>  (226) 
-0.771708

>  <r_i_glide_gscore>  (226) 
-3.22424

>  <r_i_glide_lipo>  (226) 
-0.490835

>  <r_i_glide_hbond>  (226) 
-0.16

>  <r_i_glide_metal>  (226) 
-0

>  <r_i_glide_rewards>  (226) 
-1.27886

>  <r_i_glide_evdw>  (226) 
-21.4957

>  <r_i_glide_ecoul>  (226) 
-1.46507

>  <r_i_glide_erotb>  (226) 
0

>  <r_i_glide_esite>  (226) 
0

>  <r_i_glide_emodel>  (226) 
-21.9528

>  <r_i_glide_energy>  (226) 
-22.9607

>  <r_i_glide_einternal>  (226) 
7.09761

>  <r_i_glide_intrahb_reward>  (226) 
-0

>  <i_i_glide_confnum>  (226) 
1

>  <i_i_glide_posenum>  (226) 
18

>  <r_i_glide_eff_state_penalty>  (226) 
0

>  <ligand_id>  (226) 
79

>  <original_smiles>  (226) 
C=C1CC2C3C=CC24C2C=C(OC)C(=O)CC5(CC5C34)C(OC)=C12

>  <smiles>  (226) 
[H]C([H])=C1C2=C(OC([H])([H])[H])C34C([H])([H])C(=O)C(OC([H])([H])[H])=C([H])C2([H])C25C([H])=C([H])C([H])(C2([H])C1([H])[H])C5([H])C3([H])C4([H])[H]

$$$$
79:2:1
     RDKit          3D

 46 51  0  0  1  0  0  0  0  0999 V2000
    5.6759   -0.5216    3.0587 C   0  0  0  0  0  0  0  0  0  0  0  0
    5.8541   -1.4198    2.0681 C   0  0  0  0  0  0  0  0  0  0  0  0
    6.7254   -1.0963    0.7184 C   0  0  0  0  0  0  0  0  0  0  0  0
    6.6766   -2.2166   -0.5152 C   0  0  2  0  0  0  0  0  0  0  0  0
    5.7019   -2.4912   -1.7736 C   0  0  2  0  0  0  0  0  0  0  0  0
    4.6220   -1.5234   -1.5969 C   0  0  0  0  0  0  0  0  0  0  0  0
    4.4805   -1.7828   -0.3331 C   0  0  0  0  0  0  0  0  0  0  0  0
    5.5522   -2.9564   -0.0287 C   0  0  2  0  0  0  0  0  0  0  0  0
    5.9587   -3.6120    1.3016 C   0  0  2  0  0  0  0  0  0  0  0  0
    6.1135   -5.1383    1.4059 C   0  0  0  0  0  0  0  0  0  0  0  0
    5.4319   -6.1311    2.0120 C   0  0  0  0  0  0  0  0  0  0  0  0
    5.8648   -7.4474    2.0385 O   0  0  0  0  0  0  0  0  0  0  0  0
    7.2622   -7.6773    1.8800 C   0  0  0  0  0  0  0  0  0  0  0  0
    4.1373   -5.9410    2.6938 C   0  0  0  0  0  0  0  0  0  0  0  0
    3.9385   -6.2887    3.8556 O   0  0  0  0  0  0  0  0  0  0  0  0
    2.9509   -5.3848    1.8952 C   0  0  0  0  0  0  0  0  0  0  0  0
    3.2833   -4.1270    1.1060 C   0  0  2  0  0  0  0  0  0  0  0  0
    2.4631   -3.8147   -0.1470 C   0  0  0  0  0  0  0  0  0  0  0  0
    3.8241   -4.4338   -0.4124 C   0  0  1  0  0  0  0  0  0  0  0  0
    5.1868   -3.8466   -1.0798 C   0  0  1  0  0  0  0  0  0  0  0  0
    3.8365   -3.0139    2.0943 C   0  0  0  0  0  0  0  0  0  0  0  0
    2.9801   -2.0340    2.5624 O   0  0  0  0  0  0  0  0  0  0  0  0
    1.5887   -2.2366    2.4735 C   0  0  0  0  0  0  0  0  0  0  0  0
    5.1624   -2.7472    2.1341 C   0  0  0  0  0  0  0  0  0  0  0  0
    5.0699   -0.7623    3.9213 H   0  0  0  0  0  0  0  0  0  0  0  0
    6.1458    0.4468    3.0184 H   0  0  0  0  0  0  0  0  0  0  0  0
    6.4045   -0.1122    0.3654 H   0  0  0  0  0  0  0  0  0  0  0  0
    7.7550   -0.9652    1.0357 H   0  0  0  0  0  0  0  0  0  0  0  0
    7.5713   -2.8277   -0.6062 H   0  0  0  0  0  0  0  0  0  0  0  0
    6.1829   -2.6045   -2.7481 H   0  0  0  0  0  0  0  0  0  0  0  0
    4.1537   -0.8313   -2.2797 H   0  0  0  0  0  0  0  0  0  0  0  0
    3.7810   -1.2699    0.3103 H   0  0  0  0  0  0  0  0  0  0  0  0
    6.9943   -3.3949    1.5622 H   0  0  0  0  0  0  0  0  0  0  0  0
    7.0151   -5.3853    0.8660 H   0  0  0  0  0  0  0  0  0  0  0  0
    7.5087   -8.7135    2.1244 H   0  0  0  0  0  0  0  0  0  0  0  0
    7.8430   -7.0424    2.5510 H   0  0  0  0  0  0  0  0  0  0  0  0
    7.5971   -7.5104    0.8568 H   0  0  0  0  0  0  0  0  0  0  0  0
    2.5842   -6.1583    1.2203 H   0  0  0  0  0  0  0  0  0  0  0  0
    2.1416   -5.1679    2.5932 H   0  0  0  0  0  0  0  0  0  0  0  0
    1.6174   -4.4692   -0.3391 H   0  0  0  0  0  0  0  0  0  0  0  0
    2.2758   -2.7919   -0.4492 H   0  0  0  0  0  0  0  0  0  0  0  0
    3.7553   -5.4823   -0.6759 H   0  0  0  0  0  0  0  0  0  0  0  0
    5.9142   -4.6398   -1.2384 H   0  0  0  0  0  0  0  0  0  0  0  0
    1.0795   -1.4406    3.0133 H   0  0  0  0  0  0  0  0  0  0  0  0
    1.2624   -3.1894    2.8880 H   0  0  0  0  0  0  0  0  0  0  0  0
    1.2709   -2.1274    1.4448 H   0  0  0  0  0  0  0  0  0  0  0  0
  1  2  2  0
  1 25  1  0
  1 26  1  0
  2 24  1  0
  2  3  1  0
  3  4  1  0
  3 27  1  0
  3 28  1  0
  4  8  1  0
  4  5  1  0
  4 29  1  6
  5 20  1  0
  5  6  1  0
  5 30  1  6
  6  7  2  0
  6 31  1  0
  8  7  1  1
  7 32  1  0
  8 20  1  0
  8  9  1  0
  9 24  1  0
  9 10  1  0
  9 33  1  1
 10 11  2  3
 10 34  1  0
 11 12  1  0
 11 14  1  0
 12 13  1  0
 13 35  1  0
 13 36  1  0
 13 37  1  0
 14 15  2  0
 14 16  1  0
 17 16  1  1
 16 38  1  0
 16 39  1  0
 17 19  1  0
 17 18  1  0
 17 21  1  0
 18 19  1  0
 18 40  1  0
 18 41  1  0
 19 20  1  0
 19 42  1  1
 20 43  1  6
 21 22  1  0
 21 24  2  0
 22 23  1  0
 23 44  1  0
 23 45  1  0
 23 46  1  0
M  END
>  <i_m_ct_stereo_status>  (227) 
1

>  <s_m_source_file>  (227) 
/var/tmp/pbs.5076255.sched01/tmp25xsusm8/82mdre8bl4.sdf

>  <i_m_source_file_index>  (227) 
29

>  <i_lp_mmshare_version>  (227) 
48012

>  <i_f3d_flags>  (227) 
0

>  <s_epik_input>  (227) 
W0NIM11PQzE9QyhDKD1bQ0gyXSlbQ0gyXTIpW0NIXTMvW0NIXT1DKC9PW0NIM10pQyg9TylbQ0gyXVtDQF0xKFtDSDJdNClbQ0BASF00W0NASF01W0NASF0oW0NAQEhdMltDQF0zNTYpW0NIXT1bQ0hdNg==

>  <s_epik_cmdline>  (227) 
J2VwaWtfcHl0aG9uJywgJy1waHQnLCAnMi4wJywgJy1waCcsICc3LjAnLCAnLXRuJywgJzgnLCAnLW1hJywgJzIwMCcsICctaW1hZScsICc8aW5maWxlLm1hZT4nLCAnLW9tYWUnLCAnPG91dGZpbGUubWFlPic=

>  <r_lp_tautomer_probability>  (227) 
1

>  <r_epik_Ionization_Penalty>  (227) 
0

>  <r_epik_Ionization_Penalty_Charging>  (227) 
0

>  <r_epik_Ionization_Penalty_Neutral>  (227) 
0

>  <r_epik_State_Penalty>  (227) 
-0

>  <r_epik_Charging_Adjusted_Penalty>  (227) 
0

>  <i_epik_Tot_Q>  (227) 
0

>  <i_epik_Tot_abs_Q>  (227) 
0

>  <s_lp_Force_Field>  (227) 
OPLS3e

>  <r_lp_Energy>  (227) 
255.556

>  <b_lp_Chiralities_Consistent>  (227) 
1

>  <s_lp_Variant>  (227) 
79:0-3

>  <s_i_glide_gridfile>  (227) 
pfpi4k_grid

>  <i_i_glide_lignum>  (227) 
29

>  <i_i_glide_rotatable_bonds>  (227) 
2

>  <r_i_docking_score>  (227) 
-2.98028

>  <r_i_glide_ligand_efficiency>  (227) 
-0.124178

>  <r_i_glide_ligand_efficiency_sa>  (227) 
-0.358192

>  <r_i_glide_ligand_efficiency_ln>  (227) 
-0.713317

>  <r_i_glide_gscore>  (227) 
-2.98028

>  <r_i_glide_lipo>  (227) 
-0.613686

>  <r_i_glide_hbond>  (227) 
0

>  <r_i_glide_metal>  (227) 
-0

>  <r_i_glide_rewards>  (227) 
-1.21093

>  <r_i_glide_evdw>  (227) 
-19.5115

>  <r_i_glide_ecoul>  (227) 
-1.20061

>  <r_i_glide_erotb>  (227) 
0

>  <r_i_glide_esite>  (227) 
0

>  <r_i_glide_emodel>  (227) 
-24.4728

>  <r_i_glide_energy>  (227) 
-20.7121

>  <r_i_glide_einternal>  (227) 
0.613174

>  <r_i_glide_intrahb_reward>  (227) 
-0

>  <i_i_glide_confnum>  (227) 
1

>  <i_i_glide_posenum>  (227) 
16

>  <r_i_glide_eff_state_penalty>  (227) 
0

>  <ligand_id>  (227) 
79

>  <original_smiles>  (227) 
C=C1CC2C3C=CC24C2C=C(OC)C(=O)CC5(CC5C34)C(OC)=C12

>  <smiles>  (227) 
[H]C([H])=C1C2=C(OC([H])([H])[H])C34C([H])([H])C(=O)C(OC([H])([H])[H])=C([H])C2([H])C25C([H])=C([H])C([H])(C2([H])C1([H])[H])C5([H])C3([H])C4([H])[H]

$$$$
79:2:2
     RDKit          3D

 46 51  0  0  1  0  0  0  0  0999 V2000
    1.6809   -1.4708    2.4534 C   0  0  0  0  0  0  0  0  0  0  0  0
    2.9759   -1.8201    2.4071 C   0  0  0  0  0  0  0  0  0  0  0  0
    4.1682   -0.7471    2.7243 C   0  0  0  0  0  0  0  0  0  0  0  0
    5.7146   -1.2380    2.4331 C   0  0  2  0  0  0  0  0  0  0  0  0
    6.7081   -1.2272    1.1588 C   0  0  2  0  0  0  0  0  0  0  0  0
    5.8761   -0.7496    0.0820 C   0  0  0  0  0  0  0  0  0  0  0  0
    4.8762   -1.5278    0.3894 C   0  0  0  0  0  0  0  0  0  0  0  0
    5.3925   -2.4174    1.6390 C   0  0  2  0  0  0  0  0  0  0  0  0
    4.6849   -3.4089    2.5183 C   0  0  2  0  0  0  0  0  0  0  0  0
    5.3467   -4.7634    2.8905 C   0  0  0  0  0  0  0  0  0  0  0  0
    5.1137   -6.0554    2.5625 C   0  0  0  0  0  0  0  0  0  0  0  0
    5.8440   -7.1105    3.0897 O   0  0  0  0  0  0  0  0  0  0  0  0
    7.2510   -6.9472    3.2246 C   0  0  0  0  0  0  0  0  0  0  0  0
    4.1518   -6.4840    1.5320 C   0  0  0  0  0  0  0  0  0  0  0  0
    3.2605   -7.3057    1.7542 O   0  0  0  0  0  0  0  0  0  0  0  0
    4.3239   -5.9628    0.1121 C   0  0  0  0  0  0  0  0  0  0  0  0
    4.4781   -4.4613    0.0137 C   0  0  2  0  0  0  0  0  0  0  0  0
    5.1755   -3.8804   -1.2158 C   0  0  0  0  0  0  0  0  0  0  0  0
    6.0504   -3.9455    0.0446 C   0  0  1  0  0  0  0  0  0  0  0  0
    6.6503   -2.8319    1.0546 C   0  0  1  0  0  0  0  0  0  0  0  0
    3.2531   -3.7563    0.7218 C   0  0  0  0  0  0  0  0  0  0  0  0
    2.2270   -3.2874   -0.0897 O   0  0  0  0  0  0  0  0  0  0  0  0
    1.9347   -3.9796   -1.2757 C   0  0  0  0  0  0  0  0  0  0  0  0
    3.3936   -3.1870    1.9512 C   0  0  0  0  0  0  0  0  0  0  0  0
    0.9187   -2.1886    2.1858 H   0  0  0  0  0  0  0  0  0  0  0  0
    1.3780   -0.4722    2.7301 H   0  0  0  0  0  0  0  0  0  0  0  0
    3.9351    0.1811    2.1909 H   0  0  0  0  0  0  0  0  0  0  0  0
    4.0612   -0.4812    3.7772 H   0  0  0  0  0  0  0  0  0  0  0  0
    6.1878   -1.5230    3.3584 H   0  0  0  0  0  0  0  0  0  0  0  0
    7.7080   -0.8097    1.2842 H   0  0  0  0  0  0  0  0  0  0  0  0
    6.0231    0.0394   -0.6265 H   0  0  0  0  0  0  0  0  0  0  0  0
    3.9180   -1.5022   -0.1203 H   0  0  0  0  0  0  0  0  0  0  0  0
    4.6074   -3.0630    3.5620 H   0  0  0  0  0  0  0  0  0  0  0  0
    6.0974   -4.5824    3.6406 H   0  0  0  0  0  0  0  0  0  0  0  0
    7.6194   -7.7453    3.8759 H   0  0  0  0  0  0  0  0  0  0  0  0
    7.6081   -6.0203    3.6604 H   0  0  0  0  0  0  0  0  0  0  0  0
    7.7290   -7.0792    2.2515 H   0  0  0  0  0  0  0  0  0  0  0  0
    5.1751   -6.4632   -0.3547 H   0  0  0  0  0  0  0  0  0  0  0  0
    3.4383   -6.2553   -0.4379 H   0  0  0  0  0  0  0  0  0  0  0  0
    5.3944   -4.5895   -2.0019 H   0  0  0  0  0  0  0  0  0  0  0  0
    4.8332   -2.9258   -1.6054 H   0  0  0  0  0  0  0  0  0  0  0  0
    6.7744   -4.7648   -0.0278 H   0  0  0  0  0  0  0  0  0  0  0  0
    7.3434   -3.2711    1.7618 H   0  0  0  0  0  0  0  0  0  0  0  0
    1.0197   -3.5754   -1.6973 H   0  0  0  0  0  0  0  0  0  0  0  0
    1.7561   -5.0349   -1.0823 H   0  0  0  0  0  0  0  0  0  0  0  0
    2.7038   -3.8546   -2.0349 H   0  0  0  0  0  0  0  0  0  0  0  0
  1  2  2  0
  1 25  1  0
  1 26  1  0
  2 24  1  0
  2  3  1  0
  3  4  1  0
  3 27  1  0
  3 28  1  0
  4  8  1  0
  4  5  1  0
  4 29  1  1
  5 20  1  0
  5  6  1  0
  5 30  1  1
  6  7  2  0
  6 31  1  0
  8  7  1  6
  7 32  1  0
  8 20  1  0
  8  9  1  0
  9 24  1  0
  9 10  1  0
  9 33  1  1
 10 11  2  3
 10 34  1  0
 11 12  1  0
 11 14  1  0
 12 13  1  0
 13 35  1  0
 13 36  1  0
 13 37  1  0
 14 15  2  0
 14 16  1  0
 17 16  1  6
 16 38  1  0
 16 39  1  0
 17 19  1  0
 17 18  1  0
 17 21  1  0
 18 19  1  0
 18 40  1  0
 18 41  1  0
 19 20  1  0
 19 42  1  6
 20 43  1  1
 21 22  1  0
 21 24  2  0
 22 23  1  0
 23 44  1  0
 23 45  1  0
 23 46  1  0
M  END
>  <i_m_ct_stereo_status>  (228) 
1

>  <s_m_source_file>  (228) 
/var/tmp/pbs.5076255.sched01/tmp25xsusm8/82mdre8bl4.sdf

>  <i_m_source_file_index>  (228) 
29

>  <i_lp_mmshare_version>  (228) 
48012

>  <i_f3d_flags>  (228) 
0

>  <s_epik_input>  (228) 
W0NIM11PQzE9QyhDKD1bQ0gyXSlbQ0gyXTIpW0NIXTMvW0NIXT1DKC9PW0NIM10pQyg9TylbQ0gyXVtDQF0xKFtDSDJdNClbQ0BASF00W0NASF01W0NASF0oW0NAQEhdMltDQF0zNTYpW0NIXT1bQ0hdNg==

>  <s_epik_cmdline>  (228) 
J2VwaWtfcHl0aG9uJywgJy1waHQnLCAnMi4wJywgJy1waCcsICc3LjAnLCAnLXRuJywgJzgnLCAnLW1hJywgJzIwMCcsICctaW1hZScsICc8aW5maWxlLm1hZT4nLCAnLW9tYWUnLCAnPG91dGZpbGUubWFlPic=

>  <r_lp_tautomer_probability>  (228) 
1

>  <r_epik_Ionization_Penalty>  (228) 
0

>  <r_epik_Ionization_Penalty_Charging>  (228) 
0

>  <r_epik_Ionization_Penalty_Neutral>  (228) 
0

>  <r_epik_State_Penalty>  (228) 
-0

>  <r_epik_Charging_Adjusted_Penalty>  (228) 
0

>  <i_epik_Tot_Q>  (228) 
0

>  <i_epik_Tot_abs_Q>  (228) 
0

>  <s_lp_Force_Field>  (228) 
OPLS3e

>  <r_lp_Energy>  (228) 
255.556

>  <b_lp_Chiralities_Consistent>  (228) 
1

>  <s_lp_Variant>  (228) 
79:0-3

>  <s_i_glide_gridfile>  (228) 
pfpi4k_grid

>  <i_i_glide_lignum>  (228) 
29

>  <i_i_glide_rotatable_bonds>  (228) 
2

>  <r_i_docking_score>  (228) 
-2.85247

>  <r_i_glide_ligand_efficiency>  (228) 
-0.118853

>  <r_i_glide_ligand_efficiency_sa>  (228) 
-0.342831

>  <r_i_glide_ligand_efficiency_ln>  (228) 
-0.682727

>  <r_i_glide_gscore>  (228) 
-2.85247

>  <r_i_glide_lipo>  (228) 
-0.530957

>  <r_i_glide_hbond>  (228) 
-0.0160252

>  <r_i_glide_metal>  (228) 
-0

>  <r_i_glide_rewards>  (228) 
-1.29108

>  <r_i_glide_evdw>  (228) 
-15.7413

>  <r_i_glide_ecoul>  (228) 
-1.51562

>  <r_i_glide_erotb>  (228) 
0

>  <r_i_glide_esite>  (228) 
0

>  <r_i_glide_emodel>  (228) 
-19.9002

>  <r_i_glide_energy>  (228) 
-17.2569

>  <r_i_glide_einternal>  (228) 
2.20197

>  <r_i_glide_intrahb_reward>  (228) 
-0

>  <i_i_glide_confnum>  (228) 
1

>  <i_i_glide_posenum>  (228) 
25

>  <r_i_glide_eff_state_penalty>  (228) 
0

>  <ligand_id>  (228) 
79

>  <original_smiles>  (228) 
C=C1CC2C3C=CC24C2C=C(OC)C(=O)CC5(CC5C34)C(OC)=C12

>  <smiles>  (228) 
[H]C([H])=C1C2=C(OC([H])([H])[H])C34C([H])([H])C(=O)C(OC([H])([H])[H])=C([H])C2([H])C25C([H])=C([H])C([H])(C2([H])C1([H])[H])C5([H])C3([H])C4([H])[H]

$$$$
79:3:0
     RDKit          3D

 46 51  0  0  1  0  0  0  0  0999 V2000
    2.4356   -5.1957    0.1590 C   0  0  0  0  0  0  0  0  0  0  0  0
    2.8297   -3.9812   -0.2631 C   0  0  0  0  0  0  0  0  0  0  0  0
    2.4875   -3.3866   -1.7577 C   0  0  0  0  0  0  0  0  0  0  0  0
    3.2456   -1.9896   -2.2140 C   0  0  2  0  0  0  0  0  0  0  0  0
    4.6579   -1.6374   -2.8964 C   0  0  2  0  0  0  0  0  0  0  0  0
    5.3703   -2.9035   -2.9299 C   0  0  0  0  0  0  0  0  0  0  0  0
    5.0581   -3.2070   -1.7045 C   0  0  0  0  0  0  0  0  0  0  0  0
    4.1992   -1.9491   -1.1325 C   0  0  2  0  0  0  0  0  0  0  0  0
    3.4305   -1.7753    0.2056 C   0  0  2  0  0  0  0  0  0  0  0  0
    3.7493   -0.6284    1.1598 C   0  0  0  0  0  0  0  0  0  0  0  0
    3.8873   -0.7946    2.4828 C   0  0  0  0  0  0  0  0  0  0  0  0
    3.2926   -1.8608    3.1105 O   0  0  0  0  0  0  0  0  0  0  0  0
    3.1012   -1.6813    4.5083 C   0  0  0  0  0  0  0  0  0  0  0  0
    5.2728   -0.5281    2.8653 C   0  0  0  0  0  0  0  0  0  0  0  0
    5.6059    0.2893    3.7229 O   0  0  0  0  0  0  0  0  0  0  0  0
    6.3386   -1.4411    2.2393 C   0  0  0  0  0  0  0  0  0  0  0  0
    6.0646   -2.1611    0.9133 C   0  0  2  0  0  0  0  0  0  0  0  0
    7.2235   -2.2948   -0.0674 C   0  0  0  0  0  0  0  0  0  0  0  0
    6.2392   -1.1630   -0.3743 C   0  0  1  0  0  0  0  0  0  0  0  0
    5.1055   -0.9224   -1.5272 C   0  0  1  0  0  0  0  0  0  0  0  0
    4.9736   -3.3247    1.0667 C   0  0  0  0  0  0  0  0  0  0  0  0
    5.4260   -4.6211    1.1576 O   0  0  0  0  0  0  0  0  0  0  0  0
    6.6077   -4.8469    1.8928 C   0  0  0  0  0  0  0  0  0  0  0  0
    3.6917   -3.1217    0.5975 C   0  0  0  0  0  0  0  0  0  0  0  0
    2.7199   -5.5594    1.1442 H   0  0  0  0  0  0  0  0  0  0  0  0
    1.8495   -5.8437   -0.4760 H   0  0  0  0  0  0  0  0  0  0  0  0
    2.7200   -4.1631   -2.4848 H   0  0  0  0  0  0  0  0  0  0  0  0
    1.4081   -3.2888   -1.8341 H   0  0  0  0  0  0  0  0  0  0  0  0
    2.6052   -1.1120   -2.2534 H   0  0  0  0  0  0  0  0  0  0  0  0
    4.6118   -1.0038   -3.7873 H   0  0  0  0  0  0  0  0  0  0  0  0
    5.9164   -3.4146   -3.7080 H   0  0  0  0  0  0  0  0  0  0  0  0
    5.3393   -4.1474   -1.2465 H   0  0  0  0  0  0  0  0  0  0  0  0
    2.3591   -1.7189    0.1421 H   0  0  0  0  0  0  0  0  0  0  0  0
    4.3192    0.1622    0.6987 H   0  0  0  0  0  0  0  0  0  0  0  0
    2.5086   -2.5129    4.8965 H   0  0  0  0  0  0  0  0  0  0  0  0
    2.5683   -0.7486    4.7101 H   0  0  0  0  0  0  0  0  0  0  0  0
    4.0517   -1.6683    5.0477 H   0  0  0  0  0  0  0  0  0  0  0  0
    7.2526   -0.8506    2.1425 H   0  0  0  0  0  0  0  0  0  0  0  0
    6.4833   -2.2303    2.9564 H   0  0  0  0  0  0  0  0  0  0  0  0
    8.1992   -2.0146    0.3304 H   0  0  0  0  0  0  0  0  0  0  0  0
    7.2776   -3.1956   -0.6720 H   0  0  0  0  0  0  0  0  0  0  0  0
    6.6186   -0.1932   -0.0505 H   0  0  0  0  0  0  0  0  0  0  0  0
    4.6285    0.0575   -1.4808 H   0  0  0  0  0  0  0  0  0  0  0  0
    6.7368   -5.9179    2.0289 H   0  0  0  0  0  0  0  0  0  0  0  0
    6.5294   -4.4101    2.8774 H   0  0  0  0  0  0  0  0  0  0  0  0
    7.4867   -4.4733    1.3813 H   0  0  0  0  0  0  0  0  0  0  0  0
  1  2  2  0
  1 25  1  0
  1 26  1  0
  2 24  1  0
  2  3  1  0
  3  4  1  0
  3 27  1  0
  3 28  1  0
  4  8  1  0
  4  5  1  0
  4 29  1  1
  5 20  1  0
  5  6  1  0
  5 30  1  6
  6  7  2  0
  6 31  1  0
  8  7  1  1
  7 32  1  0
  8 20  1  0
  8  9  1  0
  9 24  1  0
  9 10  1  0
  9 33  1  6
 10 11  2  3
 10 34  1  0
 11 12  1  0
 11 14  1  0
 12 13  1  0
 13 35  1  0
 13 36  1  0
 13 37  1  0
 14 15  2  0
 14 16  1  0
 17 16  1  1
 16 38  1  0
 16 39  1  0
 17 19  1  0
 17 18  1  0
 17 21  1  0
 18 19  1  0
 18 40  1  0
 18 41  1  0
 19 20  1  0
 19 42  1  1
 20 43  1  6
 21 22  1  0
 21 24  2  0
 22 23  1  0
 23 44  1  0
 23 45  1  0
 23 46  1  0
M  END
>  <i_m_ct_stereo_status>  (229) 
1

>  <s_m_source_file>  (229) 
/var/tmp/pbs.5076255.sched01/tmp25xsusm8/82mdre8bl4.sdf

>  <i_m_source_file_index>  (229) 
30

>  <i_lp_mmshare_version>  (229) 
48012

>  <i_f3d_flags>  (229) 
0

>  <s_epik_input>  (229) 
W0NIM11PQzE9QyhDKD1bQ0gyXSlbQ0gyXTIpW0NIXTMvW0NIXT1DKC9PW0NIM10pQyg9TylbQ0gyXVtDQF0xKFtDSDJdNClbQ0BASF00W0NASF01W0NASF0oW0NAQEhdMltDQF0zNTYpW0NIXT1bQ0hdNg==

>  <s_epik_cmdline>  (229) 
J2VwaWtfcHl0aG9uJywgJy1waHQnLCAnMi4wJywgJy1waCcsICc3LjAnLCAnLXRuJywgJzgnLCAnLW1hJywgJzIwMCcsICctaW1hZScsICc8aW5maWxlLm1hZT4nLCAnLW9tYWUnLCAnPG91dGZpbGUubWFlPic=

>  <r_lp_tautomer_probability>  (229) 
1

>  <r_epik_Ionization_Penalty>  (229) 
0

>  <r_epik_Ionization_Penalty_Charging>  (229) 
0

>  <r_epik_Ionization_Penalty_Neutral>  (229) 
0

>  <r_epik_State_Penalty>  (229) 
-0

>  <r_epik_Charging_Adjusted_Penalty>  (229) 
0

>  <i_epik_Tot_Q>  (229) 
0

>  <i_epik_Tot_abs_Q>  (229) 
0

>  <s_lp_Force_Field>  (229) 
OPLS3e

>  <r_lp_Energy>  (229) 
270.886

>  <b_lp_Chiralities_Consistent>  (229) 
1

>  <s_lp_Variant>  (229) 
79:0-4

>  <s_i_glide_gridfile>  (229) 
pfpi4k_grid

>  <i_i_glide_lignum>  (229) 
30

>  <i_i_glide_rotatable_bonds>  (229) 
2

>  <r_i_docking_score>  (229) 
-3.12504

>  <r_i_glide_ligand_efficiency>  (229) 
-0.13021

>  <r_i_glide_ligand_efficiency_sa>  (229) 
-0.37559

>  <r_i_glide_ligand_efficiency_ln>  (229) 
-0.747965

>  <r_i_glide_gscore>  (229) 
-3.12504

>  <r_i_glide_lipo>  (229) 
-0.706079

>  <r_i_glide_hbond>  (229) 
-0.019079

>  <r_i_glide_metal>  (229) 
-0

>  <r_i_glide_rewards>  (229) 
-1.38527

>  <r_i_glide_evdw>  (229) 
-16.3987

>  <r_i_glide_ecoul>  (229) 
-1.29784

>  <r_i_glide_erotb>  (229) 
0

>  <r_i_glide_esite>  (229) 
0

>  <r_i_glide_emodel>  (229) 
-21.3547

>  <r_i_glide_energy>  (229) 
-17.6965

>  <r_i_glide_einternal>  (229) 
0.226117

>  <r_i_glide_intrahb_reward>  (229) 
-0

>  <i_i_glide_confnum>  (229) 
2

>  <i_i_glide_posenum>  (229) 
3

>  <r_i_glide_eff_state_penalty>  (229) 
0

>  <ligand_id>  (229) 
79

>  <original_smiles>  (229) 
C=C1CC2C3C=CC24C2C=C(OC)C(=O)CC5(CC5C34)C(OC)=C12

>  <smiles>  (229) 
[H]C([H])=C1C2=C(OC([H])([H])[H])C34C([H])([H])C(=O)C(OC([H])([H])[H])=C([H])C2([H])C25C([H])=C([H])C([H])(C2([H])C1([H])[H])C5([H])C3([H])C4([H])[H]

$$$$
79:3:1
     RDKit          3D

 46 51  0  0  1  0  0  0  0  0999 V2000
    2.6504   -2.9059   -1.9274 C   0  0  0  0  0  0  0  0  0  0  0  0
    3.5904   -2.3553   -1.1295 C   0  0  0  0  0  0  0  0  0  0  0  0
    5.0295   -1.8394   -1.6788 C   0  0  0  0  0  0  0  0  0  0  0  0
    6.1628   -1.3141   -0.5422 C   0  0  2  0  0  0  0  0  0  0  0  0
    7.3008   -2.0279    0.3817 C   0  0  2  0  0  0  0  0  0  0  0  0
    7.1327   -3.4522    0.1032 C   0  0  0  0  0  0  0  0  0  0  0  0
    5.8520   -3.3280    0.2513 C   0  0  0  0  0  0  0  0  0  0  0  0
    5.4896   -1.8492    0.6303 C   0  0  2  0  0  0  0  0  0  0  0  0
    4.1352   -1.0882    0.7868 C   0  0  2  0  0  0  0  0  0  0  0  0
    3.7576   -0.4376    2.1319 C   0  0  0  0  0  0  0  0  0  0  0  0
    2.5576   -0.5696    2.7224 C   0  0  0  0  0  0  0  0  0  0  0  0
    1.4507   -0.8754    1.9930 O   0  0  0  0  0  0  0  0  0  0  0  0
    0.4676    0.1447    2.0019 C   0  0  0  0  0  0  0  0  0  0  0  0
    2.6530   -1.2921    3.9908 C   0  0  0  0  0  0  0  0  0  0  0  0
    2.3388   -0.8043    5.0760 O   0  0  0  0  0  0  0  0  0  0  0  0
    3.1195   -2.7659    3.8922 C   0  0  0  0  0  0  0  0  0  0  0  0
    4.0173   -3.1707    2.6842 C   0  0  2  0  0  0  0  0  0  0  0  0
    5.1541   -4.1490    2.9489 C   0  0  0  0  0  0  0  0  0  0  0  0
    5.5767   -2.6845    2.8325 C   0  0  1  0  0  0  0  0  0  0  0  0
    6.4292   -1.7771    1.7284 C   0  0  1  0  0  0  0  0  0  0  0  0
    3.2272   -3.2465    1.2963 C   0  0  0  0  0  0  0  0  0  0  0  0
    2.6455   -4.4896    1.0484 O   0  0  0  0  0  0  0  0  0  0  0  0
    3.3586   -5.4033    0.2018 C   0  0  0  0  0  0  0  0  0  0  0  0
    3.3935   -2.2715    0.3524 C   0  0  0  0  0  0  0  0  0  0  0  0
    1.7150   -3.2565   -1.5145 H   0  0  0  0  0  0  0  0  0  0  0  0
    2.7927   -3.0279   -2.9882 H   0  0  0  0  0  0  0  0  0  0  0  0
    5.4205   -2.6435   -2.3082 H   0  0  0  0  0  0  0  0  0  0  0  0
    4.8122   -1.0234   -2.3720 H   0  0  0  0  0  0  0  0  0  0  0  0
    6.2123   -0.2302   -0.4898 H   0  0  0  0  0  0  0  0  0  0  0  0
    8.3406   -1.6584    0.3361 H   0  0  0  0  0  0  0  0  0  0  0  0
    7.7882   -4.2312   -0.1842 H   0  0  0  0  0  0  0  0  0  0  0  0
    5.2272   -4.1749    0.0342 H   0  0  0  0  0  0  0  0  0  0  0  0
    4.0172   -0.2531    0.0859 H   0  0  0  0  0  0  0  0  0  0  0  0
    4.6121   -0.2910    2.7778 H   0  0  0  0  0  0  0  0  0  0  0  0
   -0.2931   -0.1341    1.2802 H   0  0  0  0  0  0  0  0  0  0  0  0
    0.8534    1.1083    1.6751 H   0  0  0  0  0  0  0  0  0  0  0  0
   -0.0102    0.2522    2.9753 H   0  0  0  0  0  0  0  0  0  0  0  0
    3.6688   -2.9766    4.8074 H   0  0  0  0  0  0  0  0  0  0  0  0
    2.2334   -3.3966    3.9371 H   0  0  0  0  0  0  0  0  0  0  0  0
    5.1605   -4.5828    3.9530 H   0  0  0  0  0  0  0  0  0  0  0  0
    5.4964   -4.8521    2.1899 H   0  0  0  0  0  0  0  0  0  0  0  0
    5.8110   -2.3001    3.8228 H   0  0  0  0  0  0  0  0  0  0  0  0
    6.6331   -0.7691    2.0861 H   0  0  0  0  0  0  0  0  0  0  0  0
    2.8139   -6.3212   -0.0247 H   0  0  0  0  0  0  0  0  0  0  0  0
    4.2298   -5.7519    0.7363 H   0  0  0  0  0  0  0  0  0  0  0  0
    3.6646   -5.0088   -0.7517 H   0  0  0  0  0  0  0  0  0  0  0  0
  1  2  2  0
  1 25  1  0
  1 26  1  0
  2 24  1  0
  2  3  1  0
  3  4  1  0
  3 27  1  0
  3 28  1  0
  4  8  1  0
  4  5  1  0
  4 29  1  1
  5 20  1  0
  5  6  1  0
  5 30  1  1
  6  7  2  0
  6 31  1  0
  8  7  1  6
  7 32  1  0
  8 20  1  0
  8  9  1  0
  9 24  1  0
  9 10  1  0
  9 33  1  6
 10 11  2  3
 10 34  1  0
 11 12  1  0
 11 14  1  0
 12 13  1  0
 13 35  1  0
 13 36  1  0
 13 37  1  0
 14 15  2  0
 14 16  1  0
 17 16  1  1
 16 38  1  0
 16 39  1  0
 17 19  1  0
 17 18  1  0
 17 21  1  0
 18 19  1  0
 18 40  1  0
 18 41  1  0
 19 20  1  0
 19 42  1  1
 20 43  1  1
 21 22  1  0
 21 24  2  0
 22 23  1  0
 23 44  1  0
 23 45  1  0
 23 46  1  0
M  END
>  <i_m_ct_stereo_status>  (230) 
1

>  <s_m_source_file>  (230) 
/var/tmp/pbs.5076255.sched01/tmp25xsusm8/82mdre8bl4.sdf

>  <i_m_source_file_index>  (230) 
30

>  <i_lp_mmshare_version>  (230) 
48012

>  <i_f3d_flags>  (230) 
0

>  <s_epik_input>  (230) 
W0NIM11PQzE9QyhDKD1bQ0gyXSlbQ0gyXTIpW0NIXTMvW0NIXT1DKC9PW0NIM10pQyg9TylbQ0gyXVtDQF0xKFtDSDJdNClbQ0BASF00W0NASF01W0NASF0oW0NAQEhdMltDQF0zNTYpW0NIXT1bQ0hdNg==

>  <s_epik_cmdline>  (230) 
J2VwaWtfcHl0aG9uJywgJy1waHQnLCAnMi4wJywgJy1waCcsICc3LjAnLCAnLXRuJywgJzgnLCAnLW1hJywgJzIwMCcsICctaW1hZScsICc8aW5maWxlLm1hZT4nLCAnLW9tYWUnLCAnPG91dGZpbGUubWFlPic=

>  <r_lp_tautomer_probability>  (230) 
1

>  <r_epik_Ionization_Penalty>  (230) 
0

>  <r_epik_Ionization_Penalty_Charging>  (230) 
0

>  <r_epik_Ionization_Penalty_Neutral>  (230) 
0

>  <r_epik_State_Penalty>  (230) 
-0

>  <r_epik_Charging_Adjusted_Penalty>  (230) 
0

>  <i_epik_Tot_Q>  (230) 
0

>  <i_epik_Tot_abs_Q>  (230) 
0

>  <s_lp_Force_Field>  (230) 
OPLS3e

>  <r_lp_Energy>  (230) 
270.886

>  <b_lp_Chiralities_Consistent>  (230) 
1

>  <s_lp_Variant>  (230) 
79:0-4

>  <s_i_glide_gridfile>  (230) 
pfpi4k_grid

>  <i_i_glide_lignum>  (230) 
30

>  <i_i_glide_rotatable_bonds>  (230) 
2

>  <r_i_docking_score>  (230) 
-2.79081

>  <r_i_glide_ligand_efficiency>  (230) 
-0.116284

>  <r_i_glide_ligand_efficiency_sa>  (230) 
-0.33542

>  <r_i_glide_ligand_efficiency_ln>  (230) 
-0.667968

>  <r_i_glide_gscore>  (230) 
-2.79081

>  <r_i_glide_lipo>  (230) 
-0.505121

>  <r_i_glide_hbond>  (230) 
0

>  <r_i_glide_metal>  (230) 
-0

>  <r_i_glide_rewards>  (230) 
-1.21093

>  <r_i_glide_evdw>  (230) 
-20.5524

>  <r_i_glide_ecoul>  (230) 
-0.314162

>  <r_i_glide_erotb>  (230) 
0

>  <r_i_glide_esite>  (230) 
-1.45791e-05

>  <r_i_glide_emodel>  (230) 
-18.691

>  <r_i_glide_energy>  (230) 
-20.8666

>  <r_i_glide_einternal>  (230) 
8.62577

>  <r_i_glide_intrahb_reward>  (230) 
-0

>  <i_i_glide_confnum>  (230) 
1

>  <i_i_glide_posenum>  (230) 
16

>  <r_i_glide_eff_state_penalty>  (230) 
0

>  <ligand_id>  (230) 
79

>  <original_smiles>  (230) 
C=C1CC2C3C=CC24C2C=C(OC)C(=O)CC5(CC5C34)C(OC)=C12

>  <smiles>  (230) 
[H]C([H])=C1C2=C(OC([H])([H])[H])C34C([H])([H])C(=O)C(OC([H])([H])[H])=C([H])C2([H])C25C([H])=C([H])C([H])(C2([H])C1([H])[H])C5([H])C3([H])C4([H])[H]

$$$$
79:3:2
     RDKit          3D

 46 51  0  0  1  0  0  0  0  0999 V2000
    2.3088   -3.4312   -1.7284 C   0  0  0  0  0  0  0  0  0  0  0  0
    3.3599   -2.7764   -1.2137 C   0  0  0  0  0  0  0  0  0  0  0  0
    4.7406   -2.5188   -2.0425 C   0  0  0  0  0  0  0  0  0  0  0  0
    6.0371   -1.8151   -1.2144 C   0  0  2  0  0  0  0  0  0  0  0  0
    7.2528   -2.3502   -0.2724 C   0  0  2  0  0  0  0  0  0  0  0  0
    6.9909   -3.7735   -0.1473 C   0  0  0  0  0  0  0  0  0  0  0  0
    5.7520   -3.5371    0.0985 C   0  0  0  0  0  0  0  0  0  0  0  0
    5.4915   -1.9801    0.1269 C   0  0  2  0  0  0  0  0  0  0  0  0
    4.2044   -1.1201    0.2463 C   0  0  2  0  0  0  0  0  0  0  0  0
    4.0216   -0.1382    1.4150 C   0  0  0  0  0  0  0  0  0  0  0  0
    2.9003   -0.0284    2.1632 C   0  0  0  0  0  0  0  0  0  0  0  0
    1.6999   -0.4361    1.6783 O   0  0  0  0  0  0  0  0  0  0  0  0
    0.6565    0.5122    1.8413 C   0  0  0  0  0  0  0  0  0  0  0  0
    3.1448   -0.4177    3.5487 C   0  0  0  0  0  0  0  0  0  0  0  0
    2.9852    0.3371    4.5066 O   0  0  0  0  0  0  0  0  0  0  0  0
    3.5320   -1.9053    3.7683 C   0  0  0  0  0  0  0  0  0  0  0  0
    4.2424   -2.6557    2.6034 C   0  0  2  0  0  0  0  0  0  0  0  0
    5.3703   -3.6180    2.9768 C   0  0  0  0  0  0  0  0  0  0  0  0
    5.8290   -2.2535    2.4440 C   0  0  1  0  0  0  0  0  0  0  0  0
    6.5739   -1.7113    1.0631 C   0  0  1  0  0  0  0  0  0  0  0  0
    3.2831   -3.0220    1.3877 C   0  0  0  0  0  0  0  0  0  0  0  0
    2.6386   -4.2457    1.5072 O   0  0  0  0  0  0  0  0  0  0  0  0
    3.1964   -5.3824    0.8285 C   0  0  0  0  0  0  0  0  0  0  0  0
    3.3661   -2.3128    0.2003 C   0  0  0  0  0  0  0  0  0  0  0  0
    1.4188   -3.6106   -1.1328 H   0  0  0  0  0  0  0  0  0  0  0  0
    2.3020   -3.8299   -2.7332 H   0  0  0  0  0  0  0  0  0  0  0  0
    5.0135   -3.4802   -2.4836 H   0  0  0  0  0  0  0  0  0  0  0  0
    4.4688   -1.8901   -2.8914 H   0  0  0  0  0  0  0  0  0  0  0  0
    6.1624   -0.7653   -1.4738 H   0  0  0  0  0  0  0  0  0  0  0  0
    8.2910   -2.0829   -0.5326 H   0  0  0  0  0  0  0  0  0  0  0  0
    7.5832   -4.6400   -0.3087 H   0  0  0  0  0  0  0  0  0  0  0  0
    5.0656   -4.3606    0.1619 H   0  0  0  0  0  0  0  0  0  0  0  0
    4.0297   -0.4774   -0.6304 H   0  0  0  0  0  0  0  0  0  0  0  0
    4.9570    0.1061    1.8958 H   0  0  0  0  0  0  0  0  0  0  0  0
   -0.2094    0.1541    1.2917 H   0  0  0  0  0  0  0  0  0  0  0  0
    0.9104    1.4932    1.4336 H   0  0  0  0  0  0  0  0  0  0  0  0
    0.3640    0.6251    2.8863 H   0  0  0  0  0  0  0  0  0  0  0  0
    4.1836   -1.9220    4.6382 H   0  0  0  0  0  0  0  0  0  0  0  0
    2.6330   -2.4388    4.0706 H   0  0  0  0  0  0  0  0  0  0  0  0
    5.4873   -3.7897    4.0484 H   0  0  0  0  0  0  0  0  0  0  0  0
    5.5759   -4.5103    2.3849 H   0  0  0  0  0  0  0  0  0  0  0  0
    6.1938   -1.6457    3.2694 H   0  0  0  0  0  0  0  0  0  0  0  0
    6.8575   -0.6633    1.1267 H   0  0  0  0  0  0  0  0  0  0  0  0
    2.6113   -6.3030    0.8935 H   0  0  0  0  0  0  0  0  0  0  0  0
    4.1271   -5.6303    1.3319 H   0  0  0  0  0  0  0  0  0  0  0  0
    3.3929   -5.2432   -0.2296 H   0  0  0  0  0  0  0  0  0  0  0  0
  1  2  2  0
  1 25  1  0
  1 26  1  0
  2 24  1  0
  2  3  1  0
  3  4  1  0
  3 27  1  0
  3 28  1  0
  4  8  1  0
  4  5  1  0
  4 29  1  6
  5 20  1  0
  5  6  1  0
  5 30  1  6
  6  7  2  0
  6 31  1  0
  8  7  1  6
  7 32  1  0
  8 20  1  0
  8  9  1  0
  9 24  1  0
  9 10  1  0
  9 33  1  6
 10 11  2  3
 10 34  1  0
 11 12  1  0
 11 14  1  0
 12 13  1  0
 13 35  1  0
 13 36  1  0
 13 37  1  0
 14 15  2  0
 14 16  1  0
 17 16  1  1
 16 38  1  0
 16 39  1  0
 17 19  1  0
 17 18  1  0
 17 21  1  0
 18 19  1  0
 18 40  1  0
 18 41  1  0
 19 20  1  0
 19 42  1  1
 20 43  1  1
 21 22  1  0
 21 24  2  0
 22 23  1  0
 23 44  1  0
 23 45  1  0
 23 46  1  0
M  END
>  <i_m_ct_stereo_status>  (231) 
1

>  <s_m_source_file>  (231) 
/var/tmp/pbs.5076255.sched01/tmp25xsusm8/82mdre8bl4.sdf

>  <i_m_source_file_index>  (231) 
30

>  <i_lp_mmshare_version>  (231) 
48012

>  <i_f3d_flags>  (231) 
0

>  <s_epik_input>  (231) 
W0NIM11PQzE9QyhDKD1bQ0gyXSlbQ0gyXTIpW0NIXTMvW0NIXT1DKC9PW0NIM10pQyg9TylbQ0gyXVtDQF0xKFtDSDJdNClbQ0BASF00W0NASF01W0NASF0oW0NAQEhdMltDQF0zNTYpW0NIXT1bQ0hdNg==

>  <s_epik_cmdline>  (231) 
J2VwaWtfcHl0aG9uJywgJy1waHQnLCAnMi4wJywgJy1waCcsICc3LjAnLCAnLXRuJywgJzgnLCAnLW1hJywgJzIwMCcsICctaW1hZScsICc8aW5maWxlLm1hZT4nLCAnLW9tYWUnLCAnPG91dGZpbGUubWFlPic=

>  <r_lp_tautomer_probability>  (231) 
1

>  <r_epik_Ionization_Penalty>  (231) 
0

>  <r_epik_Ionization_Penalty_Charging>  (231) 
0

>  <r_epik_Ionization_Penalty_Neutral>  (231) 
0

>  <r_epik_State_Penalty>  (231) 
-0

>  <r_epik_Charging_Adjusted_Penalty>  (231) 
0

>  <i_epik_Tot_Q>  (231) 
0

>  <i_epik_Tot_abs_Q>  (231) 
0

>  <s_lp_Force_Field>  (231) 
OPLS3e

>  <r_lp_Energy>  (231) 
270.886

>  <b_lp_Chiralities_Consistent>  (231) 
1

>  <s_lp_Variant>  (231) 
79:0-4

>  <s_i_glide_gridfile>  (231) 
pfpi4k_grid

>  <i_i_glide_lignum>  (231) 
30

>  <i_i_glide_rotatable_bonds>  (231) 
2

>  <r_i_docking_score>  (231) 
-2.76733

>  <r_i_glide_ligand_efficiency>  (231) 
-0.115306

>  <r_i_glide_ligand_efficiency_sa>  (231) 
-0.332599

>  <r_i_glide_ligand_efficiency_ln>  (231) 
-0.66235

>  <r_i_glide_gscore>  (231) 
-2.76733

>  <r_i_glide_lipo>  (231) 
-0.568325

>  <r_i_glide_hbond>  (231) 
0

>  <r_i_glide_metal>  (231) 
-0

>  <r_i_glide_rewards>  (231) 
-1.21187

>  <r_i_glide_evdw>  (231) 
-21.2547

>  <r_i_glide_ecoul>  (231) 
0.503953

>  <r_i_glide_erotb>  (231) 
0

>  <r_i_glide_esite>  (231) 
0

>  <r_i_glide_emodel>  (231) 
-18.9984

>  <r_i_glide_energy>  (231) 
-20.7507

>  <r_i_glide_einternal>  (231) 
7.84082

>  <r_i_glide_intrahb_reward>  (231) 
-0

>  <i_i_glide_confnum>  (231) 
2

>  <i_i_glide_posenum>  (231) 
33

>  <r_i_glide_eff_state_penalty>  (231) 
0

>  <ligand_id>  (231) 
79

>  <original_smiles>  (231) 
C=C1CC2C3C=CC24C2C=C(OC)C(=O)CC5(CC5C34)C(OC)=C12

>  <smiles>  (231) 
[H]C([H])=C1C2=C(OC([H])([H])[H])C34C([H])([H])C(=O)C(OC([H])([H])[H])=C([H])C2([H])C25C([H])=C([H])C([H])(C2([H])C1([H])[H])C5([H])C3([H])C4([H])[H]

$$$$
81:0:0
     RDKit          3D

 75 80  0  0  1  0  0  0  0  0999 V2000
    7.8588   -1.4699    0.3803 C   0  0  0  0  0  0  0  0  0  0  0  0
    7.0217   -2.3862   -0.1192 C   0  0  0  0  0  0  0  0  0  0  0  0
    5.7668   -2.1111   -0.9060 C   0  0  0  0  0  0  0  0  0  0  0  0
    5.4670   -1.0728   -1.4975 O   0  0  0  0  0  0  0  0  0  0  0  0
    5.0574   -3.2646   -0.9128 O   0  0  0  0  0  0  0  0  0  0  0  0
    5.5458   -4.0723    0.1349 C   0  0  2  0  0  0  0  0  0  0  0  0
    7.0559   -3.8496   -0.0454 C   0  0  2  0  0  0  0  0  0  0  0  0
    7.6619   -4.6832    1.0809 C   0  0  0  0  0  0  0  0  0  0  0  0
    8.8940   -4.5627    1.5884 C   0  0  0  0  0  0  0  0  0  0  0  0
    6.5406   -5.5951    1.5057 C   0  0  1  0  0  0  0  0  0  0  0  0
    5.5797   -5.5602    0.3318 C   0  0  1  0  0  0  0  0  0  0  0  0
    4.4598   -6.4286    0.8209 C   0  0  0  0  0  0  0  0  0  0  0  0
    5.2529   -7.6528    1.3752 C   0  0  1  0  0  0  0  0  0  0  0  0
    6.6321   -7.0987    1.8922 C   0  0  1  0  0  0  0  0  0  0  0  0
    7.8212   -7.7665    1.2239 C   0  0  0  0  0  0  0  0  0  0  0  0
    6.8397   -7.2690    3.4176 C   0  0  0  0  0  0  0  0  0  0  0  0
    5.5646   -7.1603    4.2864 C   0  0  1  0  0  0  0  0  0  0  0  0
    5.3900   -5.7917    4.5654 O   0  0  0  0  0  0  0  0  0  0  0  0
    4.2929   -7.9416    3.7827 C   0  0  1  0  0  0  0  0  0  0  0  0
    2.8410   -7.4683    4.2957 C   0  0  1  0  0  0  0  0  0  0  0  0
    2.9134   -7.6933    5.8325 C   0  0  0  0  0  0  0  0  0  0  0  0
    2.4513   -5.9663    4.0739 C   0  0  0  0  0  0  0  0  0  0  0  0
    1.0164   -5.6052    4.5055 C   0  0  0  0  0  0  0  0  0  0  0  0
   -0.0619   -6.5060    3.8984 C   0  0  0  0  0  0  0  0  0  0  0  0
    0.2169   -8.0125    4.0751 C   0  0  0  0  0  0  0  0  0  0  0  0
   -0.0806   -8.4503    5.5234 C   0  0  0  0  0  0  0  0  0  0  0  0
   -0.8393   -8.7816    3.2410 C   0  0  0  0  0  0  0  0  0  0  0  0
    1.6925   -8.3465    3.6389 C   0  0  1  0  0  0  0  0  0  0  0  0
    1.8556   -8.4728    2.1047 C   0  0  1  0  0  0  0  0  0  0  0  0
    1.6373   -7.2911    1.3638 O   0  0  0  0  0  0  0  0  0  0  0  0
    3.1702   -9.1391    1.7336 C   0  0  0  0  0  0  0  0  0  0  0  0
    4.4758   -8.5876    2.3562 C   0  0  1  0  0  0  0  0  0  0  0  0
    5.3169   -9.8919    2.4838 C   0  0  0  0  0  0  0  0  0  0  0  0
    8.7823   -1.7243    0.8993 H   0  0  0  0  0  0  0  0  0  0  0  0
    7.6206   -0.4395    0.2532 H   0  0  0  0  0  0  0  0  0  0  0  0
    5.1974   -3.5887    1.0661 H   0  0  0  0  0  0  0  0  0  0  0  0
    7.5185   -4.1843   -0.9721 H   0  0  0  0  0  0  0  0  0  0  0  0
    9.5289   -3.7794    1.1995 H   0  0  0  0  0  0  0  0  0  0  0  0
    9.2484   -5.1645    2.4152 H   0  0  0  0  0  0  0  0  0  0  0  0
    6.0889   -5.0361    2.3118 H   0  0  0  0  0  0  0  0  0  0  0  0
    5.9710   -6.0202   -0.5734 H   0  0  0  0  0  0  0  0  0  0  0  0
    3.9613   -5.8878    1.6100 H   0  0  0  0  0  0  0  0  0  0  0  0
    3.7735   -6.7034    0.0196 H   0  0  0  0  0  0  0  0  0  0  0  0
    5.5038   -8.2676    0.5060 H   0  0  0  0  0  0  0  0  0  0  0  0
    7.7391   -8.8329    1.4102 H   0  0  0  0  0  0  0  0  0  0  0  0
    8.7430   -7.4124    1.7090 H   0  0  0  0  0  0  0  0  0  0  0  0
    7.9409   -7.6098    0.1541 H   0  0  0  0  0  0  0  0  0  0  0  0
    7.3787   -8.1844    3.6279 H   0  0  0  0  0  0  0  0  0  0  0  0
    7.5379   -6.5145    3.7701 H   0  0  0  0  0  0  0  0  0  0  0  0
    5.8458   -7.5864    5.2506 H   0  0  0  0  0  0  0  0  0  0  0  0
    5.0872   -5.3437    3.7877 H   0  0  0  0  0  0  0  0  0  0  0  0
    4.3982   -8.8463    4.3847 H   0  0  0  0  0  0  0  0  0  0  0  0
    2.1276   -7.1906    6.3813 H   0  0  0  0  0  0  0  0  0  0  0  0
    3.8318   -7.3014    6.2578 H   0  0  0  0  0  0  0  0  0  0  0  0
    2.8573   -8.7566    6.0829 H   0  0  0  0  0  0  0  0  0  0  0  0
    3.0859   -5.2878    4.6337 H   0  0  0  0  0  0  0  0  0  0  0  0
    2.5365   -5.6910    3.0343 H   0  0  0  0  0  0  0  0  0  0  0  0
    0.9353   -5.6071    5.5903 H   0  0  0  0  0  0  0  0  0  0  0  0
    0.8067   -4.5748    4.2022 H   0  0  0  0  0  0  0  0  0  0  0  0
   -1.0201   -6.2614    4.3593 H   0  0  0  0  0  0  0  0  0  0  0  0
   -0.1620   -6.2726    2.8422 H   0  0  0  0  0  0  0  0  0  0  0  0
    0.5113   -9.3130    5.8228 H   0  0  0  0  0  0  0  0  0  0  0  0
   -1.1241   -8.7428    5.6250 H   0  0  0  0  0  0  0  0  0  0  0  0
    0.0779   -7.6452    6.2405 H   0  0  0  0  0  0  0  0  0  0  0  0
   -0.6389   -9.8532    3.2497 H   0  0  0  0  0  0  0  0  0  0  0  0
   -0.8770   -8.4298    2.2096 H   0  0  0  0  0  0  0  0  0  0  0  0
   -1.8450   -8.6334    3.6384 H   0  0  0  0  0  0  0  0  0  0  0  0
    1.8586   -9.3595    3.9951 H   0  0  0  0  0  0  0  0  0  0  0  0
    1.1033   -9.1591    1.7091 H   0  0  0  0  0  0  0  0  0  0  0  0
    2.3711   -6.7066    1.5111 H   0  0  0  0  0  0  0  0  0  0  0  0
    3.0551  -10.1994    1.9694 H   0  0  0  0  0  0  0  0  0  0  0  0
    3.2653   -9.1177    0.6514 H   0  0  0  0  0  0  0  0  0  0  0  0
    4.7879  -10.6329    3.0922 H   0  0  0  0  0  0  0  0  0  0  0  0
    6.2728   -9.7717    2.9737 H   0  0  0  0  0  0  0  0  0  0  0  0
    5.4846  -10.3441    1.5041 H   0  0  0  0  0  0  0  0  0  0  0  0
  1  2  2  0
  1 34  1  0
  1 35  1  0
  2  7  1  0
  2  3  1  0
  3  4  2  0
  3  5  1  0
  5  6  1  0
  6 11  1  0
  6  7  1  0
  6 36  1  1
  7  8  1  0
  7 37  1  6
  8  9  2  0
  8 10  1  0
  9 38  1  0
  9 39  1  0
 10 14  1  0
 10 11  1  0
 10 40  1  1
 11 12  1  0
 11 41  1  6
 12 13  1  0
 12 42  1  0
 12 43  1  0
 13 32  1  0
 13 14  1  0
 13 44  1  6
 14 15  1  6
 14 16  1  0
 15 45  1  0
 15 46  1  0
 15 47  1  0
 16 17  1  0
 16 48  1  0
 16 49  1  0
 17 18  1  0
 17 19  1  0
 17 50  1  1
 18 51  1  0
 19 32  1  0
 19 20  1  0
 19 52  1  1
 20 28  1  0
 20 21  1  1
 20 22  1  0
 21 53  1  0
 21 54  1  0
 21 55  1  0
 22 23  1  0
 22 56  1  0
 22 57  1  0
 23 24  1  0
 23 58  1  0
 23 59  1  0
 24 25  1  0
 24 60  1  0
 24 61  1  0
 25 26  1  0
 25 27  1  0
 25 28  1  0
 26 62  1  0
 26 63  1  0
 26 64  1  0
 27 65  1  0
 27 66  1  0
 27 67  1  0
 28 29  1  0
 28 68  1  1
 29 30  1  0
 29 31  1  0
 29 69  1  6
 30 70  1  0
 31 32  1  0
 31 71  1  0
 31 72  1  0
 32 33  1  1
 33 73  1  0
 33 74  1  0
 33 75  1  0
M  END
>  <i_m_ct_stereo_status>  (232) 
1

>  <s_m_source_file>  (232) 
/var/tmp/pbs.5076255.sched01/tmp25xsusm8/82mdre8bl4.sdf

>  <i_m_source_file_index>  (232) 
32

>  <i_lp_mmshare_version>  (232) 
48012

>  <i_f3d_flags>  (232) 
0

>  <s_epik_input>  (232) 
Tz1DKE8xKUMoPVtDSDJdKVtDQEBIXShDMj1bQ0gyXSlbQ0BASF0xW0NAQEhdKFtDQEhdMltDQF0zNFtDSDNdKVtDSDJdW0NAQEhdM1tDQEBdNShbQ0gzXSlbQ0BASF0oW0NAQEhdKFtDSDJdNClbT0hdKVtDQF02KFtDSDNdKVtDQEhdKFtDQEBIXShbT0hdKVtDSDJdNSlDKFtDSDNdKShbQ0gzXSlbQ0gyXVtDSDJdW0NIMl02

>  <s_epik_cmdline>  (232) 
J2VwaWtfcHl0aG9uJywgJy1waHQnLCAnMi4wJywgJy1waCcsICc3LjAnLCAnLXRuJywgJzgnLCAnLW1hJywgJzIwMCcsICctaW1hZScsICc8aW5maWxlLm1hZT4nLCAnLW9tYWUnLCAnPG91dGZpbGUubWFlPic=

>  <r_lp_tautomer_probability>  (232) 
1

>  <r_epik_Ionization_Penalty>  (232) 
2.49622e-06

>  <r_epik_Ionization_Penalty_Charging>  (232) 
0

>  <r_epik_Ionization_Penalty_Neutral>  (232) 
2.49622e-06

>  <r_epik_State_Penalty>  (232) 
-0

>  <r_epik_Charging_Adjusted_Penalty>  (232) 
0

>  <i_epik_Tot_Q>  (232) 
0

>  <i_epik_Tot_abs_Q>  (232) 
0

>  <s_epik_Chemistry_Notes>  (232) 
This compound has an ester and may undergo hydrolysis at high or low pH.

>  <s_lp_Force_Field>  (232) 
OPLS3e

>  <r_lp_Energy>  (232) 
130.663

>  <b_lp_Chiralities_Consistent>  (232) 
1

>  <s_lp_Variant>  (232) 
81:0-1

>  <s_i_glide_gridfile>  (232) 
pfpi4k_grid

>  <i_i_glide_lignum>  (232) 
32

>  <i_i_glide_rotatable_bonds>  (232) 
2

>  <r_i_docking_score>  (232) 
-2.61371

>  <r_i_glide_ligand_efficiency>  (232) 
-0.0792034

>  <r_i_glide_ligand_efficiency_sa>  (232) 
-0.254048

>  <r_i_glide_ligand_efficiency_ln>  (232) 
-0.581276

>  <r_i_glide_gscore>  (232) 
-2.61371

>  <r_i_glide_lipo>  (232) 
-0.765058

>  <r_i_glide_hbond>  (232) 
-0.01581

>  <r_i_glide_metal>  (232) 
-0

>  <r_i_glide_rewards>  (232) 
-0.309263

>  <r_i_glide_evdw>  (232) 
-26.374

>  <r_i_glide_ecoul>  (232) 
-1.1304

>  <r_i_glide_erotb>  (232) 
0

>  <r_i_glide_esite>  (232) 
-0.0353202

>  <r_i_glide_emodel>  (232) 
-31.7748

>  <r_i_glide_energy>  (232) 
-27.5044

>  <r_i_glide_einternal>  (232) 
0.119831

>  <r_i_glide_intrahb_reward>  (232) 
-0

>  <i_i_glide_confnum>  (232) 
2

>  <i_i_glide_posenum>  (232) 
14

>  <r_i_glide_eff_state_penalty>  (232) 
0

>  <ligand_id>  (232) 
81

>  <original_smiles>  (232) 
C=C1C(=O)OC2C1C(=C)C1C2CC2C1(C)CC(O)C1C3(C)CCCC(C)(C)C3C(O)CC21C

>  <smiles>  (232) 
[H]OC1([H])C([H])([H])C2(C([H])([H])[H])C3([H])C([H])([H])C4([H])C5([H])OC(=O)C(=C([H])[H])C5([H])C(=C([H])[H])C4([H])C3(C([H])([H])[H])C([H])([H])C([H])(O[H])C2([H])C2(C([H])([H])[H])C([H])([H])C([H])([H])C([H])([H])C(C([H])([H])[H])(C([H])([H])[H])C12[H]

$$$$
81:0:1
     RDKit          3D

 75 80  0  0  1  0  0  0  0  0999 V2000
    3.7208   -6.0778    0.5301 C   0  0  0  0  0  0  0  0  0  0  0  0
    3.0044   -5.8002    1.6361 C   0  0  0  0  0  0  0  0  0  0  0  0
    1.5637   -6.0904    1.8356 C   0  0  0  0  0  0  0  0  0  0  0  0
    0.8497   -6.8180    1.1439 O   0  0  0  0  0  0  0  0  0  0  0  0
    1.1578   -5.3717    2.9170 O   0  0  0  0  0  0  0  0  0  0  0  0
    2.0735   -4.3128    3.1081 C   0  0  2  0  0  0  0  0  0  0  0  0
    3.3982   -5.0366    2.8502 C   0  0  2  0  0  0  0  0  0  0  0  0
    4.4150   -3.9181    2.9898 C   0  0  0  0  0  0  0  0  0  0  0  0
    5.6294   -3.8885    2.4228 C   0  0  0  0  0  0  0  0  0  0  0  0
    3.6588   -2.8212    3.7382 C   0  0  1  0  0  0  0  0  0  0  0  0
    2.4632   -3.5301    4.3514 C   0  0  1  0  0  0  0  0  0  0  0  0
    1.7216   -2.3414    4.9087 C   0  0  0  0  0  0  0  0  0  0  0  0
    2.8637   -1.5830    5.6498 C   0  0  1  0  0  0  0  0  0  0  0  0
    4.2016   -1.8670    4.8426 C   0  0  1  0  0  0  0  0  0  0  0  0
    5.2409   -2.5374    5.7628 C   0  0  0  0  0  0  0  0  0  0  0  0
    4.7981   -0.5662    4.2416 C   0  0  0  0  0  0  0  0  0  0  0  0
    3.7896    0.5380    3.8200 C   0  0  1  0  0  0  0  0  0  0  0  0
    3.3908    0.2589    2.5014 O   0  0  0  0  0  0  0  0  0  0  0  0
    2.6195    0.8891    4.8219 C   0  0  1  0  0  0  0  0  0  0  0  0
    1.2910    1.5948    4.2444 C   0  0  1  0  0  0  0  0  0  0  0  0
    1.8135    2.9630    3.6971 C   0  0  0  0  0  0  0  0  0  0  0  0
    0.5435    0.8822    3.0629 C   0  0  0  0  0  0  0  0  0  0  0  0
   -0.7639    1.5669    2.6172 C   0  0  0  0  0  0  0  0  0  0  0  0
   -1.7496    1.8160    3.7624 C   0  0  0  0  0  0  0  0  0  0  0  0
   -1.1249    2.5261    4.9739 C   0  0  0  0  0  0  0  0  0  0  0  0
   -0.9304    4.0379    4.6590 C   0  0  0  0  0  0  0  0  0  0  0  0
   -2.1783    2.5103    6.1176 C   0  0  0  0  0  0  0  0  0  0  0  0
    0.2245    1.8157    5.3907 C   0  0  1  0  0  0  0  0  0  0  0  0
   -0.0070    0.5188    6.2278 C   0  0  1  0  0  0  0  0  0  0  0  0
   -0.6683   -0.5473    5.5764 O   0  0  0  0  0  0  0  0  0  0  0  0
    1.2682    0.0407    6.9050 C   0  0  0  0  0  0  0  0  0  0  0  0
    2.5571   -0.0984    6.0463 C   0  0  1  0  0  0  0  0  0  0  0  0
    3.6562    0.3151    7.0903 C   0  0  0  0  0  0  0  0  0  0  0  0
    4.7549   -5.8029    0.4170 H   0  0  0  0  0  0  0  0  0  0  0  0
    3.2669   -6.5970   -0.2921 H   0  0  0  0  0  0  0  0  0  0  0  0
    1.8789   -3.5972    2.2976 H   0  0  0  0  0  0  0  0  0  0  0  0
    3.5902   -5.7764    3.6517 H   0  0  0  0  0  0  0  0  0  0  0  0
    6.0035   -4.7445    1.8776 H   0  0  0  0  0  0  0  0  0  0  0  0
    6.2715   -3.0232    2.4979 H   0  0  0  0  0  0  0  0  0  0  0  0
    3.3232   -2.1941    2.9263 H   0  0  0  0  0  0  0  0  0  0  0  0
    2.7532   -4.2039    5.1645 H   0  0  0  0  0  0  0  0  0  0  0  0
    1.3300   -1.7683    4.0768 H   0  0  0  0  0  0  0  0  0  0  0  0
    0.9025   -2.6437    5.5603 H   0  0  0  0  0  0  0  0  0  0  0  0
    2.9562   -2.1273    6.5892 H   0  0  0  0  0  0  0  0  0  0  0  0
    5.5023   -1.8851    6.5950 H   0  0  0  0  0  0  0  0  0  0  0  0
    6.1681   -2.7686    5.2451 H   0  0  0  0  0  0  0  0  0  0  0  0
    4.8724   -3.4673    6.1960 H   0  0  0  0  0  0  0  0  0  0  0  0
    5.5343   -0.1434    4.9105 H   0  0  0  0  0  0  0  0  0  0  0  0
    5.4046   -0.8306    3.3716 H   0  0  0  0  0  0  0  0  0  0  0  0
    4.3938    1.4385    3.7192 H   0  0  0  0  0  0  0  0  0  0  0  0
    2.9893    1.0280    2.1483 H   0  0  0  0  0  0  0  0  0  0  0  0
    3.0605    1.7521    5.3196 H   0  0  0  0  0  0  0  0  0  0  0  0
    1.1244    3.4682    3.0283 H   0  0  0  0  0  0  0  0  0  0  0  0
    2.7186    2.8600    3.1013 H   0  0  0  0  0  0  0  0  0  0  0  0
    2.0473    3.6580    4.5055 H   0  0  0  0  0  0  0  0  0  0  0  0
    1.1394    0.8241    2.1604 H   0  0  0  0  0  0  0  0  0  0  0  0
    0.2972   -0.1403    3.3168 H   0  0  0  0  0  0  0  0  0  0  0  0
   -0.5508    2.5012    2.0972 H   0  0  0  0  0  0  0  0  0  0  0  0
   -1.2492    0.9439    1.8633 H   0  0  0  0  0  0  0  0  0  0  0  0
   -2.5959    2.3910    3.3828 H   0  0  0  0  0  0  0  0  0  0  0  0
   -2.1709    0.8611    4.0732 H   0  0  0  0  0  0  0  0  0  0  0  0
   -0.1136    4.4770    5.2341 H   0  0  0  0  0  0  0  0  0  0  0  0
   -1.8210    4.6186    4.8776 H   0  0  0  0  0  0  0  0  0  0  0  0
   -0.7362    4.2191    3.5993 H   0  0  0  0  0  0  0  0  0  0  0  0
   -1.7693    2.8929    7.0534 H   0  0  0  0  0  0  0  0  0  0  0  0
   -2.5533    1.4987    6.2977 H   0  0  0  0  0  0  0  0  0  0  0  0
   -3.0600    3.1027    5.8677 H   0  0  0  0  0  0  0  0  0  0  0  0
    0.6900    2.4912    6.1093 H   0  0  0  0  0  0  0  0  0  0  0  0
   -0.6562    0.7423    7.0701 H   0  0  0  0  0  0  0  0  0  0  0  0
   -0.1858   -0.7695    4.8072 H   0  0  0  0  0  0  0  0  0  0  0  0
    1.4300    0.7564    7.7082 H   0  0  0  0  0  0  0  0  0  0  0  0
    1.0731   -0.8992    7.4277 H   0  0  0  0  0  0  0  0  0  0  0  0
    3.4775    1.3211    7.4869 H   0  0  0  0  0  0  0  0  0  0  0  0
    4.6687    0.3543    6.6995 H   0  0  0  0  0  0  0  0  0  0  0  0
    3.6706   -0.3636    7.9457 H   0  0  0  0  0  0  0  0  0  0  0  0
  1  2  2  0
  1 34  1  0
  1 35  1  0
  2  7  1  0
  2  3  1  0
  3  4  2  0
  3  5  1  0
  5  6  1  0
  6 11  1  0
  6  7  1  0
  6 36  1  6
  7  8  1  0
  7 37  1  1
  8  9  2  0
  8 10  1  0
  9 38  1  0
  9 39  1  0
 10 14  1  0
 10 11  1  0
 10 40  1  6
 11 12  1  0
 11 41  1  1
 12 13  1  0
 12 42  1  0
 12 43  1  0
 13 32  1  0
 13 14  1  0
 13 44  1  1
 14 15  1  1
 14 16  1  0
 15 45  1  0
 15 46  1  0
 15 47  1  0
 16 17  1  0
 16 48  1  0
 16 49  1  0
 17 18  1  0
 17 19  1  0
 17 50  1  6
 18 51  1  0
 19 32  1  0
 19 20  1  0
 19 52  1  1
 20 28  1  0
 20 21  1  6
 20 22  1  0
 21 53  1  0
 21 54  1  0
 21 55  1  0
 22 23  1  0
 22 56  1  0
 22 57  1  0
 23 24  1  0
 23 58  1  0
 23 59  1  0
 24 25  1  0
 24 60  1  0
 24 61  1  0
 25 26  1  0
 25 27  1  0
 25 28  1  0
 26 62  1  0
 26 63  1  0
 26 64  1  0
 27 65  1  0
 27 66  1  0
 27 67  1  0
 28 29  1  0
 28 68  1  1
 29 30  1  0
 29 31  1  0
 29 69  1  1
 30 70  1  0
 31 32  1  0
 31 71  1  0
 31 72  1  0
 32 33  1  1
 33 73  1  0
 33 74  1  0
 33 75  1  0
M  END
>  <i_m_ct_stereo_status>  (233) 
1

>  <s_m_source_file>  (233) 
/var/tmp/pbs.5076255.sched01/tmp25xsusm8/82mdre8bl4.sdf

>  <i_m_source_file_index>  (233) 
32

>  <i_lp_mmshare_version>  (233) 
48012

>  <i_f3d_flags>  (233) 
0

>  <s_epik_input>  (233) 
Tz1DKE8xKUMoPVtDSDJdKVtDQEBIXShDMj1bQ0gyXSlbQ0BASF0xW0NAQEhdKFtDQEhdMltDQF0zNFtDSDNdKVtDSDJdW0NAQEhdM1tDQEBdNShbQ0gzXSlbQ0BASF0oW0NAQEhdKFtDSDJdNClbT0hdKVtDQF02KFtDSDNdKVtDQEhdKFtDQEBIXShbT0hdKVtDSDJdNSlDKFtDSDNdKShbQ0gzXSlbQ0gyXVtDSDJdW0NIMl02

>  <s_epik_cmdline>  (233) 
J2VwaWtfcHl0aG9uJywgJy1waHQnLCAnMi4wJywgJy1waCcsICc3LjAnLCAnLXRuJywgJzgnLCAnLW1hJywgJzIwMCcsICctaW1hZScsICc8aW5maWxlLm1hZT4nLCAnLW9tYWUnLCAnPG91dGZpbGUubWFlPic=

>  <r_lp_tautomer_probability>  (233) 
1

>  <r_epik_Ionization_Penalty>  (233) 
2.49622e-06

>  <r_epik_Ionization_Penalty_Charging>  (233) 
0

>  <r_epik_Ionization_Penalty_Neutral>  (233) 
2.49622e-06

>  <r_epik_State_Penalty>  (233) 
-0

>  <r_epik_Charging_Adjusted_Penalty>  (233) 
0

>  <i_epik_Tot_Q>  (233) 
0

>  <i_epik_Tot_abs_Q>  (233) 
0

>  <s_epik_Chemistry_Notes>  (233) 
This compound has an ester and may undergo hydrolysis at high or low pH.

>  <s_lp_Force_Field>  (233) 
OPLS3e

>  <r_lp_Energy>  (233) 
130.663

>  <b_lp_Chiralities_Consistent>  (233) 
1

>  <s_lp_Variant>  (233) 
81:0-1

>  <s_i_glide_gridfile>  (233) 
pfpi4k_grid

>  <i_i_glide_lignum>  (233) 
32

>  <i_i_glide_rotatable_bonds>  (233) 
2

>  <r_i_docking_score>  (233) 
-2.35625

>  <r_i_glide_ligand_efficiency>  (233) 
-0.0714014

>  <r_i_glide_ligand_efficiency_sa>  (233) 
-0.229022

>  <r_i_glide_ligand_efficiency_ln>  (233) 
-0.524017

>  <r_i_glide_gscore>  (233) 
-2.35625

>  <r_i_glide_lipo>  (233) 
-0.241264

>  <r_i_glide_hbond>  (233) 
-0.0154357

>  <r_i_glide_metal>  (233) 
-0

>  <r_i_glide_rewards>  (233) 
-0.309263

>  <r_i_glide_evdw>  (233) 
-27.1827

>  <r_i_glide_ecoul>  (233) 
-2.52318

>  <r_i_glide_erotb>  (233) 
0

>  <r_i_glide_esite>  (233) 
-0.0526711

>  <r_i_glide_emodel>  (233) 
-33.6891

>  <r_i_glide_energy>  (233) 
-29.7059

>  <r_i_glide_einternal>  (233) 
0.350692

>  <r_i_glide_intrahb_reward>  (233) 
-0

>  <i_i_glide_confnum>  (233) 
1

>  <i_i_glide_posenum>  (233) 
6

>  <r_i_glide_eff_state_penalty>  (233) 
0

>  <ligand_id>  (233) 
81

>  <original_smiles>  (233) 
C=C1C(=O)OC2C1C(=C)C1C2CC2C1(C)CC(O)C1C3(C)CCCC(C)(C)C3C(O)CC21C

>  <smiles>  (233) 
[H]OC1([H])C([H])([H])C2(C([H])([H])[H])C3([H])C([H])([H])C4([H])C5([H])OC(=O)C(=C([H])[H])C5([H])C(=C([H])[H])C4([H])C3(C([H])([H])[H])C([H])([H])C([H])(O[H])C2([H])C2(C([H])([H])[H])C([H])([H])C([H])([H])C([H])([H])C(C([H])([H])[H])(C([H])([H])[H])C12[H]

$$$$
81:0:2
     RDKit          3D

 75 80  0  0  1  0  0  0  0  0999 V2000
    2.8156   -6.9055    1.5879 C   0  0  0  0  0  0  0  0  0  0  0  0
    2.2143   -6.3632    2.6578 C   0  0  0  0  0  0  0  0  0  0  0  0
    0.7675   -6.4630    2.9716 C   0  0  0  0  0  0  0  0  0  0  0  0
   -0.0495   -7.2232    2.4501 O   0  0  0  0  0  0  0  0  0  0  0  0
    0.5055   -5.5416    3.9342 O   0  0  0  0  0  0  0  0  0  0  0  0
    1.5183   -4.5684    3.9014 C   0  0  2  0  0  0  0  0  0  0  0  0
    2.7548   -5.4517    3.7100 C   0  0  2  0  0  0  0  0  0  0  0  0
    3.8777   -4.4344    3.6267 C   0  0  0  0  0  0  0  0  0  0  0  0
    5.0715   -4.6201    3.0356 C   0  0  0  0  0  0  0  0  0  0  0  0
    3.2671   -3.1612    4.2145 C   0  0  1  0  0  0  0  0  0  0  0  0
    2.0468   -3.6365    4.9788 C   0  0  1  0  0  0  0  0  0  0  0  0
    1.4421   -2.3085    5.3580 C   0  0  0  0  0  0  0  0  0  0  0  0
    2.6906   -1.5512    5.9165 C   0  0  1  0  0  0  0  0  0  0  0  0
    3.9504   -2.0922    5.1195 C   0  0  1  0  0  0  0  0  0  0  0  0
    4.9747   -2.7010    6.0888 C   0  0  0  0  0  0  0  0  0  0  0  0
    4.6264   -0.9763    4.2807 C   0  0  0  0  0  0  0  0  0  0  0  0
    3.7074    0.1448    3.7172 C   0  0  1  0  0  0  0  0  0  0  0  0
    3.2208   -0.3051    2.4763 O   0  0  0  0  0  0  0  0  0  0  0  0
    2.6267    0.7620    4.6925 C   0  0  1  0  0  0  0  0  0  0  0  0
    1.3356    1.4899    4.0577 C   0  0  1  0  0  0  0  0  0  0  0  0
    1.9519    2.6939    3.2677 C   0  0  0  0  0  0  0  0  0  0  0  0
    0.4662    0.6708    3.0427 C   0  0  0  0  0  0  0  0  0  0  0  0
   -0.7984    1.3993    2.5391 C   0  0  0  0  0  0  0  0  0  0  0  0
   -1.6974    1.9285    3.6570 C   0  0  0  0  0  0  0  0  0  0  0  0
   -0.9473    2.7606    4.7164 C   0  0  0  0  0  0  0  0  0  0  0  0
   -0.6286    4.1802    4.1427 C   0  0  0  0  0  0  0  0  0  0  0  0
   -1.9348    3.0360    5.8818 C   0  0  0  0  0  0  0  0  0  0  0  0
    0.3552    2.0014    5.1924 C   0  0  1  0  0  0  0  0  0  0  0  0
    0.0512    0.8849    6.2436 C   0  0  1  0  0  0  0  0  0  0  0  0
   -0.7274   -0.2104    5.8026 O   0  0  0  0  0  0  0  0  0  0  0  0
    1.3147    0.4045    6.9407 C   0  0  0  0  0  0  0  0  0  0  0  0
    2.5393    0.0023    6.0702 C   0  0  1  0  0  0  0  0  0  0  0  0
    3.7257    0.4705    6.9837 C   0  0  0  0  0  0  0  0  0  0  0  0
    3.8696   -6.7645    1.3903 H   0  0  0  0  0  0  0  0  0  0  0  0
    2.2616   -7.5172    0.8884 H   0  0  0  0  0  0  0  0  0  0  0  0
    1.3434   -3.9770    2.9910 H   0  0  0  0  0  0  0  0  0  0  0  0
    2.9186   -6.0669    4.6182 H   0  0  0  0  0  0  0  0  0  0  0  0
    5.3265   -5.5837    2.6197 H   0  0  0  0  0  0  0  0  0  0  0  0
    5.8092   -3.8291    2.9570 H   0  0  0  0  0  0  0  0  0  0  0  0
    2.9441   -2.6443    3.3219 H   0  0  0  0  0  0  0  0  0  0  0  0
    2.3116   -4.1954    5.8864 H   0  0  0  0  0  0  0  0  0  0  0  0
    1.0600   -1.8433    4.4576 H   0  0  0  0  0  0  0  0  0  0  0  0
    0.6376   -2.4169    6.0828 H   0  0  0  0  0  0  0  0  0  0  0  0
    2.7833   -1.9411    6.9312 H   0  0  0  0  0  0  0  0  0  0  0  0
    5.3385   -1.9561    6.7951 H   0  0  0  0  0  0  0  0  0  0  0  0
    5.8478   -3.0965    5.5720 H   0  0  0  0  0  0  0  0  0  0  0  0
    4.5519   -3.5139    6.6857 H   0  0  0  0  0  0  0  0  0  0  0  0
    5.4330   -0.5230    4.8437 H   0  0  0  0  0  0  0  0  0  0  0  0
    5.1588   -1.4398    3.4490 H   0  0  0  0  0  0  0  0  0  0  0  0
    4.3888    0.9449    3.4449 H   0  0  0  0  0  0  0  0  0  0  0  0
    2.8640    0.4305    2.0127 H   0  0  0  0  0  0  0  0  0  0  0  0
    3.1687    1.6496    5.0228 H   0  0  0  0  0  0  0  0  0  0  0  0
    1.2735    3.1492    2.5534 H   0  0  0  0  0  0  0  0  0  0  0  0
    2.8054    2.4066    2.6658 H   0  0  0  0  0  0  0  0  0  0  0  0
    2.2899    3.4871    3.9393 H   0  0  0  0  0  0  0  0  0  0  0  0
    1.0053    0.4082    2.1424 H   0  0  0  0  0  0  0  0  0  0  0  0
    0.1412   -0.2670    3.4755 H   0  0  0  0  0  0  0  0  0  0  0  0
   -0.5233    2.2053    1.8594 H   0  0  0  0  0  0  0  0  0  0  0  0
   -1.3801    0.7136    1.9207 H   0  0  0  0  0  0  0  0  0  0  0  0
   -2.5038    2.5159    3.2213 H   0  0  0  0  0  0  0  0  0  0  0  0
   -2.1868    1.0814    4.1342 H   0  0  0  0  0  0  0  0  0  0  0  0
    0.2566    4.6176    4.5999 H   0  0  0  0  0  0  0  0  0  0  0  0
   -1.4452    4.8829    4.2945 H   0  0  0  0  0  0  0  0  0  0  0  0
   -0.4816    4.1633    3.0620 H   0  0  0  0  0  0  0  0  0  0  0  0
   -1.4446    3.5221    6.7230 H   0  0  0  0  0  0  0  0  0  0  0  0
   -2.3922    2.1082    6.2402 H   0  0  0  0  0  0  0  0  0  0  0  0
   -2.7695    3.6616    5.5698 H   0  0  0  0  0  0  0  0  0  0  0  0
    0.9168    2.7331    5.7653 H   0  0  0  0  0  0  0  0  0  0  0  0
   -0.5330    1.3021    7.0580 H   0  0  0  0  0  0  0  0  0  0  0  0
   -0.3116   -0.5862    5.0607 H   0  0  0  0  0  0  0  0  0  0  0  0
    1.5849    1.2224    7.6032 H   0  0  0  0  0  0  0  0  0  0  0  0
    1.0685   -0.4130    7.6247 H   0  0  0  0  0  0  0  0  0  0  0  0
    3.6618    1.5418    7.2116 H   0  0  0  0  0  0  0  0  0  0  0  0
    4.7142    0.3455    6.5536 H   0  0  0  0  0  0  0  0  0  0  0  0
    3.7249   -0.0552    7.9432 H   0  0  0  0  0  0  0  0  0  0  0  0
  1  2  2  0
  1 34  1  0
  1 35  1  0
  2  7  1  0
  2  3  1  0
  3  4  2  0
  3  5  1  0
  5  6  1  0
  6 11  1  0
  6  7  1  0
  6 36  1  6
  7  8  1  0
  7 37  1  1
  8  9  2  0
  8 10  1  0
  9 38  1  0
  9 39  1  0
 10 14  1  0
 10 11  1  0
 10 40  1  6
 11 12  1  0
 11 41  1  1
 12 13  1  0
 12 42  1  0
 12 43  1  0
 13 32  1  0
 13 14  1  0
 13 44  1  1
 14 15  1  1
 14 16  1  0
 15 45  1  0
 15 46  1  0
 15 47  1  0
 16 17  1  0
 16 48  1  0
 16 49  1  0
 17 18  1  0
 17 19  1  0
 17 50  1  6
 18 51  1  0
 19 32  1  0
 19 20  1  0
 19 52  1  1
 20 28  1  0
 20 21  1  6
 20 22  1  0
 21 53  1  0
 21 54  1  0
 21 55  1  0
 22 23  1  0
 22 56  1  0
 22 57  1  0
 23 24  1  0
 23 58  1  0
 23 59  1  0
 24 25  1  0
 24 60  1  0
 24 61  1  0
 25 26  1  0
 25 27  1  0
 25 28  1  0
 26 62  1  0
 26 63  1  0
 26 64  1  0
 27 65  1  0
 27 66  1  0
 27 67  1  0
 28 29  1  0
 28 68  1  1
 29 30  1  0
 29 31  1  0
 29 69  1  1
 30 70  1  0
 31 32  1  0
 31 71  1  0
 31 72  1  0
 32 33  1  1
 33 73  1  0
 33 74  1  0
 33 75  1  0
M  END
>  <i_m_ct_stereo_status>  (234) 
1

>  <s_m_source_file>  (234) 
/var/tmp/pbs.5076255.sched01/tmp25xsusm8/82mdre8bl4.sdf

>  <i_m_source_file_index>  (234) 
32

>  <i_lp_mmshare_version>  (234) 
48012

>  <i_f3d_flags>  (234) 
0

>  <s_epik_input>  (234) 
Tz1DKE8xKUMoPVtDSDJdKVtDQEBIXShDMj1bQ0gyXSlbQ0BASF0xW0NAQEhdKFtDQEhdMltDQF0zNFtDSDNdKVtDSDJdW0NAQEhdM1tDQEBdNShbQ0gzXSlbQ0BASF0oW0NAQEhdKFtDSDJdNClbT0hdKVtDQF02KFtDSDNdKVtDQEhdKFtDQEBIXShbT0hdKVtDSDJdNSlDKFtDSDNdKShbQ0gzXSlbQ0gyXVtDSDJdW0NIMl02

>  <s_epik_cmdline>  (234) 
J2VwaWtfcHl0aG9uJywgJy1waHQnLCAnMi4wJywgJy1waCcsICc3LjAnLCAnLXRuJywgJzgnLCAnLW1hJywgJzIwMCcsICctaW1hZScsICc8aW5maWxlLm1hZT4nLCAnLW9tYWUnLCAnPG91dGZpbGUubWFlPic=

>  <r_lp_tautomer_probability>  (234) 
1

>  <r_epik_Ionization_Penalty>  (234) 
2.49622e-06

>  <r_epik_Ionization_Penalty_Charging>  (234) 
0

>  <r_epik_Ionization_Penalty_Neutral>  (234) 
2.49622e-06

>  <r_epik_State_Penalty>  (234) 
-0

>  <r_epik_Charging_Adjusted_Penalty>  (234) 
0

>  <i_epik_Tot_Q>  (234) 
0

>  <i_epik_Tot_abs_Q>  (234) 
0

>  <s_epik_Chemistry_Notes>  (234) 
This compound has an ester and may undergo hydrolysis at high or low pH.

>  <s_lp_Force_Field>  (234) 
OPLS3e

>  <r_lp_Energy>  (234) 
130.663

>  <b_lp_Chiralities_Consistent>  (234) 
1

>  <s_lp_Variant>  (234) 
81:0-1

>  <s_i_glide_gridfile>  (234) 
pfpi4k_grid

>  <i_i_glide_lignum>  (234) 
32

>  <i_i_glide_rotatable_bonds>  (234) 
2

>  <r_i_docking_score>  (234) 
-2.21

>  <r_i_glide_ligand_efficiency>  (234) 
-0.0669696

>  <r_i_glide_ligand_efficiency_sa>  (234) 
-0.214807

>  <r_i_glide_ligand_efficiency_ln>  (234) 
-0.491492

>  <r_i_glide_gscore>  (234) 
-2.21

>  <r_i_glide_lipo>  (234) 
-0.11352

>  <r_i_glide_hbond>  (234) 
0

>  <r_i_glide_metal>  (234) 
-0

>  <r_i_glide_rewards>  (234) 
-0.309263

>  <r_i_glide_evdw>  (234) 
-28.099

>  <r_i_glide_ecoul>  (234) 
-2.22015

>  <r_i_glide_erotb>  (234) 
0

>  <r_i_glide_esite>  (234) 
-0.0492413

>  <r_i_glide_emodel>  (234) 
-34.0166

>  <r_i_glide_energy>  (234) 
-30.3192

>  <r_i_glide_einternal>  (234) 
0.360339

>  <r_i_glide_intrahb_reward>  (234) 
-0

>  <i_i_glide_confnum>  (234) 
2

>  <i_i_glide_posenum>  (234) 
22

>  <r_i_glide_eff_state_penalty>  (234) 
0

>  <ligand_id>  (234) 
81

>  <original_smiles>  (234) 
C=C1C(=O)OC2C1C(=C)C1C2CC2C1(C)CC(O)C1C3(C)CCCC(C)(C)C3C(O)CC21C

>  <smiles>  (234) 
[H]OC1([H])C([H])([H])C2(C([H])([H])[H])C3([H])C([H])([H])C4([H])C5([H])OC(=O)C(=C([H])[H])C5([H])C(=C([H])[H])C4([H])C3(C([H])([H])[H])C([H])([H])C([H])(O[H])C2([H])C2(C([H])([H])[H])C([H])([H])C([H])([H])C([H])([H])C(C([H])([H])[H])(C([H])([H])[H])C12[H]

$$$$
82:0:0
     RDKit          3D

 70 76  0  0  1  0  0  0  0  0999 V2000
    0.0796    1.4584    1.6345 C   0  0  0  0  0  0  0  0  0  0  0  0
    1.3141    0.7120    2.1456 C   0  0  0  0  0  0  0  0  0  0  0  0
    1.1912    0.3111    3.6195 C   0  0  0  0  0  0  0  0  0  0  0  0
    2.4721   -0.3635    4.1471 C   0  0  0  0  0  0  0  0  0  0  0  0
    2.3543   -0.7657    5.6149 C   0  0  0  0  0  0  0  0  0  0  0  0
    2.4983   -1.9997    6.1370 C   0  0  0  0  0  0  0  0  0  0  0  0
    2.8048   -3.3094    5.4055 C   0  0  2  0  0  0  0  0  0  0  0  0
    3.1799   -4.3630    6.3643 O   0  0  0  0  0  0  0  0  0  0  0  0
    4.2517   -4.9657    5.5461 C   0  0  2  0  0  0  0  0  0  0  0  0
    4.4947   -3.3665    4.7812 S   0  0  0  0  0  0  0  0  0  0  0  0
    3.7695   -6.0104    4.5548 C   0  0  0  0  0  0  0  0  0  0  0  0
    4.6301   -6.4799    3.7334 N   0  0  0  0  0  0  0  0  0  0  0  0
    4.4266   -7.1082    2.4234 C   0  0  2  0  0  0  0  0  0  0  0  0
    4.9010   -6.1265    1.3329 C   0  0  0  0  0  0  0  0  0  0  0  0
    3.6789   -5.2719    0.9575 C   0  0  0  0  0  0  0  0  0  0  0  0
    2.5044   -6.1774    1.2901 C   0  0  0  0  0  0  0  0  0  0  0  0
    1.3312   -5.9074    1.0326 O   0  0  0  0  0  0  0  0  0  0  0  0
    2.9947   -7.4450    1.9811 C   0  0  2  0  0  0  0  0  0  0  0  0
    2.1531   -8.2121    3.0223 C   0  0  2  0  0  0  0  0  0  0  0  0
    0.9586   -9.0067    2.4333 C   0  0  1  0  0  0  0  0  0  0  0  0
    0.9601  -10.4776    2.9008 C   0  0  0  0  0  0  0  0  0  0  0  0
    0.6110  -10.6904    4.3384 N   0  0  1  0  0  0  0  0  0  0  0  0
    0.6060  -12.1277    4.6540 C   0  0  0  0  0  0  0  0  0  0  0  0
    1.4362   -9.9482    5.3462 C   0  0  0  0  0  0  0  0  0  0  0  0
    1.2302   -8.4196    5.4070 C   0  0  2  0  0  0  0  0  0  0  0  0
   -0.1906   -7.8662    5.3940 C   0  0  0  0  0  0  0  0  0  0  0  0
    0.0585   -7.4774    3.9468 C   0  0  2  0  0  0  0  0  0  0  0  0
   -0.3101   -8.4329    2.9067 N   0  0  0  0  0  0  0  0  0  0  0  0
   -1.1924   -7.9264    1.8802 C   0  0  0  0  0  0  0  0  0  0  0  0
    1.5740   -7.4842    4.2088 C   0  0  2  0  0  0  0  0  0  0  0  0
    2.2502   -6.1409    4.6133 C   0  0  2  0  0  0  0  0  0  0  0  0
    1.6626   -5.0323    3.9538 O   0  0  0  0  0  0  0  0  0  0  0  0
    1.6858   -3.7316    4.4004 C   0  0  0  0  0  0  0  0  0  0  0  0
    0.8413   -2.9674    3.9498 O   0  0  0  0  0  0  0  0  0  0  0  0
    0.2034    1.7411    0.5908 H   0  0  0  0  0  0  0  0  0  0  0  0
   -0.0917    2.3788    2.1936 H   0  0  0  0  0  0  0  0  0  0  0  0
   -0.8197    0.8442    1.6931 H   0  0  0  0  0  0  0  0  0  0  0  0
    1.4795   -0.1754    1.5320 H   0  0  0  0  0  0  0  0  0  0  0  0
    2.1926    1.3444    2.0130 H   0  0  0  0  0  0  0  0  0  0  0  0
    0.9695    1.1957    4.2187 H   0  0  0  0  0  0  0  0  0  0  0  0
    0.3325   -0.3513    3.7376 H   0  0  0  0  0  0  0  0  0  0  0  0
    2.7237   -1.2202    3.5172 H   0  0  0  0  0  0  0  0  0  0  0  0
    3.3216    0.3166    4.0602 H   0  0  0  0  0  0  0  0  0  0  0  0
    2.1328    0.0522    6.2938 H   0  0  0  0  0  0  0  0  0  0  0  0
    2.4001   -2.1001    7.2123 H   0  0  0  0  0  0  0  0  0  0  0  0
    5.1141   -5.2946    6.1209 H   0  0  0  0  0  0  0  0  0  0  0  0
    5.0321   -8.0151    2.3823 H   0  0  0  0  0  0  0  0  0  0  0  0
    5.7517   -5.5269    1.6609 H   0  0  0  0  0  0  0  0  0  0  0  0
    5.2262   -6.6871    0.4534 H   0  0  0  0  0  0  0  0  0  0  0  0
    3.6335   -4.3791    1.5798 H   0  0  0  0  0  0  0  0  0  0  0  0
    3.6861   -4.9742   -0.0894 H   0  0  0  0  0  0  0  0  0  0  0  0
    3.1047   -8.1399    1.1477 H   0  0  0  0  0  0  0  0  0  0  0  0
    2.8739   -8.9415    3.3945 H   0  0  0  0  0  0  0  0  0  0  0  0
    1.0183   -8.9846    1.3459 H   0  0  0  0  0  0  0  0  0  0  0  0
    0.2242  -11.0166    2.2980 H   0  0  0  0  0  0  0  0  0  0  0  0
    1.9276  -10.9289    2.6760 H   0  0  0  0  0  0  0  0  0  0  0  0
    1.6137  -12.5538    4.6339 H   0  0  0  0  0  0  0  0  0  0  0  0
   -0.0161  -12.6970    3.9657 H   0  0  0  0  0  0  0  0  0  0  0  0
    0.1806  -12.2424    5.6472 H   0  0  0  0  0  0  0  0  0  0  0  0
    1.1571  -10.3247    6.3285 H   0  0  0  0  0  0  0  0  0  0  0  0
    2.4880  -10.1963    5.2437 H   0  0  0  0  0  0  0  0  0  0  0  0
    1.7278   -8.0366    6.2976 H   0  0  0  0  0  0  0  0  0  0  0  0
   -0.9750   -8.6143    5.5226 H   0  0  0  0  0  0  0  0  0  0  0  0
   -0.3153   -6.9969    6.0445 H   0  0  0  0  0  0  0  0  0  0  0  0
   -0.3336   -6.4914    3.7056 H   0  0  0  0  0  0  0  0  0  0  0  0
   -2.1239   -7.5790    2.3267 H   0  0  0  0  0  0  0  0  0  0  0  0
   -1.4413   -8.7341    1.1964 H   0  0  0  0  0  0  0  0  0  0  0  0
   -0.7590   -7.1144    1.3029 H   0  0  0  0  0  0  0  0  0  0  0  0
    1.9682   -6.0260    5.6596 H   0  0  0  0  0  0  0  0  0  0  0  0
   -0.3455  -10.3800    4.4627 H   0  0  0  0  0  0  0  0  0  0  0  0
  1  2  1  0
  1 35  1  0
  1 36  1  0
  1 37  1  0
  2  3  1  0
  2 38  1  0
  2 39  1  0
  3  4  1  0
  3 40  1  0
  3 41  1  0
  4  5  1  0
  4 42  1  0
  4 43  1  0
  5  6  2  3
  5 44  1  0
  7  6  1  1
  6 45  1  0
  7 10  1  0
  7 33  1  0
  7  8  1  0
  8  9  1  0
  9 10  1  0
  9 11  1  0
  9 46  1  1
 11 31  1  0
 11 12  2  0
 12 13  1  0
 13 18  1  0
 13 14  1  0
 13 47  1  1
 14 15  1  0
 14 48  1  0
 14 49  1  0
 15 16  1  0
 15 50  1  0
 15 51  1  0
 16 17  2  0
 16 18  1  0
 18 19  1  0
 18 52  1  6
 19 30  1  0
 19 20  1  0
 19 53  1  1
 20 28  1  0
 20 21  1  0
 20 54  1  6
 21 22  1  0
 21 55  1  0
 21 56  1  0
 22 23  1  0
 22 24  1  0
 22 70  1  6
 23 57  1  0
 23 58  1  0
 23 59  1  0
 24 25  1  0
 24 60  1  0
 24 61  1  0
 25 30  1  0
 25 26  1  0
 25 62  1  1
 26 27  1  0
 26 63  1  0
 26 64  1  0
 27 28  1  0
 27 30  1  0
 27 65  1  6
 28 29  1  0
 29 66  1  0
 29 67  1  0
 29 68  1  0
 30 31  1  1
 31 32  1  0
 31 69  1  1
 32 33  1  0
 33 34  2  0
M  CHG  1  22   1
M  END
>  <i_m_ct_stereo_status>  (235) 
1

>  <s_m_source_file>  (235) 
/var/tmp/pbs.5076255.sched01/tmp25xsusm8/82mdre8bl4.sdf

>  <i_m_source_file_index>  (235) 
33

>  <i_lp_mmshare_version>  (235) 
48012

>  <i_f3d_flags>  (235) 
0

>  <s_epik_input>  (235) 
W0NIM11bQ0gyXVtDSDJdW0NIMl0vW0NIXT1bQ0hdL1tDQF0oUzEpKEMoPU8pT1tDQEhdMjMpT1tDQEhdMUMyPU5bQ0BIXShbQ0gyXVtDSDJdQzQ9TylbQ0BIXTRbQ0BASF0oW0NAXTM1NilbQ0BIXTdbQ0gyXU4oW0NIM10pW0NIMl1bQ0BASF01W0NIMl1bQ0BASF02TjdbQ0gzXQ==

>  <s_epik_cmdline>  (235) 
J2VwaWtfcHl0aG9uJywgJy1waHQnLCAnMi4wJywgJy1waCcsICc3LjAnLCAnLXRuJywgJzgnLCAnLW1hJywgJzIwMCcsICctaW1hZScsICc8aW5maWxlLm1hZT4nLCAnLW9tYWUnLCAnPG91dGZpbGUubWFlPic=

>  <r_lp_tautomer_probability>  (235) 
0.999984

>  <r_epik_Ionization_Penalty>  (235) 
0.0296133

>  <r_epik_Ionization_Penalty_Charging>  (235) 
0.0294733

>  <r_epik_Ionization_Penalty_Neutral>  (235) 
0.000140053

>  <r_epik_State_Penalty>  (235) 
0.219398

>  <r_epik_Charging_Adjusted_Penalty>  (235) 
0.248871

>  <i_epik_Tot_Q>  (235) 
1

>  <i_epik_Tot_abs_Q>  (235) 
1

>  <s_epik_Chemistry_Notes>  (235) 
This compound has an ester and may undergo hydrolysis at high or low pH. This compound has an imine and may undergo hydrolysis. This compound contains an acetal/aminal-like group ( X-CH(R)-Y where X, Y are N, S, or O) that may be acid/base labile, releasing an aldehyde.

>  <s_lp_Force_Field>  (235) 
OPLS3e

>  <r_lp_Energy>  (235) 
85.666

>  <b_lp_Chiralities_Consistent>  (235) 
1

>  <s_lp_Variant>  (235) 
82:0-1

>  <s_i_glide_gridfile>  (235) 
pfpi4k_grid

>  <i_i_glide_lignum>  (235) 
33

>  <i_i_glide_rotatable_bonds>  (235) 
4

>  <r_i_docking_score>  (235) 
-2.42149

>  <r_i_glide_ligand_efficiency>  (235) 
-0.0712204

>  <r_i_glide_ligand_efficiency_sa>  (235) 
-0.230726

>  <r_i_glide_ligand_efficiency_ln>  (235) 
-0.534976

>  <r_i_glide_gscore>  (235) 
-2.42149

>  <r_i_glide_lipo>  (235) 
-0.2535

>  <r_i_glide_hbond>  (235) 
-0.30634

>  <r_i_glide_metal>  (235) 
-0

>  <r_i_glide_rewards>  (235) 
-0.101385

>  <r_i_glide_evdw>  (235) 
-24.5163

>  <r_i_glide_ecoul>  (235) 
-4.87367

>  <r_i_glide_erotb>  (235) 
0.257451

>  <r_i_glide_esite>  (235) 
-0.0608525

>  <r_i_glide_emodel>  (235) 
-35.3192

>  <r_i_glide_energy>  (235) 
-29.39

>  <r_i_glide_einternal>  (235) 
1.70691

>  <r_i_glide_intrahb_reward>  (235) 
-0

>  <i_i_glide_confnum>  (235) 
2

>  <i_i_glide_posenum>  (235) 
31

>  <r_i_glide_eff_state_penalty>  (235) 
0

>  <ligand_id>  (235) 
82

>  <original_smiles>  (235) 
CCCCC=CC12OC(S1)C1=NC3CCC(=O)C3C3C4CN(C)CC5CC(N4C)C53C1OC2=O

>  <smiles>  (235) 
[H]C(=C([H])C([H])([H])C([H])([H])C([H])([H])C([H])([H])[H])C12OC([H])(S1)C1=NC3([H])C([H])([H])C([H])([H])C(=O)C3([H])C3([H])C4([H])N(C([H])([H])[H])C5([H])C([H])([H])C([H])(C53C1([H])OC2=O)C([H])([H])[N+]([H])(C([H])([H])[H])C4([H])[H]

$$$$
82:0:1
     RDKit          3D

 70 76  0  0  1  0  0  0  0  0999 V2000
    3.0243   -0.5638    1.0823 C   0  0  0  0  0  0  0  0  0  0  0  0
    2.5381    0.6708    1.8610 C   0  0  0  0  0  0  0  0  0  0  0  0
    2.0170    0.3549    3.2731 C   0  0  0  0  0  0  0  0  0  0  0  0
    3.1035   -0.2532    4.1752 C   0  0  0  0  0  0  0  0  0  0  0  0
    2.5983   -0.6543    5.5518 C   0  0  0  0  0  0  0  0  0  0  0  0
    2.4969   -1.9122    6.0355 C   0  0  0  0  0  0  0  0  0  0  0  0
    2.8369   -3.2306    5.3292 C   0  0  2  0  0  0  0  0  0  0  0  0
    3.1553   -4.2900    6.3022 O   0  0  0  0  0  0  0  0  0  0  0  0
    4.2410   -4.9161    5.5191 C   0  0  2  0  0  0  0  0  0  0  0  0
    4.5507   -3.3325    4.7564 S   0  0  0  0  0  0  0  0  0  0  0  0
    3.7683   -5.9540    4.5148 C   0  0  0  0  0  0  0  0  0  0  0  0
    4.6453   -6.4418    3.7199 N   0  0  0  0  0  0  0  0  0  0  0  0
    4.4665   -7.0854    2.4150 C   0  0  2  0  0  0  0  0  0  0  0  0
    4.9638   -6.1205    1.3199 C   0  0  0  0  0  0  0  0  0  0  0  0
    3.7503   -5.2695    0.9106 C   0  0  0  0  0  0  0  0  0  0  0  0
    2.5651   -6.1644    1.2384 C   0  0  0  0  0  0  0  0  0  0  0  0
    1.3991   -5.8956    0.9590 O   0  0  0  0  0  0  0  0  0  0  0  0
    3.0424   -7.4266    1.9517 C   0  0  2  0  0  0  0  0  0  0  0  0
    2.1810   -8.1761    2.9878 C   0  0  2  0  0  0  0  0  0  0  0  0
    0.9944   -8.9812    2.3933 C   0  0  1  0  0  0  0  0  0  0  0  0
    0.9910  -10.4479    2.8867 C   0  0  0  0  0  0  0  0  0  0  0  0
    0.6204  -10.6382    4.3245 N   0  0  1  0  0  0  0  0  0  0  0  0
    0.6102  -12.0789    4.6618 C   0  0  0  0  0  0  0  0  0  0  0  0
    1.4229   -9.8772    5.3338 C   0  0  0  0  0  0  0  0  0  0  0  0
    1.2175   -8.3425    5.3626 C   0  0  2  0  0  0  0  0  0  0  0  0
   -0.2047   -7.7914    5.3138 C   0  0  0  0  0  0  0  0  0  0  0  0
    0.0694   -7.4239    3.8662 C   0  0  2  0  0  0  0  0  0  0  0  0
   -0.2784   -8.3975    2.8358 N   0  0  0  0  0  0  0  0  0  0  0  0
   -1.1400   -7.9060    1.7814 C   0  0  0  0  0  0  0  0  0  0  0  0
    1.5781   -7.4232    4.1512 C   0  0  2  0  0  0  0  0  0  0  0  0
    2.2441   -6.0669    4.5387 C   0  0  2  0  0  0  0  0  0  0  0  0
    1.6623   -4.9454    3.8778 O   0  0  0  0  0  0  0  0  0  0  0  0
    1.7561   -3.6246    4.2834 C   0  0  0  0  0  0  0  0  0  0  0  0
    0.9937   -2.8116    3.7639 O   0  0  0  0  0  0  0  0  0  0  0  0
    3.3606   -0.2879    0.0836 H   0  0  0  0  0  0  0  0  0  0  0  0
    2.2253   -1.2987    0.9754 H   0  0  0  0  0  0  0  0  0  0  0  0
    3.8691   -1.0536    1.5646 H   0  0  0  0  0  0  0  0  0  0  0  0
    3.3448    1.4000    1.9251 H   0  0  0  0  0  0  0  0  0  0  0  0
    1.7393    1.1469    1.2921 H   0  0  0  0  0  0  0  0  0  0  0  0
    1.6307    1.2666    3.7318 H   0  0  0  0  0  0  0  0  0  0  0  0
    1.1683   -0.3234    3.1935 H   0  0  0  0  0  0  0  0  0  0  0  0
    3.5107   -1.1276    3.6821 H   0  0  0  0  0  0  0  0  0  0  0  0
    3.9346    0.4441    4.3009 H   0  0  0  0  0  0  0  0  0  0  0  0
    2.3008    0.1690    6.1883 H   0  0  0  0  0  0  0  0  0  0  0  0
    2.1275   -2.0286    7.0448 H   0  0  0  0  0  0  0  0  0  0  0  0
    5.0866   -5.2501    6.1172 H   0  0  0  0  0  0  0  0  0  0  0  0
    5.0725   -7.9923    2.3989 H   0  0  0  0  0  0  0  0  0  0  0  0
    5.8074   -5.5151    1.6520 H   0  0  0  0  0  0  0  0  0  0  0  0
    5.3052   -6.6942    0.4551 H   0  0  0  0  0  0  0  0  0  0  0  0
    3.6951   -4.3661    1.5174 H   0  0  0  0  0  0  0  0  0  0  0  0
    3.7748   -4.9893   -0.1406 H   0  0  0  0  0  0  0  0  0  0  0  0
    3.1682   -8.1329    1.1300 H   0  0  0  0  0  0  0  0  0  0  0  0
    2.8941   -8.8989    3.3862 H   0  0  0  0  0  0  0  0  0  0  0  0
    1.0683   -8.9763    1.3063 H   0  0  0  0  0  0  0  0  0  0  0  0
    0.2653  -10.9964    2.2816 H   0  0  0  0  0  0  0  0  0  0  0  0
    1.9620  -10.9030    2.6851 H   0  0  0  0  0  0  0  0  0  0  0  0
    1.6250  -12.4993    4.6385 H   0  0  0  0  0  0  0  0  0  0  0  0
   -0.0025  -12.6539    3.9688 H   0  0  0  0  0  0  0  0  0  0  0  0
    0.1890  -12.2233    5.6528 H   0  0  0  0  0  0  0  0  0  0  0  0
    1.1252  -10.2505    6.3154 H   0  0  0  0  0  0  0  0  0  0  0  0
    2.4773  -10.1291    5.2525 H   0  0  0  0  0  0  0  0  0  0  0  0
    1.7018   -7.9490    6.2588 H   0  0  0  0  0  0  0  0  0  0  0  0
   -0.9894   -8.5411    5.4362 H   0  0  0  0  0  0  0  0  0  0  0  0
   -0.3497   -6.9179    5.9531 H   0  0  0  0  0  0  0  0  0  0  0  0
   -0.3190   -6.4416    3.6027 H   0  0  0  0  0  0  0  0  0  0  0  0
   -2.0776   -7.5526    2.2078 H   0  0  0  0  0  0  0  0  0  0  0  0
   -1.3844   -8.7204    1.1010 H   0  0  0  0  0  0  0  0  0  0  0  0
   -0.6950   -7.1043    1.1997 H   0  0  0  0  0  0  0  0  0  0  0  0
    1.9476   -5.9461    5.5797 H   0  0  0  0  0  0  0  0  0  0  0  0
   -0.3410  -10.3249    4.4235 H   0  0  0  0  0  0  0  0  0  0  0  0
  1  2  1  0
  1 35  1  0
  1 36  1  0
  1 37  1  0
  2  3  1  0
  2 38  1  0
  2 39  1  0
  3  4  1  0
  3 40  1  0
  3 41  1  0
  4  5  1  0
  4 42  1  0
  4 43  1  0
  5  6  2  3
  5 44  1  0
  7  6  1  1
  6 45  1  0
  7 10  1  0
  7 33  1  0
  7  8  1  0
  8  9  1  0
  9 10  1  0
  9 11  1  0
  9 46  1  1
 11 31  1  0
 11 12  2  0
 12 13  1  0
 13 18  1  0
 13 14  1  0
 13 47  1  1
 14 15  1  0
 14 48  1  0
 14 49  1  0
 15 16  1  0
 15 50  1  0
 15 51  1  0
 16 17  2  0
 16 18  1  0
 18 19  1  0
 18 52  1  6
 19 30  1  0
 19 20  1  0
 19 53  1  1
 20 28  1  0
 20 21  1  0
 20 54  1  6
 21 22  1  0
 21 55  1  0
 21 56  1  0
 22 23  1  0
 22 24  1  0
 22 70  1  6
 23 57  1  0
 23 58  1  0
 23 59  1  0
 24 25  1  0
 24 60  1  0
 24 61  1  0
 25 30  1  0
 25 26  1  0
 25 62  1  1
 26 27  1  0
 26 63  1  0
 26 64  1  0
 27 28  1  0
 27 30  1  0
 27 65  1  6
 28 29  1  0
 29 66  1  0
 29 67  1  0
 29 68  1  0
 30 31  1  1
 31 32  1  0
 31 69  1  1
 32 33  1  0
 33 34  2  0
M  CHG  1  22   1
M  END
>  <i_m_ct_stereo_status>  (236) 
1

>  <s_m_source_file>  (236) 
/var/tmp/pbs.5076255.sched01/tmp25xsusm8/82mdre8bl4.sdf

>  <i_m_source_file_index>  (236) 
33

>  <i_lp_mmshare_version>  (236) 
48012

>  <i_f3d_flags>  (236) 
0

>  <s_epik_input>  (236) 
W0NIM11bQ0gyXVtDSDJdW0NIMl0vW0NIXT1bQ0hdL1tDQF0oUzEpKEMoPU8pT1tDQEhdMjMpT1tDQEhdMUMyPU5bQ0BIXShbQ0gyXVtDSDJdQzQ9TylbQ0BIXTRbQ0BASF0oW0NAXTM1NilbQ0BIXTdbQ0gyXU4oW0NIM10pW0NIMl1bQ0BASF01W0NIMl1bQ0BASF02TjdbQ0gzXQ==

>  <s_epik_cmdline>  (236) 
J2VwaWtfcHl0aG9uJywgJy1waHQnLCAnMi4wJywgJy1waCcsICc3LjAnLCAnLXRuJywgJzgnLCAnLW1hJywgJzIwMCcsICctaW1hZScsICc8aW5maWxlLm1hZT4nLCAnLW9tYWUnLCAnPG91dGZpbGUubWFlPic=

>  <r_lp_tautomer_probability>  (236) 
0.999984

>  <r_epik_Ionization_Penalty>  (236) 
0.0296133

>  <r_epik_Ionization_Penalty_Charging>  (236) 
0.0294733

>  <r_epik_Ionization_Penalty_Neutral>  (236) 
0.000140053

>  <r_epik_State_Penalty>  (236) 
0.219398

>  <r_epik_Charging_Adjusted_Penalty>  (236) 
0.248871

>  <i_epik_Tot_Q>  (236) 
1

>  <i_epik_Tot_abs_Q>  (236) 
1

>  <s_epik_Chemistry_Notes>  (236) 
This compound has an ester and may undergo hydrolysis at high or low pH. This compound has an imine and may undergo hydrolysis. This compound contains an acetal/aminal-like group ( X-CH(R)-Y where X, Y are N, S, or O) that may be acid/base labile, releasing an aldehyde.

>  <s_lp_Force_Field>  (236) 
OPLS3e

>  <r_lp_Energy>  (236) 
85.666

>  <b_lp_Chiralities_Consistent>  (236) 
1

>  <s_lp_Variant>  (236) 
82:0-1

>  <s_i_glide_gridfile>  (236) 
pfpi4k_grid

>  <i_i_glide_lignum>  (236) 
33

>  <i_i_glide_rotatable_bonds>  (236) 
4

>  <r_i_docking_score>  (236) 
-2.36804

>  <r_i_glide_ligand_efficiency>  (236) 
-0.0696482

>  <r_i_glide_ligand_efficiency_sa>  (236) 
-0.225633

>  <r_i_glide_ligand_efficiency_ln>  (236) 
-0.523166

>  <r_i_glide_gscore>  (236) 
-2.36804

>  <r_i_glide_lipo>  (236) 
-0.277459

>  <r_i_glide_hbond>  (236) 
-0.282519

>  <r_i_glide_metal>  (236) 
-0

>  <r_i_glide_rewards>  (236) 
-0.101543

>  <r_i_glide_evdw>  (236) 
-24.3523

>  <r_i_glide_ecoul>  (236) 
-4.57239

>  <r_i_glide_erotb>  (236) 
0.257451

>  <r_i_glide_esite>  (236) 
-0.0604986

>  <r_i_glide_emodel>  (236) 
-34.7082

>  <r_i_glide_energy>  (236) 
-28.9247

>  <r_i_glide_einternal>  (236) 
1.88118

>  <r_i_glide_intrahb_reward>  (236) 
-0

>  <i_i_glide_confnum>  (236) 
2

>  <i_i_glide_posenum>  (236) 
12

>  <r_i_glide_eff_state_penalty>  (236) 
0

>  <ligand_id>  (236) 
82

>  <original_smiles>  (236) 
CCCCC=CC12OC(S1)C1=NC3CCC(=O)C3C3C4CN(C)CC5CC(N4C)C53C1OC2=O

>  <smiles>  (236) 
[H]C(=C([H])C([H])([H])C([H])([H])C([H])([H])C([H])([H])[H])C12OC([H])(S1)C1=NC3([H])C([H])([H])C([H])([H])C(=O)C3([H])C3([H])C4([H])N(C([H])([H])[H])C5([H])C([H])([H])C([H])(C53C1([H])OC2=O)C([H])([H])[N+]([H])(C([H])([H])[H])C4([H])[H]

$$$$
82:0:2
     RDKit          3D

 70 76  0  0  1  0  0  0  0  0999 V2000
    4.9206   -4.1567   -4.1899 C   0  0  0  0  0  0  0  0  0  0  0  0
    5.3318   -3.3609   -2.9463 C   0  0  0  0  0  0  0  0  0  0  0  0
    4.1741   -3.1850   -1.9607 C   0  0  0  0  0  0  0  0  0  0  0  0
    4.6172   -2.4869   -0.6672 C   0  0  0  0  0  0  0  0  0  0  0  0
    3.4538   -1.8657    0.0974 C   0  0  0  0  0  0  0  0  0  0  0  0
    2.8827   -2.3091    1.2353 C   0  0  0  0  0  0  0  0  0  0  0  0
    3.2242   -3.5634    2.0378 C   0  0  2  0  0  0  0  0  0  0  0  0
    2.8719   -3.3997    3.4626 O   0  0  0  0  0  0  0  0  0  0  0  0
    4.0437   -4.1248    4.0040 C   0  0  2  0  0  0  0  0  0  0  0  0
    4.9615   -3.6572    2.5433 S   0  0  0  0  0  0  0  0  0  0  0  0
    3.8593   -5.6290    4.1018 C   0  0  0  0  0  0  0  0  0  0  0  0
    4.8823   -6.3217    4.4370 N   0  0  0  0  0  0  0  0  0  0  0  0
    5.1659   -7.7412    4.2010 C   0  0  2  0  0  0  0  0  0  0  0  0
    6.2637   -7.8567    3.1244 C   0  0  0  0  0  0  0  0  0  0  0  0
    5.5368   -7.9288    1.7725 C   0  0  0  0  0  0  0  0  0  0  0  0
    4.1769   -8.5090    2.1335 C   0  0  0  0  0  0  0  0  0  0  0  0
    3.3161   -8.8084    1.3159 O   0  0  0  0  0  0  0  0  0  0  0  0
    4.0461   -8.6356    3.6484 C   0  0  2  0  0  0  0  0  0  0  0  0
    2.6924   -8.5194    4.3795 C   0  0  2  0  0  0  0  0  0  0  0  0
    1.7481   -9.7418    4.2185 C   0  0  1  0  0  0  0  0  0  0  0  0
    1.2581  -10.2672    5.5835 C   0  0  0  0  0  0  0  0  0  0  0  0
    0.2687   -9.3838    6.2749 N   0  0  1  0  0  0  0  0  0  0  0  0
   -0.1854  -10.0109    7.5292 C   0  0  0  0  0  0  0  0  0  0  0  0
    0.6916   -7.9675    6.5267 C   0  0  0  0  0  0  0  0  0  0  0  0
    0.7875   -7.0523    5.2871 C   0  0  2  0  0  0  0  0  0  0  0  0
   -0.3415   -7.0818    4.2597 C   0  0  0  0  0  0  0  0  0  0  0  0
    0.5946   -7.8931    3.3786 C   0  0  2  0  0  0  0  0  0  0  0  0
    0.5356   -9.3496    3.4860 N   0  0  0  0  0  0  0  0  0  0  0  0
    0.3396  -10.0514    2.2367 C   0  0  0  0  0  0  0  0  0  0  0  0
    1.8044   -7.3215    4.1335 C   0  0  2  0  0  0  0  0  0  0  0  0
    2.4860   -6.0369    3.5697 C   0  0  2  0  0  0  0  0  0  0  0  0
    2.4863   -5.9851    2.1457 O   0  0  0  0  0  0  0  0  0  0  0  0
    2.6340   -4.8436    1.3818 C   0  0  0  0  0  0  0  0  0  0  0  0
    2.3011   -4.9043    0.1981 O   0  0  0  0  0  0  0  0  0  0  0  0
    5.7481   -4.2470   -4.8939 H   0  0  0  0  0  0  0  0  0  0  0  0
    4.0931   -3.6774   -4.7094 H   0  0  0  0  0  0  0  0  0  0  0  0
    4.6075   -5.1654   -3.9197 H   0  0  0  0  0  0  0  0  0  0  0  0
    6.1709   -3.8539   -2.4512 H   0  0  0  0  0  0  0  0  0  0  0  0
    5.6889   -2.3757   -3.2383 H   0  0  0  0  0  0  0  0  0  0  0  0
    3.3540   -2.6441   -2.4385 H   0  0  0  0  0  0  0  0  0  0  0  0
    3.7882   -4.1699   -1.7040 H   0  0  0  0  0  0  0  0  0  0  0  0
    5.1600   -3.2231   -0.0753 H   0  0  0  0  0  0  0  0  0  0  0  0
    5.3218   -1.6775   -0.8698 H   0  0  0  0  0  0  0  0  0  0  0  0
    3.0462   -0.9600   -0.3393 H   0  0  0  0  0  0  0  0  0  0  0  0
    2.0694   -1.7217    1.6403 H   0  0  0  0  0  0  0  0  0  0  0  0
    4.4638   -3.6842    4.9053 H   0  0  0  0  0  0  0  0  0  0  0  0
    5.5324   -8.1687    5.1348 H   0  0  0  0  0  0  0  0  0  0  0  0
    6.9817   -7.0367    3.1733 H   0  0  0  0  0  0  0  0  0  0  0  0
    6.8258   -8.7815    3.2740 H   0  0  0  0  0  0  0  0  0  0  0  0
    5.3974   -6.9312    1.3581 H   0  0  0  0  0  0  0  0  0  0  0  0
    6.0641   -8.5437    1.0455 H   0  0  0  0  0  0  0  0  0  0  0  0
    4.3713   -9.6599    3.8316 H   0  0  0  0  0  0  0  0  0  0  0  0
    3.0101   -8.4914    5.4229 H   0  0  0  0  0  0  0  0  0  0  0  0
    2.2689  -10.5516    3.7061 H   0  0  0  0  0  0  0  0  0  0  0  0
    0.7657  -11.2277    5.4060 H   0  0  0  0  0  0  0  0  0  0  0  0
    2.1128  -10.4742    6.2317 H   0  0  0  0  0  0  0  0  0  0  0  0
    0.6370  -10.0994    8.2416 H   0  0  0  0  0  0  0  0  0  0  0  0
   -0.5929  -11.0066    7.3246 H   0  0  0  0  0  0  0  0  0  0  0  0
   -0.9819   -9.4187    7.9959 H   0  0  0  0  0  0  0  0  0  0  0  0
   -0.0593   -7.5233    7.1798 H   0  0  0  0  0  0  0  0  0  0  0  0
    1.6107   -7.9389    7.1092 H   0  0  0  0  0  0  0  0  0  0  0  0
    0.9053   -6.0238    5.6285 H   0  0  0  0  0  0  0  0  0  0  0  0
   -1.2383   -7.6248    4.5664 H   0  0  0  0  0  0  0  0  0  0  0  0
   -0.5613   -6.0940    3.8532 H   0  0  0  0  0  0  0  0  0  0  0  0
    0.5652   -7.5880    2.3340 H   0  0  0  0  0  0  0  0  0  0  0  0
   -0.5901   -9.7219    1.7722 H   0  0  0  0  0  0  0  0  0  0  0  0
    0.2558  -11.1256    2.3979 H   0  0  0  0  0  0  0  0  0  0  0  0
    1.1633   -9.8795    1.5505 H   0  0  0  0  0  0  0  0  0  0  0  0
    1.7985   -5.2453    3.8697 H   0  0  0  0  0  0  0  0  0  0  0  0
   -0.5289   -9.3645    5.6498 H   0  0  0  0  0  0  0  0  0  0  0  0
  1  2  1  0
  1 35  1  0
  1 36  1  0
  1 37  1  0
  2  3  1  0
  2 38  1  0
  2 39  1  0
  3  4  1  0
  3 40  1  0
  3 41  1  0
  4  5  1  0
  4 42  1  0
  4 43  1  0
  5  6  2  3
  5 44  1  0
  7  6  1  6
  6 45  1  0
  7 10  1  0
  7 33  1  0
  7  8  1  0
  8  9  1  0
  9 10  1  0
  9 11  1  0
  9 46  1  1
 11 31  1  0
 11 12  2  0
 12 13  1  0
 13 18  1  0
 13 14  1  0
 13 47  1  1
 14 15  1  0
 14 48  1  0
 14 49  1  0
 15 16  1  0
 15 50  1  0
 15 51  1  0
 16 17  2  0
 16 18  1  0
 18 19  1  0
 18 52  1  6
 19 30  1  0
 19 20  1  0
 19 53  1  1
 20 28  1  0
 20 21  1  0
 20 54  1  6
 21 22  1  0
 21 55  1  0
 21 56  1  0
 22 23  1  0
 22 24  1  0
 22 70  1  6
 23 57  1  0
 23 58  1  0
 23 59  1  0
 24 25  1  0
 24 60  1  0
 24 61  1  0
 25 30  1  0
 25 26  1  0
 25 62  1  1
 26 27  1  0
 26 63  1  0
 26 64  1  0
 27 28  1  0
 27 30  1  0
 27 65  1  6
 28 29  1  0
 29 66  1  0
 29 67  1  0
 29 68  1  0
 30 31  1  6
 31 32  1  0
 31 69  1  1
 32 33  1  0
 33 34  2  0
M  CHG  1  22   1
M  END
>  <i_m_ct_stereo_status>  (237) 
1

>  <s_m_source_file>  (237) 
/var/tmp/pbs.5076255.sched01/tmp25xsusm8/82mdre8bl4.sdf

>  <i_m_source_file_index>  (237) 
33

>  <i_lp_mmshare_version>  (237) 
48012

>  <i_f3d_flags>  (237) 
0

>  <s_epik_input>  (237) 
W0NIM11bQ0gyXVtDSDJdW0NIMl0vW0NIXT1bQ0hdL1tDQF0oUzEpKEMoPU8pT1tDQEhdMjMpT1tDQEhdMUMyPU5bQ0BIXShbQ0gyXVtDSDJdQzQ9TylbQ0BIXTRbQ0BASF0oW0NAXTM1NilbQ0BIXTdbQ0gyXU4oW0NIM10pW0NIMl1bQ0BASF01W0NIMl1bQ0BASF02TjdbQ0gzXQ==

>  <s_epik_cmdline>  (237) 
J2VwaWtfcHl0aG9uJywgJy1waHQnLCAnMi4wJywgJy1waCcsICc3LjAnLCAnLXRuJywgJzgnLCAnLW1hJywgJzIwMCcsICctaW1hZScsICc8aW5maWxlLm1hZT4nLCAnLW9tYWUnLCAnPG91dGZpbGUubWFlPic=

>  <r_lp_tautomer_probability>  (237) 
0.999984

>  <r_epik_Ionization_Penalty>  (237) 
0.0296133

>  <r_epik_Ionization_Penalty_Charging>  (237) 
0.0294733

>  <r_epik_Ionization_Penalty_Neutral>  (237) 
0.000140053

>  <r_epik_State_Penalty>  (237) 
0.219398

>  <r_epik_Charging_Adjusted_Penalty>  (237) 
0.248871

>  <i_epik_Tot_Q>  (237) 
1

>  <i_epik_Tot_abs_Q>  (237) 
1

>  <s_epik_Chemistry_Notes>  (237) 
This compound has an ester and may undergo hydrolysis at high or low pH. This compound has an imine and may undergo hydrolysis. This compound contains an acetal/aminal-like group ( X-CH(R)-Y where X, Y are N, S, or O) that may be acid/base labile, releasing an aldehyde.

>  <s_lp_Force_Field>  (237) 
OPLS3e

>  <r_lp_Energy>  (237) 
85.666

>  <b_lp_Chiralities_Consistent>  (237) 
1

>  <s_lp_Variant>  (237) 
82:0-1

>  <s_i_glide_gridfile>  (237) 
pfpi4k_grid

>  <i_i_glide_lignum>  (237) 
33

>  <i_i_glide_rotatable_bonds>  (237) 
4

>  <r_i_docking_score>  (237) 
-2.26928

>  <r_i_glide_ligand_efficiency>  (237) 
-0.0667436

>  <r_i_glide_ligand_efficiency_sa>  (237) 
-0.216223

>  <r_i_glide_ligand_efficiency_ln>  (237) 
-0.501348

>  <r_i_glide_gscore>  (237) 
-2.26928

>  <r_i_glide_lipo>  (237) 
-0.479298

>  <r_i_glide_hbond>  (237) 
-0.0049651

>  <r_i_glide_metal>  (237) 
-0

>  <r_i_glide_rewards>  (237) 
-0.0910381

>  <r_i_glide_evdw>  (237) 
-26.2615

>  <r_i_glide_ecoul>  (237) 
-3.63196

>  <r_i_glide_erotb>  (237) 
0.257451

>  <r_i_glide_esite>  (237) 
-0.0935633

>  <r_i_glide_emodel>  (237) 
-35.0057

>  <r_i_glide_energy>  (237) 
-29.8935

>  <r_i_glide_einternal>  (237) 
2.46394

>  <r_i_glide_intrahb_reward>  (237) 
-0

>  <i_i_glide_confnum>  (237) 
2

>  <i_i_glide_posenum>  (237) 
2

>  <r_i_glide_eff_state_penalty>  (237) 
0

>  <ligand_id>  (237) 
82

>  <original_smiles>  (237) 
CCCCC=CC12OC(S1)C1=NC3CCC(=O)C3C3C4CN(C)CC5CC(N4C)C53C1OC2=O

>  <smiles>  (237) 
[H]C(=C([H])C([H])([H])C([H])([H])C([H])([H])C([H])([H])[H])C12OC([H])(S1)C1=NC3([H])C([H])([H])C([H])([H])C(=O)C3([H])C3([H])C4([H])N(C([H])([H])[H])C5([H])C([H])([H])C([H])(C53C1([H])OC2=O)C([H])([H])[N+]([H])(C([H])([H])[H])C4([H])[H]

$$$$
82:1:0
     RDKit          3D

 70 76  0  0  1  0  0  0  0  0999 V2000
   -1.4979   -8.9373    2.4165 C   0  0  0  0  0  0  0  0  0  0  0  0
   -0.2226   -8.1163    2.6302 C   0  0  0  0  0  0  0  0  0  0  0  0
    0.1264   -7.9431    4.1171 C   0  0  0  0  0  0  0  0  0  0  0  0
    1.3362   -7.0245    4.3471 C   0  0  0  0  0  0  0  0  0  0  0  0
    2.6338   -7.6201    3.8219 C   0  0  0  0  0  0  0  0  0  0  0  0
    3.5311   -7.0244    3.0166 C   0  0  0  0  0  0  0  0  0  0  0  0
    3.4649   -5.6213    2.4280 C   0  0  2  0  0  0  0  0  0  0  0  0
    2.1340   -5.2632    1.9008 O   0  0  0  0  0  0  0  0  0  0  0  0
    2.6207   -4.5576    0.7075 C   0  0  2  0  0  0  0  0  0  0  0  0
    4.0748   -5.5858    0.7437 S   0  0  0  0  0  0  0  0  0  0  0  0
    2.9361   -3.0982    0.9478 C   0  0  0  0  0  0  0  0  0  0  0  0
    3.4515   -2.4593   -0.0264 N   0  0  0  0  0  0  0  0  0  0  0  0
    4.2377   -1.2317   -0.0253 C   0  0  2  0  0  0  0  0  0  0  0  0
    5.7167   -1.6078   -0.2508 C   0  0  0  0  0  0  0  0  0  0  0  0
    6.3370   -1.8044    1.1409 C   0  0  0  0  0  0  0  0  0  0  0  0
    5.4629   -0.9196    2.0324 C   0  0  0  0  0  0  0  0  0  0  0  0
    5.6833   -0.6514    3.1999 O   0  0  0  0  0  0  0  0  0  0  0  0
    4.2750   -0.3805    1.2451 C   0  0  2  0  0  0  0  0  0  0  0  0
    2.9169   -0.1418    1.9258 C   0  0  2  0  0  0  0  0  0  0  0  0
    2.9045    1.0700    2.8737 C   0  0  1  0  0  0  0  0  0  0  0  0
    1.6636    1.9874    2.6770 C   0  0  0  0  0  0  0  0  0  0  0  0
    0.4179    1.4124    3.1864 N   0  0  0  0  0  0  0  0  0  0  0  0
   -0.6597    2.3962    3.0993 C   0  0  0  0  0  0  0  0  0  0  0  0
    0.0094    0.1550    2.5559 C   0  0  0  0  0  0  0  0  0  0  0  0
    0.8279   -1.0290    3.1031 C   0  0  2  0  0  0  0  0  0  0  0  0
    1.1100   -1.0675    4.5991 C   0  0  0  0  0  0  0  0  0  0  0  0
    2.5839   -0.8473    4.2806 C   0  0  2  0  0  0  0  0  0  0  0  0
    3.0637    0.5469    4.2471 N   0  0  2  0  0  0  0  0  0  0  0  0
    2.7429    1.4223    5.3891 C   0  0  0  0  0  0  0  0  0  0  0  0
    2.3490   -1.2559    2.8006 C   0  0  2  0  0  0  0  0  0  0  0  0
    2.7323   -2.7222    2.4118 C   0  0  2  0  0  0  0  0  0  0  0  0
    3.8282   -3.2428    3.1679 O   0  0  0  0  0  0  0  0  0  0  0  0
    4.1272   -4.5793    3.3460 C   0  0  0  0  0  0  0  0  0  0  0  0
    4.9716   -4.8772    4.2108 O   0  0  0  0  0  0  0  0  0  0  0  0
   -1.7076   -9.0565    1.3540 H   0  0  0  0  0  0  0  0  0  0  0  0
   -2.3627   -8.4625    2.8797 H   0  0  0  0  0  0  0  0  0  0  0  0
   -1.3933   -9.9334    2.8460 H   0  0  0  0  0  0  0  0  0  0  0  0
    0.6036   -8.6062    2.1128 H   0  0  0  0  0  0  0  0  0  0  0  0
   -0.3403   -7.1378    2.1654 H   0  0  0  0  0  0  0  0  0  0  0  0
   -0.7287   -7.5148    4.6375 H   0  0  0  0  0  0  0  0  0  0  0  0
    0.2982   -8.9188    4.5780 H   0  0  0  0  0  0  0  0  0  0  0  0
    1.1302   -6.0395    3.9350 H   0  0  0  0  0  0  0  0  0  0  0  0
    1.4780   -6.8626    5.4172 H   0  0  0  0  0  0  0  0  0  0  0  0
    2.8468   -8.6267    4.1605 H   0  0  0  0  0  0  0  0  0  0  0  0
    4.4108   -7.5898    2.7479 H   0  0  0  0  0  0  0  0  0  0  0  0
    2.0183   -4.7269   -0.1832 H   0  0  0  0  0  0  0  0  0  0  0  0
    3.8915   -0.6077   -0.8512 H   0  0  0  0  0  0  0  0  0  0  0  0
    5.8200   -2.4789   -0.8995 H   0  0  0  0  0  0  0  0  0  0  0  0
    6.2100   -0.7701   -0.7446 H   0  0  0  0  0  0  0  0  0  0  0  0
    6.2435   -2.8457    1.4518 H   0  0  0  0  0  0  0  0  0  0  0  0
    7.3883   -1.5223    1.1679 H   0  0  0  0  0  0  0  0  0  0  0  0
    4.6308    0.5987    0.9285 H   0  0  0  0  0  0  0  0  0  0  0  0
    2.2412    0.0654    1.0975 H   0  0  0  0  0  0  0  0  0  0  0  0
    3.7678    1.6961    2.7008 H   0  0  0  0  0  0  0  0  0  0  0  0
    1.8391    2.9387    3.1852 H   0  0  0  0  0  0  0  0  0  0  0  0
    1.5612    2.2375    1.6210 H   0  0  0  0  0  0  0  0  0  0  0  0
   -1.5528    2.0111    3.5973 H   0  0  0  0  0  0  0  0  0  0  0  0
   -0.9223    2.6523    2.0721 H   0  0  0  0  0  0  0  0  0  0  0  0
   -0.3685    3.3102    3.6219 H   0  0  0  0  0  0  0  0  0  0  0  0
   -1.0278    0.0017    2.8499 H   0  0  0  0  0  0  0  0  0  0  0  0
    0.0002    0.2097    1.4661 H   0  0  0  0  0  0  0  0  0  0  0  0
    0.3078   -1.9554    2.8753 H   0  0  0  0  0  0  0  0  0  0  0  0
    0.6004   -0.2932    5.1761 H   0  0  0  0  0  0  0  0  0  0  0  0
    0.9252   -2.0620    4.9999 H   0  0  0  0  0  0  0  0  0  0  0  0
    3.2262   -1.5112    4.8548 H   0  0  0  0  0  0  0  0  0  0  0  0
    1.6854    1.6780    5.4635 H   0  0  0  0  0  0  0  0  0  0  0  0
    3.3026    2.3558    5.3246 H   0  0  0  0  0  0  0  0  0  0  0  0
    3.0299    0.9399    6.3217 H   0  0  0  0  0  0  0  0  0  0  0  0
    1.8771   -3.2969    2.7635 H   0  0  0  0  0  0  0  0  0  0  0  0
    4.0704    0.4024    4.2945 H   0  0  0  0  0  0  0  0  0  0  0  0
  1  2  1  0
  1 35  1  0
  1 36  1  0
  1 37  1  0
  2  3  1  0
  2 38  1  0
  2 39  1  0
  3  4  1  0
  3 40  1  0
  3 41  1  0
  4  5  1  0
  4 42  1  0
  4 43  1  0
  5  6  2  3
  5 44  1  0
  7  6  1  1
  6 45  1  0
  7 10  1  0
  7 33  1  0
  7  8  1  0
  8  9  1  0
  9 10  1  0
  9 11  1  0
  9 46  1  6
 11 31  1  0
 11 12  2  0
 12 13  1  0
 13 18  1  0
 13 14  1  0
 13 47  1  6
 14 15  1  0
 14 48  1  0
 14 49  1  0
 15 16  1  0
 15 50  1  0
 15 51  1  0
 16 17  2  0
 16 18  1  0
 18 19  1  0
 18 52  1  6
 19 30  1  0
 19 20  1  0
 19 53  1  6
 20 28  1  0
 20 21  1  0
 20 54  1  6
 21 22  1  0
 21 55  1  0
 21 56  1  0
 22 23  1  0
 22 24  1  0
 23 57  1  0
 23 58  1  0
 23 59  1  0
 24 25  1  0
 24 60  1  0
 24 61  1  0
 25 30  1  0
 25 26  1  0
 25 62  1  1
 26 27  1  0
 26 63  1  0
 26 64  1  0
 27 28  1  0
 27 30  1  0
 27 65  1  1
 28 29  1  0
 28 70  1  1
 29 66  1  0
 29 67  1  0
 29 68  1  0
 30 31  1  6
 31 32  1  0
 31 69  1  1
 32 33  1  0
 33 34  2  0
M  CHG  1  28   1
M  END
>  <i_m_ct_stereo_status>  (238) 
1

>  <s_m_source_file>  (238) 
/var/tmp/pbs.5076255.sched01/tmp25xsusm8/82mdre8bl4.sdf

>  <i_m_source_file_index>  (238) 
34

>  <i_lp_mmshare_version>  (238) 
48012

>  <i_f3d_flags>  (238) 
0

>  <s_epik_input>  (238) 
W0NIM11bQ0gyXVtDSDJdW0NIMl0vW0NIXT1bQ0hdL1tDQF0oUzEpKEMoPU8pT1tDQEhdMjMpT1tDQEhdMUMyPU5bQ0BIXShbQ0gyXVtDSDJdQzQ9TylbQ0BIXTRbQ0BASF0oW0NAXTM1NilbQ0BIXTdbQ0gyXU4oW0NIM10pW0NIMl1bQ0BASF01W0NIMl1bQ0BASF02TjdbQ0gzXQ==

>  <s_epik_cmdline>  (238) 
J2VwaWtfcHl0aG9uJywgJy1waHQnLCAnMi4wJywgJy1waCcsICc3LjAnLCAnLXRuJywgJzgnLCAnLW1hJywgJzIwMCcsICctaW1hZScsICc8aW5maWxlLm1hZT4nLCAnLW9tYWUnLCAnPG91dGZpbGUubWFlPic=

>  <r_epik_Ionization_Penalty>  (238) 
0.0693224

>  <r_epik_Ionization_Penalty_Charging>  (238) 
0.0664015

>  <r_epik_Ionization_Penalty_Neutral>  (238) 
0.00292091

>  <r_epik_State_Penalty>  (238) 
0.752887

>  <r_epik_Charging_Adjusted_Penalty>  (238) 
0.819288

>  <i_epik_Tot_Q>  (238) 
1

>  <i_epik_Tot_abs_Q>  (238) 
1

>  <s_epik_Chemistry_Notes>  (238) 
This compound has an ester and may undergo hydrolysis at high or low pH. This compound has an imine and may undergo hydrolysis. This compound contains an acetal/aminal-like group ( X-CH(R)-Y where X, Y are N, S, or O) that may be acid/base labile, releasing an aldehyde.

>  <s_lp_Force_Field>  (238) 
OPLS3e

>  <r_lp_Energy>  (238) 
75.7188

>  <b_lp_Chiralities_Consistent>  (238) 
1

>  <s_lp_Variant>  (238) 
82:0-2

>  <s_i_glide_gridfile>  (238) 
pfpi4k_grid

>  <i_i_glide_lignum>  (238) 
34

>  <i_i_glide_rotatable_bonds>  (238) 
4

>  <r_i_docking_score>  (238) 
-3.05486

>  <r_i_glide_ligand_efficiency>  (238) 
-0.0898487

>  <r_i_glide_ligand_efficiency_sa>  (238) 
-0.291075

>  <r_i_glide_ligand_efficiency_ln>  (238) 
-0.674903

>  <r_i_glide_gscore>  (238) 
-3.05486

>  <r_i_glide_lipo>  (238) 
-0.491738

>  <r_i_glide_hbond>  (238) 
0

>  <r_i_glide_metal>  (238) 
-0

>  <r_i_glide_rewards>  (238) 
-0.741054

>  <r_i_glide_evdw>  (238) 
-28.3462

>  <r_i_glide_ecoul>  (238) 
-4.29899

>  <r_i_glide_erotb>  (238) 
0.257451

>  <r_i_glide_esite>  (238) 
-0.0173564

>  <r_i_glide_emodel>  (238) 
-43.9357

>  <r_i_glide_energy>  (238) 
-32.6452

>  <r_i_glide_einternal>  (238) 
1.50795

>  <r_i_glide_intrahb_reward>  (238) 
-0.5

>  <i_i_glide_confnum>  (238) 
4

>  <i_i_glide_posenum>  (238) 
4

>  <r_i_glide_eff_state_penalty>  (238) 
0

>  <ligand_id>  (238) 
82

>  <original_smiles>  (238) 
CCCCC=CC12OC(S1)C1=NC3CCC(=O)C3C3C4CN(C)CC5CC(N4C)C53C1OC2=O

>  <smiles>  (238) 
[H]C(=C([H])C([H])([H])C([H])([H])C([H])([H])C([H])([H])[H])C12OC([H])(S1)C1=NC3([H])C([H])([H])C([H])([H])C(=O)C3([H])C3([H])C4(C1([H])OC2=O)C1([H])C([H])([H])N(C([H])([H])[H])C([H])([H])C3([H])[N+]([H])(C([H])([H])[H])C4([H])C1([H])[H]

$$$$
82:1:1
     RDKit          3D

 70 76  0  0  1  0  0  0  0  0999 V2000
    3.5686   -0.6147   -4.6327 C   0  0  0  0  0  0  0  0  0  0  0  0
    4.0285   -0.9305   -3.2159 C   0  0  0  0  0  0  0  0  0  0  0  0
    4.0479   -2.4419   -2.9010 C   0  0  0  0  0  0  0  0  0  0  0  0
    4.3645   -2.7835   -1.4339 C   0  0  0  0  0  0  0  0  0  0  0  0
    3.4436   -2.1053   -0.4223 C   0  0  0  0  0  0  0  0  0  0  0  0
    3.1533   -2.5124    0.8250 C   0  0  0  0  0  0  0  0  0  0  0  0
    3.6757   -3.7414    1.5599 C   0  0  2  0  0  0  0  0  0  0  0  0
    3.8469   -3.4654    2.9945 O   0  0  0  0  0  0  0  0  0  0  0  0
    5.0900   -4.2421    3.1574 C   0  0  2  0  0  0  0  0  0  0  0  0
    5.4675   -3.9574    1.4361 S   0  0  0  0  0  0  0  0  0  0  0  0
    4.8640   -5.7140    3.4413 C   0  0  0  0  0  0  0  0  0  0  0  0
    5.8969   -6.4681    3.4594 N   0  0  0  0  0  0  0  0  0  0  0  0
    5.9928   -7.9137    3.2341 C   0  0  2  0  0  0  0  0  0  0  0  0
    6.5269   -8.1731    1.8090 C   0  0  0  0  0  0  0  0  0  0  0  0
    5.2980   -8.3193    0.8962 C   0  0  0  0  0  0  0  0  0  0  0  0
    4.2067   -8.7877    1.8514 C   0  0  0  0  0  0  0  0  0  0  0  0
    3.0716   -9.1167    1.5215 O   0  0  0  0  0  0  0  0  0  0  0  0
    4.7126   -8.7584    3.2883 C   0  0  2  0  0  0  0  0  0  0  0  0
    3.7665   -8.4339    4.4600 C   0  0  2  0  0  0  0  0  0  0  0  0
    2.7904   -9.5813    4.7904 C   0  0  1  0  0  0  0  0  0  0  0  0
    2.7072   -9.8558    6.3152 C   0  0  0  0  0  0  0  0  0  0  0  0
    2.0040   -8.8335    7.0928 N   0  0  0  0  0  0  0  0  0  0  0  0
    1.7943   -9.2819    8.4675 C   0  0  0  0  0  0  0  0  0  0  0  0
    2.5690   -7.4842    7.0457 C   0  0  0  0  0  0  0  0  0  0  0  0
    2.2531   -6.7776    5.7160 C   0  0  2  0  0  0  0  0  0  0  0  0
    0.8430   -6.9400    5.1576 C   0  0  0  0  0  0  0  0  0  0  0  0
    1.4325   -7.7490    4.0034 C   0  0  2  0  0  0  0  0  0  0  0  0
    1.4949   -9.2294    4.1452 N   0  0  2  0  0  0  0  0  0  0  0  0
    0.2690   -9.9313    4.5905 C   0  0  0  0  0  0  0  0  0  0  0  0
    2.8523   -7.2202    4.3370 C   0  0  2  0  0  0  0  0  0  0  0  0
    3.3705   -6.0366    3.4557 C   0  0  2  0  0  0  0  0  0  0  0  0
    2.8690   -6.0680    2.1167 O   0  0  0  0  0  0  0  0  0  0  0  0
    2.8304   -4.9967    1.2386 C   0  0  0  0  0  0  0  0  0  0  0  0
    2.1449   -5.1030    0.2197 O   0  0  0  0  0  0  0  0  0  0  0  0
    3.5387    0.4634   -4.7889 H   0  0  0  0  0  0  0  0  0  0  0  0
    2.5572   -0.9926   -4.7629 H   0  0  0  0  0  0  0  0  0  0  0  0
    4.2107   -1.0560   -5.3926 H   0  0  0  0  0  0  0  0  0  0  0  0
    5.0133   -0.5028   -3.0321 H   0  0  0  0  0  0  0  0  0  0  0  0
    3.3465   -0.3876   -2.5703 H   0  0  0  0  0  0  0  0  0  0  0  0
    3.0987   -2.8969   -3.1815 H   0  0  0  0  0  0  0  0  0  0  0  0
    4.8003   -2.9257   -3.5246 H   0  0  0  0  0  0  0  0  0  0  0  0
    4.3224   -3.8691   -1.3056 H   0  0  0  0  0  0  0  0  0  0  0  0
    5.3874   -2.4859   -1.2026 H   0  0  0  0  0  0  0  0  0  0  0  0
    2.9831   -1.1795   -0.7262 H   0  0  0  0  0  0  0  0  0  0  0  0
    2.4695   -1.8981    1.3939 H   0  0  0  0  0  0  0  0  0  0  0  0
    5.8100   -3.7751    3.8251 H   0  0  0  0  0  0  0  0  0  0  0  0
    6.6986   -8.3123    3.9656 H   0  0  0  0  0  0  0  0  0  0  0  0
    7.2207   -7.3974    1.4812 H   0  0  0  0  0  0  0  0  0  0  0  0
    7.0823   -9.1144    1.8061 H   0  0  0  0  0  0  0  0  0  0  0  0
    5.0215   -7.3542    0.4792 H   0  0  0  0  0  0  0  0  0  0  0  0
    5.4609   -9.0288    0.0873 H   0  0  0  0  0  0  0  0  0  0  0  0
    5.0466   -9.7857    3.4464 H   0  0  0  0  0  0  0  0  0  0  0  0
    4.4386   -8.3030    5.3108 H   0  0  0  0  0  0  0  0  0  0  0  0
    3.1372  -10.5072    4.3304 H   0  0  0  0  0  0  0  0  0  0  0  0
    2.2029  -10.8090    6.4562 H   0  0  0  0  0  0  0  0  0  0  0  0
    3.7116  -10.0017    6.7193 H   0  0  0  0  0  0  0  0  0  0  0  0
    1.1449   -8.5788    8.9935 H   0  0  0  0  0  0  0  0  0  0  0  0
    2.7333   -9.3685    9.0173 H   0  0  0  0  0  0  0  0  0  0  0  0
    1.2956  -10.2545    8.4745 H   0  0  0  0  0  0  0  0  0  0  0  0
    2.0903   -6.9120    7.8366 H   0  0  0  0  0  0  0  0  0  0  0  0
    3.6267   -7.4728    7.2936 H   0  0  0  0  0  0  0  0  0  0  0  0
    2.4431   -5.7139    5.8444 H   0  0  0  0  0  0  0  0  0  0  0  0
    0.1412   -7.4564    5.8132 H   0  0  0  0  0  0  0  0  0  0  0  0
    0.4439   -5.9816    4.8209 H   0  0  0  0  0  0  0  0  0  0  0  0
    1.0283   -7.4515    3.0356 H   0  0  0  0  0  0  0  0  0  0  0  0
   -0.0163   -9.7151    5.6238 H   0  0  0  0  0  0  0  0  0  0  0  0
    0.4043  -11.0140    4.4987 H   0  0  0  0  0  0  0  0  0  0  0  0
   -0.5658   -9.6477    3.9429 H   0  0  0  0  0  0  0  0  0  0  0  0
    2.8787   -5.1715    3.9005 H   0  0  0  0  0  0  0  0  0  0  0  0
    1.6482   -9.5241    3.1901 H   0  0  0  0  0  0  0  0  0  0  0  0
  1  2  1  0
  1 35  1  0
  1 36  1  0
  1 37  1  0
  2  3  1  0
  2 38  1  0
  2 39  1  0
  3  4  1  0
  3 40  1  0
  3 41  1  0
  4  5  1  0
  4 42  1  0
  4 43  1  0
  5  6  2  3
  5 44  1  0
  7  6  1  6
  6 45  1  0
  7 10  1  0
  7 33  1  0
  7  8  1  0
  8  9  1  0
  9 10  1  0
  9 11  1  0
  9 46  1  1
 11 31  1  0
 11 12  2  0
 12 13  1  0
 13 18  1  0
 13 14  1  0
 13 47  1  1
 14 15  1  0
 14 48  1  0
 14 49  1  0
 15 16  1  0
 15 50  1  0
 15 51  1  0
 16 17  2  0
 16 18  1  0
 18 19  1  0
 18 52  1  1
 19 30  1  0
 19 20  1  0
 19 53  1  1
 20 28  1  0
 20 21  1  0
 20 54  1  6
 21 22  1  0
 21 55  1  0
 21 56  1  0
 22 23  1  0
 22 24  1  0
 23 57  1  0
 23 58  1  0
 23 59  1  0
 24 25  1  0
 24 60  1  0
 24 61  1  0
 25 30  1  0
 25 26  1  0
 25 62  1  1
 26 27  1  0
 26 63  1  0
 26 64  1  0
 27 28  1  0
 27 30  1  0
 27 65  1  6
 28 29  1  0
 28 70  1  6
 29 66  1  0
 29 67  1  0
 29 68  1  0
 30 31  1  6
 31 32  1  0
 31 69  1  1
 32 33  1  0
 33 34  2  0
M  CHG  1  28   1
M  END
>  <i_m_ct_stereo_status>  (239) 
1

>  <s_m_source_file>  (239) 
/var/tmp/pbs.5076255.sched01/tmp25xsusm8/82mdre8bl4.sdf

>  <i_m_source_file_index>  (239) 
34

>  <i_lp_mmshare_version>  (239) 
48012

>  <i_f3d_flags>  (239) 
0

>  <s_epik_input>  (239) 
W0NIM11bQ0gyXVtDSDJdW0NIMl0vW0NIXT1bQ0hdL1tDQF0oUzEpKEMoPU8pT1tDQEhdMjMpT1tDQEhdMUMyPU5bQ0BIXShbQ0gyXVtDSDJdQzQ9TylbQ0BIXTRbQ0BASF0oW0NAXTM1NilbQ0BIXTdbQ0gyXU4oW0NIM10pW0NIMl1bQ0BASF01W0NIMl1bQ0BASF02TjdbQ0gzXQ==

>  <s_epik_cmdline>  (239) 
J2VwaWtfcHl0aG9uJywgJy1waHQnLCAnMi4wJywgJy1waCcsICc3LjAnLCAnLXRuJywgJzgnLCAnLW1hJywgJzIwMCcsICctaW1hZScsICc8aW5maWxlLm1hZT4nLCAnLW9tYWUnLCAnPG91dGZpbGUubWFlPic=

>  <r_epik_Ionization_Penalty>  (239) 
0.0693224

>  <r_epik_Ionization_Penalty_Charging>  (239) 
0.0664015

>  <r_epik_Ionization_Penalty_Neutral>  (239) 
0.00292091

>  <r_epik_State_Penalty>  (239) 
0.752887

>  <r_epik_Charging_Adjusted_Penalty>  (239) 
0.819288

>  <i_epik_Tot_Q>  (239) 
1

>  <i_epik_Tot_abs_Q>  (239) 
1

>  <s_epik_Chemistry_Notes>  (239) 
This compound has an ester and may undergo hydrolysis at high or low pH. This compound has an imine and may undergo hydrolysis. This compound contains an acetal/aminal-like group ( X-CH(R)-Y where X, Y are N, S, or O) that may be acid/base labile, releasing an aldehyde.

>  <s_lp_Force_Field>  (239) 
OPLS3e

>  <r_lp_Energy>  (239) 
75.7188

>  <b_lp_Chiralities_Consistent>  (239) 
1

>  <s_lp_Variant>  (239) 
82:0-2

>  <s_i_glide_gridfile>  (239) 
pfpi4k_grid

>  <i_i_glide_lignum>  (239) 
34

>  <i_i_glide_rotatable_bonds>  (239) 
4

>  <r_i_docking_score>  (239) 
-3.0007

>  <r_i_glide_ligand_efficiency>  (239) 
-0.0882558

>  <r_i_glide_ligand_efficiency_sa>  (239) 
-0.285915

>  <r_i_glide_ligand_efficiency_ln>  (239) 
-0.662938

>  <r_i_glide_gscore>  (239) 
-3.0007

>  <r_i_glide_lipo>  (239) 
-0.680936

>  <r_i_glide_hbond>  (239) 
-0.0231425

>  <r_i_glide_metal>  (239) 
-0

>  <r_i_glide_rewards>  (239) 
-0.591038

>  <r_i_glide_evdw>  (239) 
-26.6886

>  <r_i_glide_ecoul>  (239) 
-3.7941

>  <r_i_glide_erotb>  (239) 
0.257451

>  <r_i_glide_esite>  (239) 
-0.0594874

>  <r_i_glide_emodel>  (239) 
-40.0821

>  <r_i_glide_energy>  (239) 
-30.4827

>  <r_i_glide_einternal>  (239) 
3.81337

>  <r_i_glide_intrahb_reward>  (239) 
-0.5

>  <i_i_glide_confnum>  (239) 
1

>  <i_i_glide_posenum>  (239) 
25

>  <r_i_glide_eff_state_penalty>  (239) 
0

>  <ligand_id>  (239) 
82

>  <original_smiles>  (239) 
CCCCC=CC12OC(S1)C1=NC3CCC(=O)C3C3C4CN(C)CC5CC(N4C)C53C1OC2=O

>  <smiles>  (239) 
[H]C(=C([H])C([H])([H])C([H])([H])C([H])([H])C([H])([H])[H])C12OC([H])(S1)C1=NC3([H])C([H])([H])C([H])([H])C(=O)C3([H])C3([H])C4(C1([H])OC2=O)C1([H])C([H])([H])N(C([H])([H])[H])C([H])([H])C3([H])[N+]([H])(C([H])([H])[H])C4([H])C1([H])[H]

$$$$
82:1:2
     RDKit          3D

 70 76  0  0  1  0  0  0  0  0999 V2000
   -0.0327   -9.8426    7.1383 C   0  0  0  0  0  0  0  0  0  0  0  0
    0.6416   -9.0306    6.0341 C   0  0  0  0  0  0  0  0  0  0  0  0
    0.9550   -7.5872    6.4632 C   0  0  0  0  0  0  0  0  0  0  0  0
    1.5822   -6.7465    5.3396 C   0  0  0  0  0  0  0  0  0  0  0  0
    2.9957   -7.1812    4.9854 C   0  0  0  0  0  0  0  0  0  0  0  0
    3.8351   -6.5736    4.1395 C   0  0  0  0  0  0  0  0  0  0  0  0
    3.5963   -5.3109    3.3270 C   0  0  2  0  0  0  0  0  0  0  0  0
    2.1889   -5.1223    2.9273 O   0  0  0  0  0  0  0  0  0  0  0  0
    2.4840   -4.6296    1.5673 C   0  0  2  0  0  0  0  0  0  0  0  0
    4.0034   -5.5526    1.6045 S   0  0  0  0  0  0  0  0  0  0  0  0
    2.7113   -3.1415    1.4981 C   0  0  0  0  0  0  0  0  0  0  0  0
    3.0633   -2.6678    0.3739 N   0  0  0  0  0  0  0  0  0  0  0  0
    3.7516   -1.4158    0.0471 C   0  0  2  0  0  0  0  0  0  0  0  0
    5.2189   -1.7462   -0.2978 C   0  0  0  0  0  0  0  0  0  0  0  0
    6.0090   -1.6551    1.0179 C   0  0  0  0  0  0  0  0  0  0  0  0
    5.1734   -0.6898    1.8397 C   0  0  0  0  0  0  0  0  0  0  0  0
    5.5029   -0.2488    2.9460 O   0  0  0  0  0  0  0  0  0  0  0  0
    3.8762   -0.3469    1.1352 C   0  0  2  0  0  0  0  0  0  0  0  0
    2.5853   -0.0593    1.9256 C   0  0  2  0  0  0  0  0  0  0  0  0
    2.5886    1.3118    2.6199 C   0  0  1  0  0  0  0  0  0  0  0  0
    1.2626    2.0916    2.4376 C   0  0  0  0  0  0  0  0  0  0  0  0
    0.1310    1.5623    3.1994 N   0  0  0  0  0  0  0  0  0  0  0  0
   -1.0214    2.4525    3.0824 C   0  0  0  0  0  0  0  0  0  0  0  0
   -0.2538    0.1945    2.8542 C   0  0  0  0  0  0  0  0  0  0  0  0
    0.7080   -0.8337    3.4862 C   0  0  2  0  0  0  0  0  0  0  0  0
    1.1626   -0.5699    4.9178 C   0  0  0  0  0  0  0  0  0  0  0  0
    2.5669   -0.3344    4.3857 C   0  0  2  0  0  0  0  0  0  0  0  0
    2.9506    1.0594    4.0423 N   0  0  2  0  0  0  0  0  0  0  0  0
    2.6809    2.1117    5.0452 C   0  0  0  0  0  0  0  0  0  0  0  0
    2.1984   -1.0122    3.0469 C   0  0  2  0  0  0  0  0  0  0  0  0
    2.6496   -2.5097    2.8856 C   0  0  2  0  0  0  0  0  0  0  0  0
    3.8568   -2.8237    3.5714 O   0  0  0  0  0  0  0  0  0  0  0  0
    4.2901   -4.0846    3.9658 C   0  0  0  0  0  0  0  0  0  0  0  0
    5.2221   -4.1721    4.7372 O   0  0  0  0  0  0  0  0  0  0  0  0
   -0.2211  -10.8563    6.7834 H   0  0  0  0  0  0  0  0  0  0  0  0
   -0.9898   -9.4177    7.4317 H   0  0  0  0  0  0  0  0  0  0  0  0
    0.6019   -9.9139    8.0228 H   0  0  0  0  0  0  0  0  0  0  0  0
    1.5546   -9.5481    5.7408 H   0  0  0  0  0  0  0  0  0  0  0  0
   -0.0030   -9.0257    5.1545 H   0  0  0  0  0  0  0  0  0  0  0  0
    0.0304   -7.1089    6.7793 H   0  0  0  0  0  0  0  0  0  0  0  0
    1.6085   -7.5903    7.3380 H   0  0  0  0  0  0  0  0  0  0  0  0
    0.9534   -6.8003    4.4469 H   0  0  0  0  0  0  0  0  0  0  0  0
    1.6234   -5.6959    5.6309 H   0  0  0  0  0  0  0  0  0  0  0  0
    3.3498   -8.0816    5.4846 H   0  0  0  0  0  0  0  0  0  0  0  0
    4.8102   -7.0179    4.0031 H   0  0  0  0  0  0  0  0  0  0  0  0
    1.8159   -5.0099    0.8051 H   0  0  0  0  0  0  0  0  0  0  0  0
    3.2589   -0.9728   -0.8249 H   0  0  0  0  0  0  0  0  0  0  0  0
    5.3131   -2.7218   -0.7866 H   0  0  0  0  0  0  0  0  0  0  0  0
    5.5936   -0.9981   -0.9979 H   0  0  0  0  0  0  0  0  0  0  0  0
    6.0270   -2.6233    1.5167 H   0  0  0  0  0  0  0  0  0  0  0  0
    7.0357   -1.3155    0.8700 H   0  0  0  0  0  0  0  0  0  0  0  0
    4.1231    0.5785    0.6116 H   0  0  0  0  0  0  0  0  0  0  0  0
    1.8061   -0.0397    1.1636 H   0  0  0  0  0  0  0  0  0  0  0  0
    3.3711    1.9352    2.2044 H   0  0  0  0  0  0  0  0  0  0  0  0
    1.4151    3.1386    2.7327 H   0  0  0  0  0  0  0  0  0  0  0  0
    1.0177    2.1314    1.3679 H   0  0  0  0  0  0  0  0  0  0  0  0
   -1.8205    2.1192    3.7458 H   0  0  0  0  0  0  0  0  0  0  0  0
   -1.4245    2.5058    2.0761 H   0  0  0  0  0  0  0  0  0  0  0  0
   -0.7400    3.4618    3.3879 H   0  0  0  0  0  0  0  0  0  0  0  0
   -1.2422    0.0211    3.2804 H   0  0  0  0  0  0  0  0  0  0  0  0
   -0.3700    0.0637    1.7771 H   0  0  0  0  0  0  0  0  0  0  0  0
    0.2385   -1.8073    3.4690 H   0  0  0  0  0  0  0  0  0  0  0  0
    0.6615    0.2634    5.4100 H   0  0  0  0  0  0  0  0  0  0  0  0
    1.0994   -1.4844    5.5177 H   0  0  0  0  0  0  0  0  0  0  0  0
    3.3180   -0.8406    4.9831 H   0  0  0  0  0  0  0  0  0  0  0  0
    1.6260    2.3142    5.2043 H   0  0  0  0  0  0  0  0  0  0  0  0
    3.1559    3.0415    4.7490 H   0  0  0  0  0  0  0  0  0  0  0  0
    3.1052    1.8237    6.0020 H   0  0  0  0  0  0  0  0  0  0  0  0
    1.8846   -3.0492    3.4367 H   0  0  0  0  0  0  0  0  0  0  0  0
    3.9437    0.9815    3.9912 H   0  0  0  0  0  0  0  0  0  0  0  0
  1  2  1  0
  1 35  1  0
  1 36  1  0
  1 37  1  0
  2  3  1  0
  2 38  1  0
  2 39  1  0
  3  4  1  0
  3 40  1  0
  3 41  1  0
  4  5  1  0
  4 42  1  0
  4 43  1  0
  5  6  2  3
  5 44  1  0
  7  6  1  1
  6 45  1  0
  7 10  1  0
  7 33  1  0
  7  8  1  0
  8  9  1  0
  9 10  1  0
  9 11  1  0
  9 46  1  6
 11 31  1  0
 11 12  2  0
 12 13  1  0
 13 18  1  0
 13 14  1  0
 13 47  1  6
 14 15  1  0
 14 48  1  0
 14 49  1  0
 15 16  1  0
 15 50  1  0
 15 51  1  0
 16 17  2  0
 16 18  1  0
 18 19  1  0
 18 52  1  6
 19 30  1  0
 19 20  1  0
 19 53  1  6
 20 28  1  0
 20 21  1  0
 20 54  1  6
 21 22  1  0
 21 55  1  0
 21 56  1  0
 22 23  1  0
 22 24  1  0
 23 57  1  0
 23 58  1  0
 23 59  1  0
 24 25  1  0
 24 60  1  0
 24 61  1  0
 25 30  1  0
 25 26  1  0
 25 62  1  1
 26 27  1  0
 26 63  1  0
 26 64  1  0
 27 28  1  0
 27 30  1  0
 27 65  1  1
 28 29  1  0
 28 70  1  6
 29 66  1  0
 29 67  1  0
 29 68  1  0
 30 31  1  6
 31 32  1  0
 31 69  1  1
 32 33  1  0
 33 34  2  0
M  CHG  1  28   1
M  END
>  <i_m_ct_stereo_status>  (240) 
1

>  <s_m_source_file>  (240) 
/var/tmp/pbs.5076255.sched01/tmp25xsusm8/82mdre8bl4.sdf

>  <i_m_source_file_index>  (240) 
34

>  <i_lp_mmshare_version>  (240) 
48012

>  <i_f3d_flags>  (240) 
0

>  <s_epik_input>  (240) 
W0NIM11bQ0gyXVtDSDJdW0NIMl0vW0NIXT1bQ0hdL1tDQF0oUzEpKEMoPU8pT1tDQEhdMjMpT1tDQEhdMUMyPU5bQ0BIXShbQ0gyXVtDSDJdQzQ9TylbQ0BIXTRbQ0BASF0oW0NAXTM1NilbQ0BIXTdbQ0gyXU4oW0NIM10pW0NIMl1bQ0BASF01W0NIMl1bQ0BASF02TjdbQ0gzXQ==

>  <s_epik_cmdline>  (240) 
J2VwaWtfcHl0aG9uJywgJy1waHQnLCAnMi4wJywgJy1waCcsICc3LjAnLCAnLXRuJywgJzgnLCAnLW1hJywgJzIwMCcsICctaW1hZScsICc8aW5maWxlLm1hZT4nLCAnLW9tYWUnLCAnPG91dGZpbGUubWFlPic=

>  <r_epik_Ionization_Penalty>  (240) 
0.0693224

>  <r_epik_Ionization_Penalty_Charging>  (240) 
0.0664015

>  <r_epik_Ionization_Penalty_Neutral>  (240) 
0.00292091

>  <r_epik_State_Penalty>  (240) 
0.752887

>  <r_epik_Charging_Adjusted_Penalty>  (240) 
0.819288

>  <i_epik_Tot_Q>  (240) 
1

>  <i_epik_Tot_abs_Q>  (240) 
1

>  <s_epik_Chemistry_Notes>  (240) 
This compound has an ester and may undergo hydrolysis at high or low pH. This compound has an imine and may undergo hydrolysis. This compound contains an acetal/aminal-like group ( X-CH(R)-Y where X, Y are N, S, or O) that may be acid/base labile, releasing an aldehyde.

>  <s_lp_Force_Field>  (240) 
OPLS3e

>  <r_lp_Energy>  (240) 
75.7188

>  <b_lp_Chiralities_Consistent>  (240) 
1

>  <s_lp_Variant>  (240) 
82:0-2

>  <s_i_glide_gridfile>  (240) 
pfpi4k_grid

>  <i_i_glide_lignum>  (240) 
34

>  <i_i_glide_rotatable_bonds>  (240) 
4

>  <r_i_docking_score>  (240) 
-2.79333

>  <r_i_glide_ligand_efficiency>  (240) 
-0.0821569

>  <r_i_glide_ligand_efficiency_sa>  (240) 
-0.266156

>  <r_i_glide_ligand_efficiency_ln>  (240) 
-0.617126

>  <r_i_glide_gscore>  (240) 
-2.79333

>  <r_i_glide_lipo>  (240) 
-0.22497

>  <r_i_glide_hbond>  (240) 
-0.0594183

>  <r_i_glide_metal>  (240) 
-0

>  <r_i_glide_rewards>  (240) 
-0.782149

>  <r_i_glide_evdw>  (240) 
-26.7191

>  <r_i_glide_ecoul>  (240) 
-4.22658

>  <r_i_glide_erotb>  (240) 
0.257451

>  <r_i_glide_esite>  (240) 
-0.0143071

>  <r_i_glide_emodel>  (240) 
-40.8057

>  <r_i_glide_energy>  (240) 
-30.9457

>  <r_i_glide_einternal>  (240) 
3.08749

>  <r_i_glide_intrahb_reward>  (240) 
-0.5

>  <i_i_glide_confnum>  (240) 
4

>  <i_i_glide_posenum>  (240) 
13

>  <r_i_glide_eff_state_penalty>  (240) 
0

>  <ligand_id>  (240) 
82

>  <original_smiles>  (240) 
CCCCC=CC12OC(S1)C1=NC3CCC(=O)C3C3C4CN(C)CC5CC(N4C)C53C1OC2=O

>  <smiles>  (240) 
[H]C(=C([H])C([H])([H])C([H])([H])C([H])([H])C([H])([H])[H])C12OC([H])(S1)C1=NC3([H])C([H])([H])C([H])([H])C(=O)C3([H])C3([H])C4(C1([H])OC2=O)C1([H])C([H])([H])N(C([H])([H])[H])C([H])([H])C3([H])[N+]([H])(C([H])([H])[H])C4([H])C1([H])[H]

$$$$
82:2:0
     RDKit          3D

 69 75  0  0  1  0  0  0  0  0999 V2000
   -1.4555   -8.9465    2.3485 C   0  0  0  0  0  0  0  0  0  0  0  0
   -0.1751   -8.1092    2.4768 C   0  0  0  0  0  0  0  0  0  0  0  0
    0.2684   -7.9464    3.9404 C   0  0  0  0  0  0  0  0  0  0  0  0
    1.4731   -7.0127    4.1419 C   0  0  0  0  0  0  0  0  0  0  0  0
    2.7725   -7.5696    3.5791 C   0  0  0  0  0  0  0  0  0  0  0  0
    3.6602   -6.9258    2.8010 C   0  0  0  0  0  0  0  0  0  0  0  0
    3.5775   -5.5055    2.2585 C   0  0  2  0  0  0  0  0  0  0  0  0
    2.2632   -5.1777    1.7092 O   0  0  0  0  0  0  0  0  0  0  0  0
    2.7531   -4.4267    0.5580 C   0  0  2  0  0  0  0  0  0  0  0  0
    4.2184   -5.3966    0.6125 S   0  0  0  0  0  0  0  0  0  0  0  0
    3.0137   -2.9675    0.8593 C   0  0  0  0  0  0  0  0  0  0  0  0
    3.5223   -2.2782   -0.0788 N   0  0  0  0  0  0  0  0  0  0  0  0
    4.2375   -1.0061   -0.0368 C   0  0  2  0  0  0  0  0  0  0  0  0
    5.7214   -1.3024   -0.3359 C   0  0  0  0  0  0  0  0  0  0  0  0
    6.3832   -1.6034    1.0172 C   0  0  0  0  0  0  0  0  0  0  0  0
    5.5009   -0.8367    1.9874 C   0  0  0  0  0  0  0  0  0  0  0  0
    5.7713   -0.6962    3.1774 O   0  0  0  0  0  0  0  0  0  0  0  0
    4.2922   -0.2414    1.2904 C   0  0  2  0  0  0  0  0  0  0  0  0
    2.9438   -0.0450    2.0007 C   0  0  2  0  0  0  0  0  0  0  0  0
    2.8908    1.1237    3.0297 C   0  0  1  0  0  0  0  0  0  0  0  0
    1.6707    2.0384    2.7604 C   0  0  0  0  0  0  0  0  0  0  0  0
    0.3726    1.4645    3.1939 N   0  0  0  0  0  0  0  0  0  0  0  0
   -0.6944    2.4578    3.0817 C   0  0  0  0  0  0  0  0  0  0  0  0
    0.0113    0.2161    2.5000 C   0  0  0  0  0  0  0  0  0  0  0  0
    0.8192   -1.0248    2.9551 C   0  0  2  0  0  0  0  0  0  0  0  0
    1.0050   -1.2555    4.4479 C   0  0  0  0  0  0  0  0  0  0  0  0
    2.4498   -0.8093    4.2555 C   0  0  2  0  0  0  0  0  0  0  0  0
    2.7740    0.5964    4.3975 N   0  0  0  0  0  0  0  0  0  0  0  0
    3.8502    0.9065    5.3124 C   0  0  0  0  0  0  0  0  0  0  0  0
    2.3481   -1.1996    2.7577 C   0  0  2  0  0  0  0  0  0  0  0  0
    2.7837   -2.6414    2.3309 C   0  0  2  0  0  0  0  0  0  0  0  0
    3.8716   -3.1592    3.0768 O   0  0  0  0  0  0  0  0  0  0  0  0
    4.2063   -4.4909    3.2380 C   0  0  0  0  0  0  0  0  0  0  0  0
    5.0283   -4.7956    4.0933 O   0  0  0  0  0  0  0  0  0  0  0  0
   -1.7493   -9.0568    1.3046 H   0  0  0  0  0  0  0  0  0  0  0  0
   -2.2904   -8.4931    2.8830 H   0  0  0  0  0  0  0  0  0  0  0  0
   -1.3119   -9.9484    2.7539 H   0  0  0  0  0  0  0  0  0  0  0  0
    0.6203   -8.5827    1.9003 H   0  0  0  0  0  0  0  0  0  0  0  0
   -0.3399   -7.1302    2.0285 H   0  0  0  0  0  0  0  0  0  0  0  0
   -0.5644   -7.5456    4.5142 H   0  0  0  0  0  0  0  0  0  0  0  0
    0.4833   -8.9283    4.3710 H   0  0  0  0  0  0  0  0  0  0  0  0
    1.2537   -6.0270    3.7312 H   0  0  0  0  0  0  0  0  0  0  0  0
    1.6295   -6.8622    5.2143 H   0  0  0  0  0  0  0  0  0  0  0  0
    2.9984   -8.5888    3.8780 H   0  0  0  0  0  0  0  0  0  0  0  0
    4.5523   -7.4726    2.5150 H   0  0  0  0  0  0  0  0  0  0  0  0
    2.1835   -4.5772   -0.3541 H   0  0  0  0  0  0  0  0  0  0  0  0
    3.8410   -0.3535   -0.8122 H   0  0  0  0  0  0  0  0  0  0  0  0
    5.8394   -2.1004   -1.0748 H   0  0  0  0  0  0  0  0  0  0  0  0
    6.1661   -0.3938   -0.7392 H   0  0  0  0  0  0  0  0  0  0  0  0
    6.3374   -2.6718    1.2292 H   0  0  0  0  0  0  0  0  0  0  0  0
    7.4190   -1.2744    1.0469 H   0  0  0  0  0  0  0  0  0  0  0  0
    4.6244    0.7597    1.0228 H   0  0  0  0  0  0  0  0  0  0  0  0
    2.2834    0.2215    1.1740 H   0  0  0  0  0  0  0  0  0  0  0  0
    3.7860    1.7301    2.9547 H   0  0  0  0  0  0  0  0  0  0  0  0
    1.8403    2.9536    3.3373 H   0  0  0  0  0  0  0  0  0  0  0  0
    1.6439    2.3577    1.7085 H   0  0  0  0  0  0  0  0  0  0  0  0
   -1.6262    2.0599    3.4942 H   0  0  0  0  0  0  0  0  0  0  0  0
   -0.8888    2.7688    2.0527 H   0  0  0  0  0  0  0  0  0  0  0  0
   -0.4363    3.3483    3.6632 H   0  0  0  0  0  0  0  0  0  0  0  0
   -1.0375    0.0320    2.7218 H   0  0  0  0  0  0  0  0  0  0  0  0
    0.0494    0.3376    1.4135 H   0  0  0  0  0  0  0  0  0  0  0  0
    0.4464   -1.9409    2.5279 H   0  0  0  0  0  0  0  0  0  0  0  0
    0.4168   -0.5782    5.0664 H   0  0  0  0  0  0  0  0  0  0  0  0
    0.9067   -2.3047    4.7376 H   0  0  0  0  0  0  0  0  0  0  0  0
    3.1366   -1.4661    4.7938 H   0  0  0  0  0  0  0  0  0  0  0  0
    3.6258    0.5125    6.3042 H   0  0  0  0  0  0  0  0  0  0  0  0
    3.9592    1.9848    5.4109 H   0  0  0  0  0  0  0  0  0  0  0  0
    4.7968    0.4946    4.9875 H   0  0  0  0  0  0  0  0  0  0  0  0
    1.9487   -3.2568    2.6463 H   0  0  0  0  0  0  0  0  0  0  0  0
  1  2  1  0
  1 35  1  0
  1 36  1  0
  1 37  1  0
  2  3  1  0
  2 38  1  0
  2 39  1  0
  3  4  1  0
  3 40  1  0
  3 41  1  0
  4  5  1  0
  4 42  1  0
  4 43  1  0
  5  6  2  3
  5 44  1  0
  7  6  1  1
  6 45  1  0
  7 10  1  0
  7 33  1  0
  7  8  1  0
  8  9  1  0
  9 10  1  0
  9 11  1  0
  9 46  1  6
 11 31  1  0
 11 12  2  0
 12 13  1  0
 13 18  1  0
 13 14  1  0
 13 47  1  6
 14 15  1  0
 14 48  1  0
 14 49  1  0
 15 16  1  0
 15 50  1  0
 15 51  1  0
 16 17  2  0
 16 18  1  0
 18 19  1  0
 18 52  1  6
 19 30  1  0
 19 20  1  0
 19 53  1  6
 20 28  1  0
 20 21  1  0
 20 54  1  1
 21 22  1  0
 21 55  1  0
 21 56  1  0
 22 23  1  0
 22 24  1  0
 23 57  1  0
 23 58  1  0
 23 59  1  0
 24 25  1  0
 24 60  1  0
 24 61  1  0
 25 30  1  0
 25 26  1  0
 25 62  1  6
 26 27  1  0
 26 63  1  0
 26 64  1  0
 27 28  1  0
 27 30  1  0
 27 65  1  1
 28 29  1  0
 29 66  1  0
 29 67  1  0
 29 68  1  0
 30 31  1  1
 31 32  1  0
 31 69  1  1
 32 33  1  0
 33 34  2  0
M  END
>  <i_m_ct_stereo_status>  (241) 
1

>  <s_m_source_file>  (241) 
/var/tmp/pbs.5076255.sched01/tmp25xsusm8/82mdre8bl4.sdf

>  <i_m_source_file_index>  (241) 
35

>  <i_lp_mmshare_version>  (241) 
48012

>  <i_f3d_flags>  (241) 
0

>  <s_epik_input>  (241) 
W0NIM11bQ0gyXVtDSDJdW0NIMl0vW0NIXT1bQ0hdL1tDQF0oUzEpKEMoPU8pT1tDQEhdMjMpT1tDQEhdMUMyPU5bQ0BIXShbQ0gyXVtDSDJdQzQ9TylbQ0BIXTRbQ0BASF0oW0NAXTM1NilbQ0BIXTdbQ0gyXU4oW0NIM10pW0NIMl1bQ0BASF01W0NIMl1bQ0BASF02TjdbQ0gzXQ==

>  <s_epik_cmdline>  (241) 
J2VwaWtfcHl0aG9uJywgJy1waHQnLCAnMi4wJywgJy1waCcsICc3LjAnLCAnLXRuJywgJzgnLCAnLW1hJywgJzIwMCcsICctaW1hZScsICc8aW5maWxlLm1hZT4nLCAnLW9tYWUnLCAnPG91dGZpbGUubWFlPic=

>  <r_lp_tautomer_probability>  (241) 
0.999984

>  <r_epik_Ionization_Penalty>  (241) 
3.12224

>  <r_epik_Ionization_Penalty_Charging>  (241) 
0

>  <r_epik_Ionization_Penalty_Neutral>  (241) 
3.12224

>  <r_epik_State_Penalty>  (241) 
2.10083

>  <r_epik_Charging_Adjusted_Penalty>  (241) 
2.10083

>  <i_epik_Tot_Q>  (241) 
0

>  <i_epik_Tot_abs_Q>  (241) 
0

>  <s_epik_Chemistry_Notes>  (241) 
This compound has an ester and may undergo hydrolysis at high or low pH. This compound has an imine and may undergo hydrolysis. This compound contains an acetal/aminal-like group ( X-CH(R)-Y where X, Y are N, S, or O) that may be acid/base labile, releasing an aldehyde.

>  <s_lp_Force_Field>  (241) 
OPLS3e

>  <r_lp_Energy>  (241) 
81.4243

>  <b_lp_Chiralities_Consistent>  (241) 
1

>  <s_lp_Variant>  (241) 
82:0-3

>  <s_i_glide_gridfile>  (241) 
pfpi4k_grid

>  <i_i_glide_lignum>  (241) 
35

>  <i_i_glide_rotatable_bonds>  (241) 
4

>  <r_i_docking_score>  (241) 
-2.31417

>  <r_i_glide_ligand_efficiency>  (241) 
-0.0680638

>  <r_i_glide_ligand_efficiency_sa>  (241) 
-0.2205

>  <r_i_glide_ligand_efficiency_ln>  (241) 
-0.511265

>  <r_i_glide_gscore>  (241) 
-2.31417

>  <r_i_glide_lipo>  (241) 
-0.466228

>  <r_i_glide_hbond>  (241) 
0

>  <r_i_glide_metal>  (241) 
-0

>  <r_i_glide_rewards>  (241) 
-0.243441

>  <r_i_glide_evdw>  (241) 
-28.8558

>  <r_i_glide_ecoul>  (241) 
-2.66684

>  <r_i_glide_erotb>  (241) 
0.25843

>  <r_i_glide_esite>  (241) 
-0.0201134

>  <r_i_glide_emodel>  (241) 
-34.2444

>  <r_i_glide_energy>  (241) 
-31.5227

>  <r_i_glide_einternal>  (241) 
1.32573

>  <r_i_glide_intrahb_reward>  (241) 
-0

>  <i_i_glide_confnum>  (241) 
2

>  <i_i_glide_posenum>  (241) 
2

>  <r_i_glide_eff_state_penalty>  (241) 
0

>  <ligand_id>  (241) 
82

>  <original_smiles>  (241) 
CCCCC=CC12OC(S1)C1=NC3CCC(=O)C3C3C4CN(C)CC5CC(N4C)C53C1OC2=O

>  <smiles>  (241) 
[H]C(=C([H])C([H])([H])C([H])([H])C([H])([H])C([H])([H])[H])C12OC([H])(S1)C1=NC3([H])C([H])([H])C([H])([H])C(=O)C3([H])C3([H])C4([H])N(C([H])([H])[H])C5([H])C([H])([H])C([H])(C([H])([H])N(C([H])([H])[H])C4([H])[H])C53C1([H])OC2=O

$$$$
82:2:1
     RDKit          3D

 69 75  0  0  1  0  0  0  0  0999 V2000
   -1.4113   -9.0469    2.2769 C   0  0  0  0  0  0  0  0  0  0  0  0
    0.0095   -9.0180    2.8540 C   0  0  0  0  0  0  0  0  0  0  0  0
    0.5776   -7.5917    2.9819 C   0  0  0  0  0  0  0  0  0  0  0  0
   -0.2446   -6.6597    3.8918 C   0  0  0  0  0  0  0  0  0  0  0  0
   -0.3260   -7.1638    5.3266 C   0  0  0  0  0  0  0  0  0  0  0  0
    0.0705   -6.5519    6.4615 C   0  0  0  0  0  0  0  0  0  0  0  0
    0.7459   -5.1917    6.6246 C   0  0  2  0  0  0  0  0  0  0  0  0
    1.5292   -4.7967    5.4665 O   0  0  0  0  0  0  0  0  0  0  0  0
    2.6408   -4.2199    6.1934 C   0  0  2  0  0  0  0  0  0  0  0  0
    2.2645   -5.2963    7.5562 S   0  0  0  0  0  0  0  0  0  0  0  0
    2.4357   -2.7561    6.5238 C   0  0  0  0  0  0  0  0  0  0  0  0
    3.3400   -2.1941    7.2274 N   0  0  0  0  0  0  0  0  0  0  0  0
    3.2601   -1.0095    8.0789 C   0  0  2  0  0  0  0  0  0  0  0  0
    3.2860   -1.4754    9.5525 C   0  0  0  0  0  0  0  0  0  0  0  0
    1.8152   -1.6949    9.9603 C   0  0  0  0  0  0  0  0  0  0  0  0
    1.0433   -0.7739    9.0265 C   0  0  0  0  0  0  0  0  0  0  0  0
   -0.1815   -0.6101    9.0829 O   0  0  0  0  0  0  0  0  0  0  0  0
    1.9894   -0.1376    8.0098 C   0  0  2  0  0  0  0  0  0  0  0  0
    1.5558    0.2445    6.5821 C   0  0  2  0  0  0  0  0  0  0  0  0
    0.6582    1.5049    6.4870 C   0  0  1  0  0  0  0  0  0  0  0  0
    1.2062    2.4869    5.4243 C   0  0  0  0  0  0  0  0  0  0  0  0
    0.9812    2.0777    4.0208 N   0  0  0  0  0  0  0  0  0  0  0  0
    1.3377    3.1450    3.0891 C   0  0  0  0  0  0  0  0  0  0  0  0
    1.5919    0.7921    3.6279 C   0  0  0  0  0  0  0  0  0  0  0  0
    0.9094   -0.4630    4.2019 C   0  0  2  0  0  0  0  0  0  0  0  0
   -0.6136   -0.5463    4.1564 C   0  0  0  0  0  0  0  0  0  0  0  0
   -0.6237   -0.2545    5.6507 C   0  0  2  0  0  0  0  0  0  0  0  0
   -0.7049    1.1158    6.1065 N   0  0  0  0  0  0  0  0  0  0  0  0
   -1.7594    1.4429    7.0408 C   0  0  0  0  0  0  0  0  0  0  0  0
    0.8324   -0.7837    5.7365 C   0  0  2  0  0  0  0  0  0  0  0  0
    1.0448   -2.2768    6.0951 C   0  0  2  0  0  0  0  0  0  0  0  0
    0.0638   -2.7972    6.9886 O   0  0  0  0  0  0  0  0  0  0  0  0
   -0.2550   -4.1369    7.1659 C   0  0  0  0  0  0  0  0  0  0  0  0
   -1.2710   -4.4228    7.7952 O   0  0  0  0  0  0  0  0  0  0  0  0
   -1.7710  -10.0705    2.1927 H   0  0  0  0  0  0  0  0  0  0  0  0
   -1.4265   -8.6033    1.2823 H   0  0  0  0  0  0  0  0  0  0  0  0
   -2.1269   -8.5100    2.8995 H   0  0  0  0  0  0  0  0  0  0  0  0
    0.0254   -9.5257    3.8185 H   0  0  0  0  0  0  0  0  0  0  0  0
    0.6656   -9.6002    2.2043 H   0  0  0  0  0  0  0  0  0  0  0  0
    1.6083   -7.6459    3.3376 H   0  0  0  0  0  0  0  0  0  0  0  0
    0.6346   -7.1454    1.9906 H   0  0  0  0  0  0  0  0  0  0  0  0
    0.1700   -5.6603    3.8111 H   0  0  0  0  0  0  0  0  0  0  0  0
   -1.2655   -6.5646    3.5273 H   0  0  0  0  0  0  0  0  0  0  0  0
   -0.7813   -8.1375    5.4382 H   0  0  0  0  0  0  0  0  0  0  0  0
   -0.0918   -7.0821    7.3891 H   0  0  0  0  0  0  0  0  0  0  0  0
    3.6120   -4.4206    5.7433 H   0  0  0  0  0  0  0  0  0  0  0  0
    4.1360   -0.3950    7.8759 H   0  0  0  0  0  0  0  0  0  0  0  0
    3.9122   -2.3562    9.6931 H   0  0  0  0  0  0  0  0  0  0  0  0
    3.7171   -0.6796   10.1685 H   0  0  0  0  0  0  0  0  0  0  0  0
    1.5319   -2.7288    9.7699 H   0  0  0  0  0  0  0  0  0  0  0  0
    1.6497   -1.4713   11.0078 H   0  0  0  0  0  0  0  0  0  0  0  0
    2.2699    0.8022    8.4882 H   0  0  0  0  0  0  0  0  0  0  0  0
    2.5025    0.4794    6.0986 H   0  0  0  0  0  0  0  0  0  0  0  0
    0.6466    2.0203    7.4465 H   0  0  0  0  0  0  0  0  0  0  0  0
    0.6833    3.4331    5.5885 H   0  0  0  0  0  0  0  0  0  0  0  0
    2.2617    2.6955    5.6028 H   0  0  0  0  0  0  0  0  0  0  0  0
    1.0553    2.8626    2.0750 H   0  0  0  0  0  0  0  0  0  0  0  0
    2.4042    3.3632    3.1077 H   0  0  0  0  0  0  0  0  0  0  0  0
    0.7814    4.0577    3.3309 H   0  0  0  0  0  0  0  0  0  0  0  0
    1.5410    0.7152    2.5431 H   0  0  0  0  0  0  0  0  0  0  0  0
    2.6560    0.8011    3.8502 H   0  0  0  0  0  0  0  0  0  0  0  0
    1.3005   -1.3497    3.6864 H   0  0  0  0  0  0  0  0  0  0  0  0
   -1.0806    0.2333    3.5452 H   0  0  0  0  0  0  0  0  0  0  0  0
   -0.9683   -1.5464    3.9328 H   0  0  0  0  0  0  0  0  0  0  0  0
   -1.3342   -0.9106    6.1666 H   0  0  0  0  0  0  0  0  0  0  0  0
   -2.7308    1.1747    6.6269 H   0  0  0  0  0  0  0  0  0  0  0  0
   -1.7827    2.5157    7.2328 H   0  0  0  0  0  0  0  0  0  0  0  0
   -1.6354    0.9431    7.9927 H   0  0  0  0  0  0  0  0  0  0  0  0
    0.8240   -2.7766    5.1525 H   0  0  0  0  0  0  0  0  0  0  0  0
  1  2  1  0
  1 35  1  0
  1 36  1  0
  1 37  1  0
  2  3  1  0
  2 38  1  0
  2 39  1  0
  3  4  1  0
  3 40  1  0
  3 41  1  0
  4  5  1  0
  4 42  1  0
  4 43  1  0
  5  6  2  3
  5 44  1  0
  7  6  1  6
  6 45  1  0
  7 10  1  0
  7 33  1  0
  7  8  1  0
  8  9  1  0
  9 10  1  0
  9 11  1  0
  9 46  1  6
 11 31  1  0
 11 12  2  0
 12 13  1  0
 13 18  1  0
 13 14  1  0
 13 47  1  1
 14 15  1  0
 14 48  1  0
 14 49  1  0
 15 16  1  0
 15 50  1  0
 15 51  1  0
 16 17  2  0
 16 18  1  0
 18 19  1  0
 18 52  1  1
 19 30  1  0
 19 20  1  0
 19 53  1  6
 20 28  1  0
 20 21  1  0
 20 54  1  1
 21 22  1  0
 21 55  1  0
 21 56  1  0
 22 23  1  0
 22 24  1  0
 23 57  1  0
 23 58  1  0
 23 59  1  0
 24 25  1  0
 24 60  1  0
 24 61  1  0
 25 30  1  0
 25 26  1  0
 25 62  1  6
 26 27  1  0
 26 63  1  0
 26 64  1  0
 27 28  1  0
 27 30  1  0
 27 65  1  1
 28 29  1  0
 29 66  1  0
 29 67  1  0
 29 68  1  0
 30 31  1  6
 31 32  1  0
 31 69  1  6
 32 33  1  0
 33 34  2  0
M  END
>  <i_m_ct_stereo_status>  (242) 
1

>  <s_m_source_file>  (242) 
/var/tmp/pbs.5076255.sched01/tmp25xsusm8/82mdre8bl4.sdf

>  <i_m_source_file_index>  (242) 
35

>  <i_lp_mmshare_version>  (242) 
48012

>  <i_f3d_flags>  (242) 
0

>  <s_epik_input>  (242) 
W0NIM11bQ0gyXVtDSDJdW0NIMl0vW0NIXT1bQ0hdL1tDQF0oUzEpKEMoPU8pT1tDQEhdMjMpT1tDQEhdMUMyPU5bQ0BIXShbQ0gyXVtDSDJdQzQ9TylbQ0BIXTRbQ0BASF0oW0NAXTM1NilbQ0BIXTdbQ0gyXU4oW0NIM10pW0NIMl1bQ0BASF01W0NIMl1bQ0BASF02TjdbQ0gzXQ==

>  <s_epik_cmdline>  (242) 
J2VwaWtfcHl0aG9uJywgJy1waHQnLCAnMi4wJywgJy1waCcsICc3LjAnLCAnLXRuJywgJzgnLCAnLW1hJywgJzIwMCcsICctaW1hZScsICc8aW5maWxlLm1hZT4nLCAnLW9tYWUnLCAnPG91dGZpbGUubWFlPic=

>  <r_lp_tautomer_probability>  (242) 
0.999984

>  <r_epik_Ionization_Penalty>  (242) 
3.12224

>  <r_epik_Ionization_Penalty_Charging>  (242) 
0

>  <r_epik_Ionization_Penalty_Neutral>  (242) 
3.12224

>  <r_epik_State_Penalty>  (242) 
2.10083

>  <r_epik_Charging_Adjusted_Penalty>  (242) 
2.10083

>  <i_epik_Tot_Q>  (242) 
0

>  <i_epik_Tot_abs_Q>  (242) 
0

>  <s_epik_Chemistry_Notes>  (242) 
This compound has an ester and may undergo hydrolysis at high or low pH. This compound has an imine and may undergo hydrolysis. This compound contains an acetal/aminal-like group ( X-CH(R)-Y where X, Y are N, S, or O) that may be acid/base labile, releasing an aldehyde.

>  <s_lp_Force_Field>  (242) 
OPLS3e

>  <r_lp_Energy>  (242) 
81.4243

>  <b_lp_Chiralities_Consistent>  (242) 
1

>  <s_lp_Variant>  (242) 
82:0-3

>  <s_i_glide_gridfile>  (242) 
pfpi4k_grid

>  <i_i_glide_lignum>  (242) 
35

>  <i_i_glide_rotatable_bonds>  (242) 
4

>  <r_i_docking_score>  (242) 
-1.61296

>  <r_i_glide_ligand_efficiency>  (242) 
-0.0474399

>  <r_i_glide_ligand_efficiency_sa>  (242) 
-0.153687

>  <r_i_glide_ligand_efficiency_ln>  (242) 
-0.356347

>  <r_i_glide_gscore>  (242) 
-1.61296

>  <r_i_glide_lipo>  (242) 
-0.201292

>  <r_i_glide_hbond>  (242) 
-0.0583078

>  <r_i_glide_metal>  (242) 
-0

>  <r_i_glide_rewards>  (242) 
-0.0979105

>  <r_i_glide_evdw>  (242) 
-20.9021

>  <r_i_glide_ecoul>  (242) 
-2.94838

>  <r_i_glide_erotb>  (242) 
0.25843

>  <r_i_glide_esite>  (242) 
-0.026514

>  <r_i_glide_emodel>  (242) 
-25.335

>  <r_i_glide_energy>  (242) 
-23.8505

>  <r_i_glide_einternal>  (242) 
1.78502

>  <r_i_glide_intrahb_reward>  (242) 
-0

>  <i_i_glide_confnum>  (242) 
3

>  <i_i_glide_posenum>  (242) 
21

>  <r_i_glide_eff_state_penalty>  (242) 
0

>  <ligand_id>  (242) 
82

>  <original_smiles>  (242) 
CCCCC=CC12OC(S1)C1=NC3CCC(=O)C3C3C4CN(C)CC5CC(N4C)C53C1OC2=O

>  <smiles>  (242) 
[H]C(=C([H])C([H])([H])C([H])([H])C([H])([H])C([H])([H])[H])C12OC([H])(S1)C1=NC3([H])C([H])([H])C([H])([H])C(=O)C3([H])C3([H])C4([H])N(C([H])([H])[H])C5([H])C([H])([H])C([H])(C([H])([H])N(C([H])([H])[H])C4([H])[H])C53C1([H])OC2=O

$$$$
82:2:2
     RDKit          3D

 69 75  0  0  1  0  0  0  0  0999 V2000
   -1.5092   -9.1162    2.2877 C   0  0  0  0  0  0  0  0  0  0  0  0
   -0.0816   -8.9403    2.8268 C   0  0  0  0  0  0  0  0  0  0  0  0
    0.3526   -7.4690    2.8794 C   0  0  0  0  0  0  0  0  0  0  0  0
   -0.5369   -6.5974    3.7754 C   0  0  0  0  0  0  0  0  0  0  0  0
   -0.4757   -6.9840    5.2420 C   0  0  0  0  0  0  0  0  0  0  0  0
   -0.0076   -6.2866    6.3018 C   0  0  0  0  0  0  0  0  0  0  0  0
    0.6085   -4.8973    6.3581 C   0  0  2  0  0  0  0  0  0  0  0  0
    0.9746   -4.3838    5.0343 O   0  0  0  0  0  0  0  0  0  0  0  0
    2.2462   -3.7722    5.4285 C   0  0  2  0  0  0  0  0  0  0  0  0
    2.3464   -4.9359    6.7769 S   0  0  0  0  0  0  0  0  0  0  0  0
    2.0788   -2.3524    5.8827 C   0  0  0  0  0  0  0  0  0  0  0  0
    3.1281   -1.7717    6.3024 N   0  0  0  0  0  0  0  0  0  0  0  0
    3.2644   -0.6268    7.2067 C   0  0  2  0  0  0  0  0  0  0  0  0
    3.7575   -1.1547    8.5696 C   0  0  0  0  0  0  0  0  0  0  0  0
    2.4988   -1.4880    9.3885 C   0  0  0  0  0  0  0  0  0  0  0  0
    1.4421   -0.5779    8.7814 C   0  0  0  0  0  0  0  0  0  0  0  0
    0.2883   -0.4935    9.2043 O   0  0  0  0  0  0  0  0  0  0  0  0
    2.0004    0.1631    7.5722 C   0  0  2  0  0  0  0  0  0  0  0  0
    1.1272    0.5810    6.3719 C   0  0  2  0  0  0  0  0  0  0  0  0
    0.1845    1.7858    6.6334 C   0  0  1  0  0  0  0  0  0  0  0  0
    0.3301    2.8379    5.5159 C   0  0  0  0  0  0  0  0  0  0  0  0
   -0.3036    2.4772    4.2327 N   0  0  0  0  0  0  0  0  0  0  0  0
   -0.3058    3.5996    3.3143 C   0  0  0  0  0  0  0  0  0  0  0  0
    0.2224    1.2589    3.5871 C   0  0  0  0  0  0  0  0  0  0  0  0
   -0.1844   -0.0744    4.2569 C   0  0  2  0  0  0  0  0  0  0  0  0
   -1.6431   -0.2305    4.6695 C   0  0  0  0  0  0  0  0  0  0  0  0
   -1.2024   -0.0101    6.1046 C   0  0  2  0  0  0  0  0  0  0  0  0
   -1.2078    1.3354    6.6510 N   0  0  0  0  0  0  0  0  0  0  0  0
   -1.9417    1.5531    7.8833 C   0  0  0  0  0  0  0  0  0  0  0  0
    0.2265   -0.4439    5.7188 C   0  0  2  0  0  0  0  0  0  0  0  0
    0.6027   -1.9427    5.9205 C   0  0  2  0  0  0  0  0  0  0  0  0
   -0.0398   -2.5655    7.0316 O   0  0  0  0  0  0  0  0  0  0  0  0
   -0.2269   -3.9293    7.2268 C   0  0  0  0  0  0  0  0  0  0  0  0
   -0.9897   -4.2999    8.1011 O   0  0  0  0  0  0  0  0  0  0  0  0
   -1.7724  -10.1723    2.2537 H   0  0  0  0  0  0  0  0  0  0  0  0
   -1.5932   -8.7091    1.2817 H   0  0  0  0  0  0  0  0  0  0  0  0
   -2.2559   -8.6301    2.9195 H   0  0  0  0  0  0  0  0  0  0  0  0
    0.0023   -9.3932    3.8163 H   0  0  0  0  0  0  0  0  0  0  0  0
    0.6113   -9.4866    2.1856 H   0  0  0  0  0  0  0  0  0  0  0  0
    1.3925   -7.4022    3.2074 H   0  0  0  0  0  0  0  0  0  0  0  0
    0.3396   -7.0595    1.8720 H   0  0  0  0  0  0  0  0  0  0  0  0
   -0.2331   -5.5757    3.5817 H   0  0  0  0  0  0  0  0  0  0  0  0
   -1.5846   -6.6464    3.4665 H   0  0  0  0  0  0  0  0  0  0  0  0
   -0.8712   -7.9714    5.4477 H   0  0  0  0  0  0  0  0  0  0  0  0
   -0.0724   -6.7722    7.2649 H   0  0  0  0  0  0  0  0  0  0  0  0
    3.0258   -3.9114    4.6875 H   0  0  0  0  0  0  0  0  0  0  0  0
    4.0064    0.0549    6.7854 H   0  0  0  0  0  0  0  0  0  0  0  0
    4.4353   -2.0081    8.4636 H   0  0  0  0  0  0  0  0  0  0  0  0
    4.3170   -0.3643    9.0775 H   0  0  0  0  0  0  0  0  0  0  0  0
    2.2096   -2.5269    9.2351 H   0  0  0  0  0  0  0  0  0  0  0  0
    2.6419   -1.3165   10.4555 H   0  0  0  0  0  0  0  0  0  0  0  0
    2.3577    1.0987    8.0065 H   0  0  0  0  0  0  0  0  0  0  0  0
    1.8681    0.8966    5.6383 H   0  0  0  0  0  0  0  0  0  0  0  0
    0.4411    2.2560    7.5795 H   0  0  0  0  0  0  0  0  0  0  0  0
   -0.1560    3.7444    5.8881 H   0  0  0  0  0  0  0  0  0  0  0  0
    1.3840    3.1095    5.3736 H   0  0  0  0  0  0  0  0  0  0  0  0
   -0.9108    3.3445    2.4478 H   0  0  0  0  0  0  0  0  0  0  0  0
    0.7050    3.8736    2.9849 H   0  0  0  0  0  0  0  0  0  0  0  0
   -0.7747    4.4744    3.7692 H   0  0  0  0  0  0  0  0  0  0  0  0
   -0.1543    1.2232    2.5619 H   0  0  0  0  0  0  0  0  0  0  0  0
    1.3067    1.3204    3.4709 H   0  0  0  0  0  0  0  0  0  0  0  0
    0.0653   -0.9040    3.6034 H   0  0  0  0  0  0  0  0  0  0  0  0
   -2.2907    0.5577    4.2944 H   0  0  0  0  0  0  0  0  0  0  0  0
   -2.0357   -1.2364    4.5014 H   0  0  0  0  0  0  0  0  0  0  0  0
   -1.6596   -0.7324    6.7584 H   0  0  0  0  0  0  0  0  0  0  0  0
   -2.9844    1.2649    7.7523 H   0  0  0  0  0  0  0  0  0  0  0  0
   -1.9452    2.6091    8.1459 H   0  0  0  0  0  0  0  0  0  0  0  0
   -1.5164    1.0072    8.7174 H   0  0  0  0  0  0  0  0  0  0  0  0
    0.1304   -2.4064    5.0586 H   0  0  0  0  0  0  0  0  0  0  0  0
  1  2  1  0
  1 35  1  0
  1 36  1  0
  1 37  1  0
  2  3  1  0
  2 38  1  0
  2 39  1  0
  3  4  1  0
  3 40  1  0
  3 41  1  0
  4  5  1  0
  4 42  1  0
  4 43  1  0
  5  6  2  3
  5 44  1  0
  7  6  1  6
  6 45  1  0
  7 10  1  0
  7 33  1  0
  7  8  1  0
  8  9  1  0
  9 10  1  0
  9 11  1  0
  9 46  1  6
 11 31  1  0
 11 12  2  0
 12 13  1  0
 13 18  1  0
 13 14  1  0
 13 47  1  6
 14 15  1  0
 14 48  1  0
 14 49  1  0
 15 16  1  0
 15 50  1  0
 15 51  1  0
 16 17  2  0
 16 18  1  0
 18 19  1  0
 18 52  1  1
 19 30  1  0
 19 20  1  0
 19 53  1  6
 20 28  1  0
 20 21  1  0
 20 54  1  1
 21 22  1  0
 21 55  1  0
 21 56  1  0
 22 23  1  0
 22 24  1  0
 23 57  1  0
 23 58  1  0
 23 59  1  0
 24 25  1  0
 24 60  1  0
 24 61  1  0
 25 30  1  0
 25 26  1  0
 25 62  1  6
 26 27  1  0
 26 63  1  0
 26 64  1  0
 27 28  1  0
 27 30  1  0
 27 65  1  1
 28 29  1  0
 29 66  1  0
 29 67  1  0
 29 68  1  0
 30 31  1  6
 31 32  1  0
 31 69  1  6
 32 33  1  0
 33 34  2  0
M  END
>  <i_m_ct_stereo_status>  (243) 
1

>  <s_m_source_file>  (243) 
/var/tmp/pbs.5076255.sched01/tmp25xsusm8/82mdre8bl4.sdf

>  <i_m_source_file_index>  (243) 
35

>  <i_lp_mmshare_version>  (243) 
48012

>  <i_f3d_flags>  (243) 
0

>  <s_epik_input>  (243) 
W0NIM11bQ0gyXVtDSDJdW0NIMl0vW0NIXT1bQ0hdL1tDQF0oUzEpKEMoPU8pT1tDQEhdMjMpT1tDQEhdMUMyPU5bQ0BIXShbQ0gyXVtDSDJdQzQ9TylbQ0BIXTRbQ0BASF0oW0NAXTM1NilbQ0BIXTdbQ0gyXU4oW0NIM10pW0NIMl1bQ0BASF01W0NIMl1bQ0BASF02TjdbQ0gzXQ==

>  <s_epik_cmdline>  (243) 
J2VwaWtfcHl0aG9uJywgJy1waHQnLCAnMi4wJywgJy1waCcsICc3LjAnLCAnLXRuJywgJzgnLCAnLW1hJywgJzIwMCcsICctaW1hZScsICc8aW5maWxlLm1hZT4nLCAnLW9tYWUnLCAnPG91dGZpbGUubWFlPic=

>  <r_lp_tautomer_probability>  (243) 
0.999984

>  <r_epik_Ionization_Penalty>  (243) 
3.12224

>  <r_epik_Ionization_Penalty_Charging>  (243) 
0

>  <r_epik_Ionization_Penalty_Neutral>  (243) 
3.12224

>  <r_epik_State_Penalty>  (243) 
2.10083

>  <r_epik_Charging_Adjusted_Penalty>  (243) 
2.10083

>  <i_epik_Tot_Q>  (243) 
0

>  <i_epik_Tot_abs_Q>  (243) 
0

>  <s_epik_Chemistry_Notes>  (243) 
This compound has an ester and may undergo hydrolysis at high or low pH. This compound has an imine and may undergo hydrolysis. This compound contains an acetal/aminal-like group ( X-CH(R)-Y where X, Y are N, S, or O) that may be acid/base labile, releasing an aldehyde.

>  <s_lp_Force_Field>  (243) 
OPLS3e

>  <r_lp_Energy>  (243) 
81.4243

>  <b_lp_Chiralities_Consistent>  (243) 
1

>  <s_lp_Variant>  (243) 
82:0-3

>  <s_i_glide_gridfile>  (243) 
pfpi4k_grid

>  <i_i_glide_lignum>  (243) 
35

>  <i_i_glide_rotatable_bonds>  (243) 
4

>  <r_i_docking_score>  (243) 
-1.56324

>  <r_i_glide_ligand_efficiency>  (243) 
-0.0459776

>  <r_i_glide_ligand_efficiency_sa>  (243) 
-0.14895

>  <r_i_glide_ligand_efficiency_ln>  (243) 
-0.345363

>  <r_i_glide_gscore>  (243) 
-1.56324

>  <r_i_glide_lipo>  (243) 
-0.237881

>  <r_i_glide_hbond>  (243) 
0

>  <r_i_glide_metal>  (243) 
-0

>  <r_i_glide_rewards>  (243) 
-0.0979105

>  <r_i_glide_evdw>  (243) 
-21.7738

>  <r_i_glide_ecoul>  (243) 
-2.48461

>  <r_i_glide_erotb>  (243) 
0.25843

>  <r_i_glide_esite>  (243) 
-0.0244924

>  <r_i_glide_emodel>  (243) 
-25.2238

>  <r_i_glide_energy>  (243) 
-24.2584

>  <r_i_glide_einternal>  (243) 
2.16236

>  <r_i_glide_intrahb_reward>  (243) 
-0

>  <i_i_glide_confnum>  (243) 
3

>  <i_i_glide_posenum>  (243) 
26

>  <r_i_glide_eff_state_penalty>  (243) 
0

>  <ligand_id>  (243) 
82

>  <original_smiles>  (243) 
CCCCC=CC12OC(S1)C1=NC3CCC(=O)C3C3C4CN(C)CC5CC(N4C)C53C1OC2=O

>  <smiles>  (243) 
[H]C(=C([H])C([H])([H])C([H])([H])C([H])([H])C([H])([H])[H])C12OC([H])(S1)C1=NC3([H])C([H])([H])C([H])([H])C(=O)C3([H])C3([H])C4([H])N(C([H])([H])[H])C5([H])C([H])([H])C([H])(C([H])([H])N(C([H])([H])[H])C4([H])[H])C53C1([H])OC2=O

$$$$
83:0:0
     RDKit          3D

 42 46  0  0  1  0  0  0  0  0999 V2000
    1.7234   -3.1678    3.6246 C   0  0  0  0  0  0  0  0  0  0  0  0
    2.6622   -4.2930    3.1701 C   0  0  2  0  0  0  0  0  0  0  0  0
    2.5409   -5.5107    4.1168 C   0  0  0  0  0  0  0  0  0  0  0  0
    3.6835   -6.5371    4.0451 C   0  0  0  0  0  0  0  0  0  0  0  0
    4.1627   -6.8650    2.6206 C   0  0  2  0  0  0  0  0  0  0  0  0
    5.2127   -7.8250    2.7480 O   0  0  0  0  0  0  0  0  0  0  0  0
    6.3170   -7.8665    1.9827 C   0  0  0  0  0  0  0  0  0  0  0  0
    7.0011   -8.8709    1.8576 O   0  0  0  0  0  0  0  0  0  0  0  0
    6.7316   -6.5679    1.3027 C   0  0  0  0  0  0  0  0  0  0  0  0
    5.5395   -5.8008    0.7262 C   0  0  2  0  0  0  0  0  0  0  0  0
    5.9387   -4.3469    0.3929 C   0  0  1  0  0  0  0  0  0  0  0  0
    5.2134   -3.9895   -0.7454 O   0  0  0  0  0  0  0  0  0  0  0  0
    5.4781   -2.7868   -1.3052 C   0  0  0  0  0  0  0  0  0  0  0  0
    6.3817   -2.0165   -0.9698 O   0  0  0  0  0  0  0  0  0  0  0  0
    4.5268   -2.4732   -2.3715 C   0  0  0  0  0  0  0  0  0  0  0  0
    4.2069   -1.3060   -3.0159 C   0  0  0  0  0  0  0  0  0  0  0  0
    3.1503   -1.5919   -3.9336 C   0  0  0  0  0  0  0  0  0  0  0  0
    2.8604   -2.9280   -3.8409 C   0  0  0  0  0  0  0  0  0  0  0  0
    3.7031   -3.4577   -2.8936 N   0  0  0  0  0  0  0  0  0  0  0  0
    5.5805   -3.5841    1.5170 O   0  0  0  0  0  0  0  0  0  0  0  0
    4.9662   -4.3815    2.4865 C   0  0  1  0  0  0  0  0  0  0  0  0
    3.9570   -3.7034    3.1680 O   0  0  0  0  0  0  0  0  0  0  0  0
    4.4405   -5.6166    1.7436 C   0  0  2  0  0  0  0  0  0  0  0  0
    3.2749   -5.2830    1.0053 O   0  0  0  0  0  0  0  0  0  0  0  0
    2.2004   -4.6542    1.8730 O   0  0  0  0  0  0  0  0  0  0  0  0
    3.6740   -4.4256   -2.5878 H   0  0  0  0  0  0  0  0  0  0  0  0
    1.8004   -2.3189    2.9461 H   0  0  0  0  0  0  0  0  0  0  0  0
    1.9704   -2.8125    4.6254 H   0  0  0  0  0  0  0  0  0  0  0  0
    0.6865   -3.4975    3.6249 H   0  0  0  0  0  0  0  0  0  0  0  0
    2.4760   -5.1643    5.1489 H   0  0  0  0  0  0  0  0  0  0  0  0
    1.5919   -6.0073    3.9079 H   0  0  0  0  0  0  0  0  0  0  0  0
    4.5228   -6.1817    4.6451 H   0  0  0  0  0  0  0  0  0  0  0  0
    3.3566   -7.4595    4.5309 H   0  0  0  0  0  0  0  0  0  0  0  0
    3.3536   -7.4089    2.1261 H   0  0  0  0  0  0  0  0  0  0  0  0
    7.2730   -5.9758    2.0394 H   0  0  0  0  0  0  0  0  0  0  0  0
    7.4393   -6.8017    0.5076 H   0  0  0  0  0  0  0  0  0  0  0  0
    5.1686   -6.3216   -0.1588 H   0  0  0  0  0  0  0  0  0  0  0  0
    7.0160   -4.2390    0.2115 H   0  0  0  0  0  0  0  0  0  0  0  0
    4.6542   -0.3396   -2.8207 H   0  0  0  0  0  0  0  0  0  0  0  0
    2.6303   -0.9084   -4.5881 H   0  0  0  0  0  0  0  0  0  0  0  0
    2.1200   -3.5387   -4.3376 H   0  0  0  0  0  0  0  0  0  0  0  0
    5.7617   -4.6419    3.1865 H   0  0  0  0  0  0  0  0  0  0  0  0
  2  1  1  1
  1 27  1  0
  1 28  1  0
  1 29  1  0
  2 22  1  0
  2 25  1  0
  2  3  1  0
  3  4  1  0
  3 30  1  0
  3 31  1  0
  4  5  1  0
  4 32  1  0
  4 33  1  0
  5 23  1  0
  5  6  1  0
  5 34  1  6
  6  7  1  0
  7  8  2  0
  7  9  1  0
  9 10  1  0
  9 35  1  0
  9 36  1  0
 10 23  1  0
 10 11  1  0
 10 37  1  6
 11 12  1  0
 11 20  1  0
 11 38  1  6
 12 13  1  0
 13 14  2  0
 13 15  1  0
 15 19  1  0
 15 16  2  0
 16 17  1  0
 16 39  1  0
 17 18  2  0
 17 40  1  0
 18 19  1  0
 18 41  1  0
 19 26  1  0
 20 21  1  0
 21 22  1  0
 21 23  1  0
 21 42  1  1
 23 24  1  6
 24 25  1  0
M  END
>  <i_m_ct_stereo_status>  (244) 
1

>  <s_m_source_file>  (244) 
/var/tmp/pbs.5076255.sched01/tmp25xsusm8/82mdre8bl4.sdf

>  <i_m_source_file_index>  (244) 
36

>  <i_lp_mmshare_version>  (244) 
48012

>  <i_f3d_flags>  (244) 
0

>  <s_epik_input>  (244) 
W0NAQF0xMjNbQ0BASF00W0NIMl1bQ0gyXVtDQF0oW0NIM10pKE9PMylPW0NAQEhdMk9bQ0BASF0oW0NASF0xW0NIMl1DKE80KT1PKU9DKD1PKWM1W2NIXVtjSF1bY0hdW25IXTU=

>  <s_epik_cmdline>  (244) 
J2VwaWtfcHl0aG9uJywgJy1waHQnLCAnMi4wJywgJy1waCcsICc3LjAnLCAnLXRuJywgJzgnLCAnLW1hJywgJzIwMCcsICctaW1hZScsICc8aW5maWxlLm1hZT4nLCAnLW9tYWUnLCAnPG91dGZpbGUubWFlPic=

>  <r_lp_tautomer_probability>  (244) 
1

>  <r_epik_Ionization_Penalty>  (244) 
1.94785e-08

>  <r_epik_Ionization_Penalty_Charging>  (244) 
0

>  <r_epik_Ionization_Penalty_Neutral>  (244) 
1.94785e-08

>  <r_epik_State_Penalty>  (244) 
-0

>  <r_epik_Charging_Adjusted_Penalty>  (244) 
0

>  <i_epik_Tot_Q>  (244) 
0

>  <i_epik_Tot_abs_Q>  (244) 
0

>  <s_epik_Chemistry_Notes>  (244) 
This compound has an ester and may undergo hydrolysis at high or low pH. This compound contains an acetal/aminal-like group ( X-CH(R)-Y where X, Y are N, S, or O) that may be acid/base labile, releasing an aldehyde.

>  <s_lp_Force_Field>  (244) 
OPLS3e

>  <r_lp_Energy>  (244) 
35.2452

>  <b_lp_Chiralities_Consistent>  (244) 
1

>  <s_lp_Variant>  (244) 
83:0-1

>  <s_i_glide_gridfile>  (244) 
pfpi4k_grid

>  <i_i_glide_lignum>  (244) 
36

>  <i_i_glide_rotatable_bonds>  (244) 
3

>  <r_i_docking_score>  (244) 
-4.13212

>  <r_i_glide_ligand_efficiency>  (244) 
-0.165285

>  <r_i_glide_ligand_efficiency_sa>  (244) 
-0.483295

>  <r_i_glide_ligand_efficiency_ln>  (244) 
-0.979436

>  <r_i_glide_gscore>  (244) 
-4.13212

>  <r_i_glide_lipo>  (244) 
-0.577171

>  <r_i_glide_hbond>  (244) 
-0.455614

>  <r_i_glide_metal>  (244) 
-0

>  <r_i_glide_rewards>  (244) 
-1.26381

>  <r_i_glide_evdw>  (244) 
-27.6854

>  <r_i_glide_ecoul>  (244) 
-5.98619

>  <r_i_glide_erotb>  (244) 
0.463581

>  <r_i_glide_esite>  (244) 
-0.016907

>  <r_i_glide_emodel>  (244) 
-40.2867

>  <r_i_glide_energy>  (244) 
-33.6716

>  <r_i_glide_einternal>  (244) 
3.34027

>  <r_i_glide_intrahb_reward>  (244) 
-0

>  <i_i_glide_confnum>  (244) 
5

>  <i_i_glide_posenum>  (244) 
8

>  <r_i_glide_eff_state_penalty>  (244) 
0

>  <ligand_id>  (244) 
83

>  <original_smiles>  (244) 
CC12CCC3OC(=O)CC4C(OC(=O)c5ccc[nH]5)OC(O1)C34OO2

>  <smiles>  (244) 
[H]c1c([H])c(C(=O)OC2([H])OC3([H])OC4(C([H])([H])[H])OOC35C([H])(OC(=O)C([H])([H])C25[H])C([H])([H])C4([H])[H])n([H])c1[H]

$$$$
83:0:1
     RDKit          3D

 42 46  0  0  1  0  0  0  0  0999 V2000
    1.6157  -10.9925    3.3183 C   0  0  0  0  0  0  0  0  0  0  0  0
    1.3817   -9.7839    4.2288 C   0  0  2  0  0  0  0  0  0  0  0  0
    0.9415  -10.2379    5.6391 C   0  0  0  0  0  0  0  0  0  0  0  0
    0.2857   -9.1713    6.5345 C   0  0  0  0  0  0  0  0  0  0  0  0
    0.9651   -7.7892    6.4989 C   0  0  2  0  0  0  0  0  0  0  0  0
    0.2449   -6.9140    7.3831 O   0  0  0  0  0  0  0  0  0  0  0  0
   -0.0382   -5.6115    7.1378 C   0  0  0  0  0  0  0  0  0  0  0  0
   -0.4139   -4.8189    7.9970 O   0  0  0  0  0  0  0  0  0  0  0  0
    0.0340   -5.1646    5.6868 C   0  0  0  0  0  0  0  0  0  0  0  0
    1.2038   -5.7830    4.9164 C   0  0  2  0  0  0  0  0  0  0  0  0
    1.0084   -5.6108    3.3985 C   0  0  1  0  0  0  0  0  0  0  0  0
    2.2786   -5.3899    2.8377 O   0  0  0  0  0  0  0  0  0  0  0  0
    2.3964   -5.4293    1.4862 C   0  0  0  0  0  0  0  0  0  0  0  0
    1.5384   -5.8336    0.6971 O   0  0  0  0  0  0  0  0  0  0  0  0
    3.6821   -4.8905    1.0442 C   0  0  0  0  0  0  0  0  0  0  0  0
    4.7469   -4.3564    1.7208 C   0  0  0  0  0  0  0  0  0  0  0  0
    5.7374   -3.9759    0.7563 C   0  0  0  0  0  0  0  0  0  0  0  0
    5.2495   -4.2795   -0.4886 C   0  0  0  0  0  0  0  0  0  0  0  0
    4.0009   -4.8399   -0.3030 N   0  0  0  0  0  0  0  0  0  0  0  0
    0.3551   -6.7739    2.9558 O   0  0  0  0  0  0  0  0  0  0  0  0
    0.2144   -7.6989    3.9933 C   0  0  1  0  0  0  0  0  0  0  0  0
    0.3963   -9.0060    3.5540 O   0  0  0  0  0  0  0  0  0  0  0  0
    1.2435   -7.2855    5.0610 C   0  0  2  0  0  0  0  0  0  0  0  0
    2.5498   -7.6642    4.6505 O   0  0  0  0  0  0  0  0  0  0  0  0
    2.6518   -9.1440    4.3077 O   0  0  0  0  0  0  0  0  0  0  0  0
    3.4084   -5.1862   -1.0500 H   0  0  0  0  0  0  0  0  0  0  0  0
    1.9460  -10.6461    2.3374 H   0  0  0  0  0  0  0  0  0  0  0  0
    0.7117  -11.5850    3.1793 H   0  0  0  0  0  0  0  0  0  0  0  0
    2.3871  -11.6464    3.7187 H   0  0  0  0  0  0  0  0  0  0  0  0
    0.2361  -11.0665    5.5502 H   0  0  0  0  0  0  0  0  0  0  0  0
    1.8198  -10.6543    6.1357 H   0  0  0  0  0  0  0  0  0  0  0  0
   -0.7645   -9.0820    6.2557 H   0  0  0  0  0  0  0  0  0  0  0  0
    0.2843   -9.5426    7.5595 H   0  0  0  0  0  0  0  0  0  0  0  0
    1.9448   -7.9042    6.9666 H   0  0  0  0  0  0  0  0  0  0  0  0
   -0.9210   -5.4434    5.2453 H   0  0  0  0  0  0  0  0  0  0  0  0
    0.1044   -4.0787    5.6626 H   0  0  0  0  0  0  0  0  0  0  0  0
    2.1341   -5.3186    5.2445 H   0  0  0  0  0  0  0  0  0  0  0  0
    0.3745   -4.7506    3.1627 H   0  0  0  0  0  0  0  0  0  0  0  0
    4.8014   -4.2472    2.7943 H   0  0  0  0  0  0  0  0  0  0  0  0
    6.7013   -3.5305    0.9492 H   0  0  0  0  0  0  0  0  0  0  0  0
    5.6711   -4.1646   -1.4769 H   0  0  0  0  0  0  0  0  0  0  0  0
   -0.8118   -7.5870    4.3542 H   0  0  0  0  0  0  0  0  0  0  0  0
  2  1  1  6
  1 27  1  0
  1 28  1  0
  1 29  1  0
  2 22  1  0
  2 25  1  0
  2  3  1  0
  3  4  1  0
  3 30  1  0
  3 31  1  0
  4  5  1  0
  4 32  1  0
  4 33  1  0
  5 23  1  0
  5  6  1  0
  5 34  1  1
  6  7  1  0
  7  8  2  0
  7  9  1  0
  9 10  1  0
  9 35  1  0
  9 36  1  0
 10 23  1  0
 10 11  1  0
 10 37  1  1
 11 12  1  0
 11 20  1  0
 11 38  1  1
 12 13  1  0
 13 14  2  0
 13 15  1  0
 15 19  1  0
 15 16  2  0
 16 17  1  0
 16 39  1  0
 17 18  2  0
 17 40  1  0
 18 19  1  0
 18 41  1  0
 19 26  1  0
 20 21  1  0
 21 22  1  0
 21 23  1  0
 21 42  1  1
 23 24  1  6
 24 25  1  0
M  END
>  <i_m_ct_stereo_status>  (245) 
1

>  <s_m_source_file>  (245) 
/var/tmp/pbs.5076255.sched01/tmp25xsusm8/82mdre8bl4.sdf

>  <i_m_source_file_index>  (245) 
36

>  <i_lp_mmshare_version>  (245) 
48012

>  <i_f3d_flags>  (245) 
0

>  <s_epik_input>  (245) 
W0NAQF0xMjNbQ0BASF00W0NIMl1bQ0gyXVtDQF0oW0NIM10pKE9PMylPW0NAQEhdMk9bQ0BASF0oW0NASF0xW0NIMl1DKE80KT1PKU9DKD1PKWM1W2NIXVtjSF1bY0hdW25IXTU=

>  <s_epik_cmdline>  (245) 
J2VwaWtfcHl0aG9uJywgJy1waHQnLCAnMi4wJywgJy1waCcsICc3LjAnLCAnLXRuJywgJzgnLCAnLW1hJywgJzIwMCcsICctaW1hZScsICc8aW5maWxlLm1hZT4nLCAnLW9tYWUnLCAnPG91dGZpbGUubWFlPic=

>  <r_lp_tautomer_probability>  (245) 
1

>  <r_epik_Ionization_Penalty>  (245) 
1.94785e-08

>  <r_epik_Ionization_Penalty_Charging>  (245) 
0

>  <r_epik_Ionization_Penalty_Neutral>  (245) 
1.94785e-08

>  <r_epik_State_Penalty>  (245) 
-0

>  <r_epik_Charging_Adjusted_Penalty>  (245) 
0

>  <i_epik_Tot_Q>  (245) 
0

>  <i_epik_Tot_abs_Q>  (245) 
0

>  <s_epik_Chemistry_Notes>  (245) 
This compound has an ester and may undergo hydrolysis at high or low pH. This compound contains an acetal/aminal-like group ( X-CH(R)-Y where X, Y are N, S, or O) that may be acid/base labile, releasing an aldehyde.

>  <s_lp_Force_Field>  (245) 
OPLS3e

>  <r_lp_Energy>  (245) 
35.2452

>  <b_lp_Chiralities_Consistent>  (245) 
1

>  <s_lp_Variant>  (245) 
83:0-1

>  <s_i_glide_gridfile>  (245) 
pfpi4k_grid

>  <i_i_glide_lignum>  (245) 
36

>  <i_i_glide_rotatable_bonds>  (245) 
3

>  <r_i_docking_score>  (245) 
-3.74088

>  <r_i_glide_ligand_efficiency>  (245) 
-0.149635

>  <r_i_glide_ligand_efficiency_sa>  (245) 
-0.437537

>  <r_i_glide_ligand_efficiency_ln>  (245) 
-0.886702

>  <r_i_glide_gscore>  (245) 
-3.74088

>  <r_i_glide_lipo>  (245) 
-0.318833

>  <r_i_glide_hbond>  (245) 
-0.46806

>  <r_i_glide_metal>  (245) 
-0

>  <r_i_glide_rewards>  (245) 
-1.0229

>  <r_i_glide_evdw>  (245) 
-23.164

>  <r_i_glide_ecoul>  (245) 
-7.33601

>  <r_i_glide_erotb>  (245) 
0.463581

>  <r_i_glide_esite>  (245) 
-0.136074

>  <r_i_glide_emodel>  (245) 
-37.7398

>  <r_i_glide_energy>  (245) 
-30.5

>  <r_i_glide_einternal>  (245) 
0.827155

>  <r_i_glide_intrahb_reward>  (245) 
-0

>  <i_i_glide_confnum>  (245) 
3

>  <i_i_glide_posenum>  (245) 
5

>  <r_i_glide_eff_state_penalty>  (245) 
0

>  <ligand_id>  (245) 
83

>  <original_smiles>  (245) 
CC12CCC3OC(=O)CC4C(OC(=O)c5ccc[nH]5)OC(O1)C34OO2

>  <smiles>  (245) 
[H]c1c([H])c(C(=O)OC2([H])OC3([H])OC4(C([H])([H])[H])OOC35C([H])(OC(=O)C([H])([H])C25[H])C([H])([H])C4([H])[H])n([H])c1[H]

$$$$
83:0:2
     RDKit          3D

 42 46  0  0  1  0  0  0  0  0999 V2000
    2.1333   -1.2645    4.2894 C   0  0  0  0  0  0  0  0  0  0  0  0
    3.1311   -1.6316    3.1820 C   0  0  2  0  0  0  0  0  0  0  0  0
    4.1391   -0.4794    2.9479 C   0  0  0  0  0  0  0  0  0  0  0  0
    4.9213   -0.5197    1.6234 C   0  0  0  0  0  0  0  0  0  0  0  0
    5.4340   -1.9105    1.2180 C   0  0  2  0  0  0  0  0  0  0  0  0
    6.1390   -1.7651   -0.0183 O   0  0  0  0  0  0  0  0  0  0  0  0
    6.1081   -2.6479   -1.0376 C   0  0  0  0  0  0  0  0  0  0  0  0
    6.9557   -2.6646   -1.9215 O   0  0  0  0  0  0  0  0  0  0  0  0
    4.9177   -3.5971   -1.0921 C   0  0  0  0  0  0  0  0  0  0  0  0
    4.5318   -4.1269    0.2910 C   0  0  2  0  0  0  0  0  0  0  0  0
    3.1286   -4.7561    0.2692 C   0  0  1  0  0  0  0  0  0  0  0  0
    3.1574   -5.8576    1.1349 O   0  0  0  0  0  0  0  0  0  0  0  0
    2.0056   -6.5542    1.2784 C   0  0  0  0  0  0  0  0  0  0  0  0
    0.9187   -6.2574    0.7775 O   0  0  0  0  0  0  0  0  0  0  0  0
    2.2086   -7.7605    2.0829 C   0  0  0  0  0  0  0  0  0  0  0  0
    3.2401   -8.1756    2.8837 C   0  0  0  0  0  0  0  0  0  0  0  0
    2.8966   -9.4637    3.4077 C   0  0  0  0  0  0  0  0  0  0  0  0
    1.6680   -9.8078    2.9095 C   0  0  0  0  0  0  0  0  0  0  0  0
    1.2556   -8.7623    2.1062 N   0  0  0  0  0  0  0  0  0  0  0  0
    2.2407   -3.7511    0.6795 O   0  0  0  0  0  0  0  0  0  0  0  0
    2.9192   -2.5757    0.9857 C   0  0  1  0  0  0  0  0  0  0  0  0
    2.3202   -1.9028    2.0471 O   0  0  0  0  0  0  0  0  0  0  0  0
    4.3568   -3.0160    1.2991 C   0  0  2  0  0  0  0  0  0  0  0  0
    4.4063   -3.6434    2.5738 O   0  0  0  0  0  0  0  0  0  0  0  0
    3.8150   -2.7768    3.6790 O   0  0  0  0  0  0  0  0  0  0  0  0
    0.4050   -8.7640    1.5568 H   0  0  0  0  0  0  0  0  0  0  0  0
    1.4342   -2.0853    4.4564 H   0  0  0  0  0  0  0  0  0  0  0  0
    1.5474   -0.3812    4.0342 H   0  0  0  0  0  0  0  0  0  0  0  0
    2.6468   -1.0704    5.2298 H   0  0  0  0  0  0  0  0  0  0  0  0
    3.6146    0.4765    2.9893 H   0  0  0  0  0  0  0  0  0  0  0  0
    4.8382   -0.4712    3.7855 H   0  0  0  0  0  0  0  0  0  0  0  0
    4.3040   -0.1003    0.8264 H   0  0  0  0  0  0  0  0  0  0  0  0
    5.7776    0.1456    1.7085 H   0  0  0  0  0  0  0  0  0  0  0  0
    6.2061   -2.1909    1.9377 H   0  0  0  0  0  0  0  0  0  0  0  0
    4.0944   -3.0562   -1.5579 H   0  0  0  0  0  0  0  0  0  0  0  0
    5.1599   -4.4277   -1.7550 H   0  0  0  0  0  0  0  0  0  0  0  0
    5.2778   -4.8546    0.6136 H   0  0  0  0  0  0  0  0  0  0  0  0
    2.8326   -5.0840   -0.7184 H   0  0  0  0  0  0  0  0  0  0  0  0
    4.1453   -7.6135    3.0653 H   0  0  0  0  0  0  0  0  0  0  0  0
    3.4870  -10.0810    4.0685 H   0  0  0  0  0  0  0  0  0  0  0  0
    1.0683  -10.6970    3.0462 H   0  0  0  0  0  0  0  0  0  0  0  0
    2.8628   -1.9545    0.0879 H   0  0  0  0  0  0  0  0  0  0  0  0
  2  1  1  1
  1 27  1  0
  1 28  1  0
  1 29  1  0
  2 22  1  0
  2 25  1  0
  2  3  1  0
  3  4  1  0
  3 30  1  0
  3 31  1  0
  4  5  1  0
  4 32  1  0
  4 33  1  0
  5 23  1  0
  5  6  1  0
  5 34  1  1
  6  7  1  0
  7  8  2  0
  7  9  1  0
  9 10  1  0
  9 35  1  0
  9 36  1  0
 10 23  1  0
 10 11  1  0
 10 37  1  1
 11 12  1  0
 11 20  1  0
 11 38  1  6
 12 13  1  0
 13 14  2  0
 13 15  1  0
 15 19  1  0
 15 16  2  0
 16 17  1  0
 16 39  1  0
 17 18  2  0
 17 40  1  0
 18 19  1  0
 18 41  1  0
 19 26  1  0
 20 21  1  0
 21 22  1  0
 21 23  1  0
 21 42  1  6
 23 24  1  1
 24 25  1  0
M  END
>  <i_m_ct_stereo_status>  (246) 
1

>  <s_m_source_file>  (246) 
/var/tmp/pbs.5076255.sched01/tmp25xsusm8/82mdre8bl4.sdf

>  <i_m_source_file_index>  (246) 
36

>  <i_lp_mmshare_version>  (246) 
48012

>  <i_f3d_flags>  (246) 
0

>  <s_epik_input>  (246) 
W0NAQF0xMjNbQ0BASF00W0NIMl1bQ0gyXVtDQF0oW0NIM10pKE9PMylPW0NAQEhdMk9bQ0BASF0oW0NASF0xW0NIMl1DKE80KT1PKU9DKD1PKWM1W2NIXVtjSF1bY0hdW25IXTU=

>  <s_epik_cmdline>  (246) 
J2VwaWtfcHl0aG9uJywgJy1waHQnLCAnMi4wJywgJy1waCcsICc3LjAnLCAnLXRuJywgJzgnLCAnLW1hJywgJzIwMCcsICctaW1hZScsICc8aW5maWxlLm1hZT4nLCAnLW9tYWUnLCAnPG91dGZpbGUubWFlPic=

>  <r_lp_tautomer_probability>  (246) 
1

>  <r_epik_Ionization_Penalty>  (246) 
1.94785e-08

>  <r_epik_Ionization_Penalty_Charging>  (246) 
0

>  <r_epik_Ionization_Penalty_Neutral>  (246) 
1.94785e-08

>  <r_epik_State_Penalty>  (246) 
-0

>  <r_epik_Charging_Adjusted_Penalty>  (246) 
0

>  <i_epik_Tot_Q>  (246) 
0

>  <i_epik_Tot_abs_Q>  (246) 
0

>  <s_epik_Chemistry_Notes>  (246) 
This compound has an ester and may undergo hydrolysis at high or low pH. This compound contains an acetal/aminal-like group ( X-CH(R)-Y where X, Y are N, S, or O) that may be acid/base labile, releasing an aldehyde.

>  <s_lp_Force_Field>  (246) 
OPLS3e

>  <r_lp_Energy>  (246) 
35.2452

>  <b_lp_Chiralities_Consistent>  (246) 
1

>  <s_lp_Variant>  (246) 
83:0-1

>  <s_i_glide_gridfile>  (246) 
pfpi4k_grid

>  <i_i_glide_lignum>  (246) 
36

>  <i_i_glide_rotatable_bonds>  (246) 
3

>  <r_i_docking_score>  (246) 
-3.58526

>  <r_i_glide_ligand_efficiency>  (246) 
-0.143411

>  <r_i_glide_ligand_efficiency_sa>  (246) 
-0.419335

>  <r_i_glide_ligand_efficiency_ln>  (246) 
-0.849815

>  <r_i_glide_gscore>  (246) 
-3.58526

>  <r_i_glide_lipo>  (246) 
-0.410328

>  <r_i_glide_hbond>  (246) 
-0.369049

>  <r_i_glide_metal>  (246) 
-0

>  <r_i_glide_rewards>  (246) 
-1.01381

>  <r_i_glide_evdw>  (246) 
-25.991

>  <r_i_glide_ecoul>  (246) 
-5.64987

>  <r_i_glide_erotb>  (246) 
0.463581

>  <r_i_glide_esite>  (246) 
-0.10863

>  <r_i_glide_emodel>  (246) 
-38.618

>  <r_i_glide_energy>  (246) 
-31.6408

>  <r_i_glide_einternal>  (246) 
0.645846

>  <r_i_glide_intrahb_reward>  (246) 
-0

>  <i_i_glide_confnum>  (246) 
3

>  <i_i_glide_posenum>  (246) 
31

>  <r_i_glide_eff_state_penalty>  (246) 
0

>  <ligand_id>  (246) 
83

>  <original_smiles>  (246) 
CC12CCC3OC(=O)CC4C(OC(=O)c5ccc[nH]5)OC(O1)C34OO2

>  <smiles>  (246) 
[H]c1c([H])c(C(=O)OC2([H])OC3([H])OC4(C([H])([H])[H])OOC35C([H])(OC(=O)C([H])([H])C25[H])C([H])([H])C4([H])[H])n([H])c1[H]

$$$$
84:0:0
     RDKit          3D

 86 95  0  0  1  0  0  0  0  0999 V2000
    3.5690   -4.3010    2.4001 C   0  0  0  0  0  0  0  0  0  0  0  0
    2.8750   -3.0652    2.1340 O   0  0  0  0  0  0  0  0  0  0  0  0
    3.0755   -2.0020    3.0821 C   0  0  2  0  0  0  0  0  0  0  0  0
    1.9902   -0.8499    2.8482 C   0  0  0  0  0  0  0  0  0  0  0  0
    1.8584    0.4297    3.8262 C   0  0  1  0  0  0  0  0  0  0  0  0
    3.2236    0.6349    4.0380 O   0  0  0  0  0  0  0  0  0  0  0  0
    1.0684    1.5865    3.1534 C   0  0  1  0  0  0  0  0  0  0  0  0
    1.2688    1.6989    1.7555 O   0  0  0  0  0  0  0  0  0  0  0  0
   -0.6322    1.3897    3.3279 C   0  0  0  0  0  0  0  0  0  0  0  0
   -1.6024    1.2442    4.7424 C   0  0  1  0  0  0  0  0  0  0  0  0
   -1.8583    0.0417    5.7241 C   0  0  1  0  0  0  0  0  0  0  0  0
   -1.7616   -1.3094    5.3510 O   0  0  0  0  0  0  0  0  0  0  0  0
   -0.6265   -1.5374    4.5820 C   0  0  0  0  0  0  0  0  0  0  0  0
    0.5703   -0.9760    5.3411 C   0  0  0  0  0  0  0  0  0  0  0  0
    1.1092    0.5622    5.2410 C   0  0  2  0  0  0  0  0  0  0  0  0
    0.6625    2.2485    5.5373 C   0  0  1  0  0  0  0  0  0  0  0  0
   -0.3598    2.8904    6.4791 C   0  0  1  0  0  0  0  0  0  0  0  0
   -0.7600    4.2320    6.1743 O   0  0  0  0  0  0  0  0  0  0  0  0
   -1.4483    1.9469    6.2061 C   0  0  2  0  0  0  0  0  0  0  0  0
   -1.0922    0.6581    6.9727 C   0  0  2  0  0  0  0  0  0  0  0  0
    0.4539    0.5189    7.5838 C   0  0  1  0  0  0  0  0  0  0  0  0
    0.4638   -0.6706    8.3799 O   0  0  0  0  0  0  0  0  0  0  0  0
    1.5088   -0.7699    9.3377 C   0  0  0  0  0  0  0  0  0  0  0  0
    1.7621    0.6532    6.5814 C   0  0  2  0  0  0  0  0  0  0  0  0
    2.5660    2.0310    6.4692 C   0  0  1  0  0  0  0  0  0  0  0  0
    3.9720    1.8691    6.2924 O   0  0  0  0  0  0  0  0  0  0  0  0
    4.7230    3.0772    6.3554 C   0  0  0  0  0  0  0  0  0  0  0  0
    1.9060    2.9538    5.3659 C   0  0  1  0  0  0  0  0  0  0  0  0
    1.8889    2.8639    3.7503 C   0  0  0  0  0  0  0  0  0  0  0  0
    4.5548   -1.5036    3.0203 C   0  0  2  0  0  0  0  0  0  0  0  0
    5.0127   -0.4282    1.9904 C   0  0  1  0  0  0  0  0  0  0  0  0
    6.4153   -0.8607    2.3758 C   0  0  0  0  0  0  0  0  0  0  0  0
    5.7276   -2.1925    2.3178 C   0  0  2  0  0  0  0  0  0  0  0  0
    5.3099   -2.2750    0.9207 N   0  0  0  0  0  0  0  0  0  0  0  0
    4.7944   -1.0508    0.6666 C   0  0  0  0  0  0  0  0  0  0  0  0
    4.2179   -0.6314   -0.4028 N   0  0  0  0  0  0  0  0  0  0  0  0
    4.1620   -1.5689   -1.4606 C   0  0  0  0  0  0  0  0  0  0  0  0
    3.5829   -1.1671   -2.6945 C   0  0  0  0  0  0  0  0  0  0  0  0
    3.4788   -2.1153   -3.7402 C   0  0  0  0  0  0  0  0  0  0  0  0
    3.9348   -3.4336   -3.5669 C   0  0  0  0  0  0  0  0  0  0  0  0
    4.5453   -3.7360   -2.3516 C   0  0  0  0  0  0  0  0  0  0  0  0
    4.6733   -2.8680   -1.2882 C   0  0  0  0  0  0  0  0  0  0  0  0
    5.2868   -3.2905    0.0142 C   0  0  0  0  0  0  0  0  0  0  0  0
    5.7219   -4.4064    0.2895 O   0  0  0  0  0  0  0  0  0  0  0  0
    3.2247   -5.0174    1.6388 H   0  0  0  0  0  0  0  0  0  0  0  0
    3.2417   -4.6993    3.3562 H   0  0  0  0  0  0  0  0  0  0  0  0
    4.6036   -4.2030    2.3174 H   0  0  0  0  0  0  0  0  0  0  0  0
    2.9082   -2.4668    4.0483 H   0  0  0  0  0  0  0  0  0  0  0  0
    2.2611   -0.4665    1.8659 H   0  0  0  0  0  0  0  0  0  0  0  0
    1.0423   -1.2958    2.6185 H   0  0  0  0  0  0  0  0  0  0  0  0
    3.5999    0.8883    3.2049 H   0  0  0  0  0  0  0  0  0  0  0  0
    0.7937    2.4603    1.4481 H   0  0  0  0  0  0  0  0  0  0  0  0
   -1.0203    2.2892    2.8480 H   0  0  0  0  0  0  0  0  0  0  0  0
   -0.9496    0.6350    2.6161 H   0  0  0  0  0  0  0  0  0  0  0  0
   -2.5922    1.5373    4.4039 H   0  0  0  0  0  0  0  0  0  0  0  0
   -2.9134    0.0865    5.9951 H   0  0  0  0  0  0  0  0  0  0  0  0
   -0.5283   -2.6185    4.4678 H   0  0  0  0  0  0  0  0  0  0  0  0
   -0.7643   -1.1414    3.5952 H   0  0  0  0  0  0  0  0  0  0  0  0
    0.4312   -1.4309    6.3067 H   0  0  0  0  0  0  0  0  0  0  0  0
    1.4022   -1.6086    5.0884 H   0  0  0  0  0  0  0  0  0  0  0  0
    0.0989    2.8287    4.8198 H   0  0  0  0  0  0  0  0  0  0  0  0
   -0.0581    2.9548    7.5217 H   0  0  0  0  0  0  0  0  0  0  0  0
   -0.0077    4.7792    6.2942 H   0  0  0  0  0  0  0  0  0  0  0  0
   -2.4063    2.3267    6.5513 H   0  0  0  0  0  0  0  0  0  0  0  0
   -1.7752    0.6003    7.8153 H   0  0  0  0  0  0  0  0  0  0  0  0
    0.5873    1.2587    8.3666 H   0  0  0  0  0  0  0  0  0  0  0  0
    1.4125   -1.7079    9.8852 H   0  0  0  0  0  0  0  0  0  0  0  0
    1.4621    0.0401   10.0666 H   0  0  0  0  0  0  0  0  0  0  0  0
    2.4965   -0.7650    8.8782 H   0  0  0  0  0  0  0  0  0  0  0  0
    2.4698   -0.1554    6.7437 H   0  0  0  0  0  0  0  0  0  0  0  0
    2.4569    2.5216    7.4367 H   0  0  0  0  0  0  0  0  0  0  0  0
    5.7602    2.8730    6.0886 H   0  0  0  0  0  0  0  0  0  0  0  0
    4.7051    3.4800    7.3680 H   0  0  0  0  0  0  0  0  0  0  0  0
    4.3639    3.8456    5.6670 H   0  0  0  0  0  0  0  0  0  0  0  0
    1.8882    3.9940    5.6881 H   0  0  0  0  0  0  0  0  0  0  0  0
    2.9075    2.9418    3.3698 H   0  0  0  0  0  0  0  0  0  0  0  0
    1.4321    3.7815    3.3577 H   0  0  0  0  0  0  0  0  0  0  0  0
    4.8582   -1.2132    4.0399 H   0  0  0  0  0  0  0  0  0  0  0  0
    4.6788    0.5945    2.1054 H   0  0  0  0  0  0  0  0  0  0  0  0
    7.1861   -0.6808    1.6077 H   0  0  0  0  0  0  0  0  0  0  0  0
    6.7372   -0.4613    3.3411 H   0  0  0  0  0  0  0  0  0  0  0  0
    6.1945   -3.1020    2.7613 H   0  0  0  0  0  0  0  0  0  0  0  0
    3.2190   -0.1639   -2.8353 H   0  0  0  0  0  0  0  0  0  0  0  0
    3.0292   -1.8279   -4.6821 H   0  0  0  0  0  0  0  0  0  0  0  0
    3.8314   -4.1877   -4.3196 H   0  0  0  0  0  0  0  0  0  0  0  0
    4.8553   -4.7857   -2.1783 H   0  0  0  0  0  0  0  0  0  0  0  0
  1  2  1  0
  1 45  1  0
  1 46  1  0
  1 47  1  0
  2  3  1  0
  3  4  1  0
  3 30  1  0
  3 48  1  1
  4  5  1  0
  4 49  1  0
  4 50  1  0
  5 15  1  0
  5  6  1  1
  5  7  1  0
  6 51  1  0
  7 29  1  0
  7  8  1  6
  7  9  1  0
  8 52  1  0
  9 10  1  0
  9 53  1  0
  9 54  1  0
 10 19  1  0
 10 11  1  0
 10 55  1  6
 11 20  1  0
 11 12  1  0
 11 56  1  1
 12 13  1  0
 13 14  1  0
 13 57  1  0
 13 58  1  0
 15 14  1  1
 14 59  1  0
 14 60  1  0
 15 24  1  0
 15 16  1  0
 16 28  1  0
 16 17  1  0
 16 61  1  6
 17 18  1  0
 17 19  1  0
 17 62  1  1
 18 63  1  0
 19 20  1  0
 19 64  1  1
 20 21  1  0
 20 65  1  1
 21 22  1  0
 21 24  1  0
 21 66  1  1
 22 23  1  0
 23 67  1  0
 23 68  1  0
 23 69  1  0
 24 25  1  0
 24 70  1  1
 25 26  1  0
 25 28  1  0
 25 71  1  1
 26 27  1  0
 27 72  1  0
 27 73  1  0
 27 74  1  0
 28 29  1  0
 28 75  1  6
 29 76  1  0
 29 77  1  0
 30 33  1  0
 30 31  1  0
 30 78  1  1
 31 35  1  0
 31 32  1  0
 31 79  1  6
 32 33  1  0
 32 80  1  0
 32 81  1  0
 33 34  1  0
 33 82  1  1
 34 43  1  0
 34 35  1  0
 35 36  2  0
 36 37  1  0
 37 42  2  0
 37 38  1  0
 38 39  2  0
 38 83  1  0
 39 40  1  0
 39 84  1  0
 40 41  2  0
 40 85  1  0
 41 42  1  0
 41 86  1  0
 42 43  1  0
 43 44  2  0
M  END
>  <i_m_ct_stereo_status>  (247) 
1

>  <s_m_source_file>  (247) 
/var/tmp/pbs.5076255.sched01/tmp25xsusm8/82mdre8bl4.sdf

>  <i_m_source_file_index>  (247) 
37

>  <i_lp_mmshare_version>  (247) 
48012

>  <i_f3d_flags>  (247) 
0

>  <s_epik_input>  (247) 
W2NIXTFbY0hdW2NIXVtjSF1jKG4yKWMxYyg9TyluKGMyW0NAQEhdMzQpW0NAQEhdKFtDSDJdNClbQ0BASF0zW0NASF0oT1tDSDNdKVtDSDJdW0NAQF01KFtPSF0pW0NAXShbT0hdKShbQ0gyXTYpW0NIMl1bQ0BIXShbQ0BASF03W0NAQEhdOFtPSF0pW0NAQEhdKE9bQ0gyXVtDSDJdOSlbQ0BIXTdbQ0BASF0oT1tDSDNdKVtDQEBIXTFbQ0BASF0oT1tDSDNdKVtDQEBIXTZbQ0hdOEMxNTk=

>  <s_epik_cmdline>  (247) 
J2VwaWtfcHl0aG9uJywgJy1waHQnLCAnMi4wJywgJy1waCcsICc3LjAnLCAnLXRuJywgJzgnLCAnLW1hJywgJzIwMCcsICctaW1hZScsICc8aW5maWxlLm1hZT4nLCAnLW9tYWUnLCAnPG91dGZpbGUubWFlPic=

>  <r_lp_tautomer_probability>  (247) 
1

>  <r_epik_Ionization_Penalty>  (247) 
4.61428e-05

>  <r_epik_Ionization_Penalty_Charging>  (247) 
4.09573e-09

>  <r_epik_Ionization_Penalty_Neutral>  (247) 
4.61387e-05

>  <r_epik_State_Penalty>  (247) 
-0

>  <r_epik_Charging_Adjusted_Penalty>  (247) 
4.09573e-09

>  <i_epik_Tot_Q>  (247) 
0

>  <i_epik_Tot_abs_Q>  (247) 
0

>  <s_lp_Force_Field>  (247) 
OPLS3e

>  <r_lp_Energy>  (247) 
421.989

>  <b_lp_Chiralities_Consistent>  (247) 
1

>  <s_lp_Variant>  (247) 
84:0-1

>  <s_i_glide_gridfile>  (247) 
pfpi4k_grid

>  <i_i_glide_lignum>  (247) 
37

>  <i_i_glide_rotatable_bonds>  (247) 
9

>  <r_i_docking_score>  (247) 
-3.05717

>  <r_i_glide_ligand_efficiency>  (247) 
-0.069481

>  <r_i_glide_ligand_efficiency_sa>  (247) 
-0.245292

>  <r_i_glide_ligand_efficiency_ln>  (247) 
-0.639014

>  <r_i_glide_gscore>  (247) 
-3.05717

>  <r_i_glide_lipo>  (247) 
-0.669764

>  <r_i_glide_hbond>  (247) 
0

>  <r_i_glide_metal>  (247) 
-0

>  <r_i_glide_rewards>  (247) 
-0.16305

>  <r_i_glide_evdw>  (247) 
-33.2068

>  <r_i_glide_ecoul>  (247) 
-4.08993

>  <r_i_glide_erotb>  (247) 
0.0494775

>  <r_i_glide_esite>  (247) 
0

>  <r_i_glide_emodel>  (247) 
-38.1799

>  <r_i_glide_energy>  (247) 
-37.2967

>  <r_i_glide_einternal>  (247) 
7.54407

>  <r_i_glide_intrahb_reward>  (247) 
-0

>  <i_i_glide_confnum>  (247) 
2

>  <i_i_glide_posenum>  (247) 
1

>  <r_i_glide_eff_state_penalty>  (247) 
0

>  <ligand_id>  (247) 
84

>  <original_smiles>  (247) 
COC(CC1(O)C2(O)CC3C4OCCC15C1C(O)C3C4C(OC)C5C(OC)C1C2)C1C2CC1n1c2nc2ccccc2c1=O

>  <smiles>  (247) 
[H]OC1([H])C2([H])C3([H])C([H])([H])C4(O[H])C([H])([H])C5([H])C([H])(OC([H])([H])[H])C6([H])C([H])(OC([H])([H])[H])C2([H])C3([H])OC([H])([H])C([H])([H])C6(C15[H])C4(O[H])C([H])([H])C([H])(OC([H])([H])[H])C1([H])C2([H])c3nc4c([H])c([H])c([H])c([H])c4c(=O)n3C1([H])C2([H])[H]

$$$$
84:0:1
     RDKit          3D

 86 95  0  0  1  0  0  0  0  0999 V2000
    5.4435    3.8839    8.8227 C   0  0  0  0  0  0  0  0  0  0  0  0
    5.4069    3.5881    7.4354 O   0  0  0  0  0  0  0  0  0  0  0  0
    4.7584    2.3863    7.0197 C   0  0  2  0  0  0  0  0  0  0  0  0
    3.2148    2.3237    7.3294 C   0  0  0  0  0  0  0  0  0  0  0  0
    2.1637    3.3261    6.6746 C   0  0  1  0  0  0  0  0  0  0  0  0
    2.6299    4.5030    7.3075 O   0  0  0  0  0  0  0  0  0  0  0  0
    2.1476    3.2685    5.1279 C   0  0  1  0  0  0  0  0  0  0  0  0
    3.3865    3.1188    4.4933 O   0  0  0  0  0  0  0  0  0  0  0  0
    1.2100    1.9561    4.5342 C   0  0  0  0  0  0  0  0  0  0  0  0
   -0.4487    1.5486    4.7581 C   0  0  1  0  0  0  0  0  0  0  0  0
   -1.2271    0.8978    5.9634 C   0  0  1  0  0  0  0  0  0  0  0  0
   -0.6588    0.0464    6.9267 O   0  0  0  0  0  0  0  0  0  0  0  0
    0.5837    0.5148    7.3318 C   0  0  0  0  0  0  0  0  0  0  0  0
    0.4218    1.9551    7.8028 C   0  0  0  0  0  0  0  0  0  0  0  0
    0.5437    3.2561    6.8192 C   0  0  2  0  0  0  0  0  0  0  0  0
   -0.2183    4.0550    5.4316 C   0  0  1  0  0  0  0  0  0  0  0  0
   -1.6165    3.9599    4.7989 C   0  0  1  0  0  0  0  0  0  0  0  0
   -1.7823    4.4518    3.4640 O   0  0  0  0  0  0  0  0  0  0  0  0
   -1.7559    2.5072    4.8822 C   0  0  2  0  0  0  0  0  0  0  0  0
   -2.0408    2.1967    6.3739 C   0  0  2  0  0  0  0  0  0  0  0  0
   -1.8132    3.4204    7.4830 C   0  0  1  0  0  0  0  0  0  0  0  0
   -2.3212    2.9255    8.7262 O   0  0  0  0  0  0  0  0  0  0  0  0
   -2.6912    3.9038    9.6893 C   0  0  0  0  0  0  0  0  0  0  0  0
   -0.3413    4.1697    7.6166 C   0  0  2  0  0  0  0  0  0  0  0  0
   -0.0677    5.5764    6.9096 C   0  0  1  0  0  0  0  0  0  0  0  0
    0.8186    6.4676    7.5727 O   0  0  0  0  0  0  0  0  0  0  0  0
    0.2799    7.1113    8.7146 C   0  0  0  0  0  0  0  0  0  0  0  0
    0.4054    5.3517    5.4302 C   0  0  1  0  0  0  0  0  0  0  0  0
    1.8091    4.8346    4.8392 C   0  0  0  0  0  0  0  0  0  0  0  0
    5.5258    1.1220    7.5082 C   0  0  2  0  0  0  0  0  0  0  0  0
    6.5374    0.3985    6.5653 C   0  0  1  0  0  0  0  0  0  0  0  0
    6.3158   -0.7973    7.5231 C   0  0  0  0  0  0  0  0  0  0  0  0
    4.8790   -0.2857    7.3601 C   0  0  2  0  0  0  0  0  0  0  0  0
    4.6206   -0.4499    5.9432 N   0  0  0  0  0  0  0  0  0  0  0  0
    5.7516    0.0323    5.3281 C   0  0  0  0  0  0  0  0  0  0  0  0
    5.9888    0.1319    4.0621 N   0  0  0  0  0  0  0  0  0  0  0  0
    4.9470   -0.3600    3.2395 C   0  0  0  0  0  0  0  0  0  0  0  0
    5.1301   -0.3593    1.8414 C   0  0  0  0  0  0  0  0  0  0  0  0
    4.0924   -0.7896    0.9939 C   0  0  0  0  0  0  0  0  0  0  0  0
    2.8674   -1.2283    1.5269 C   0  0  0  0  0  0  0  0  0  0  0  0
    2.6768   -1.2616    2.9183 C   0  0  0  0  0  0  0  0  0  0  0  0
    3.7235   -0.8586    3.7756 C   0  0  0  0  0  0  0  0  0  0  0  0
    3.5704   -0.9518    5.2644 C   0  0  0  0  0  0  0  0  0  0  0  0
    2.5796   -1.4331    5.8088 O   0  0  0  0  0  0  0  0  0  0  0  0
    6.0554    4.7768    8.9733 H   0  0  0  0  0  0  0  0  0  0  0  0
    5.8885    3.0787    9.3986 H   0  0  0  0  0  0  0  0  0  0  0  0
    4.4454    4.0901    9.2060 H   0  0  0  0  0  0  0  0  0  0  0  0
    4.9258    2.4281    5.9593 H   0  0  0  0  0  0  0  0  0  0  0  0
    2.9450    1.3313    7.0324 H   0  0  0  0  0  0  0  0  0  0  0  0
    3.1408    2.3439    8.4137 H   0  0  0  0  0  0  0  0  0  0  0  0
    3.4942    4.6950    6.9775 H   0  0  0  0  0  0  0  0  0  0  0  0
    3.2632    3.1962    3.5646 H   0  0  0  0  0  0  0  0  0  0  0  0
    1.2929    2.0757    3.4532 H   0  0  0  0  0  0  0  0  0  0  0  0
    1.7928    1.0599    4.6849 H   0  0  0  0  0  0  0  0  0  0  0  0
   -0.6700    0.8850    3.9207 H   0  0  0  0  0  0  0  0  0  0  0  0
   -1.9593    0.2148    5.5102 H   0  0  0  0  0  0  0  0  0  0  0  0
    0.9180   -0.1163    8.1549 H   0  0  0  0  0  0  0  0  0  0  0  0
    1.2747    0.3783    6.5319 H   0  0  0  0  0  0  0  0  0  0  0  0
   -0.4106    1.8613    8.4849 H   0  0  0  0  0  0  0  0  0  0  0  0
    1.1278    2.1013    8.6100 H   0  0  0  0  0  0  0  0  0  0  0  0
    0.0402    3.8101    4.4124 H   0  0  0  0  0  0  0  0  0  0  0  0
   -2.3915    4.4987    5.3136 H   0  0  0  0  0  0  0  0  0  0  0  0
   -1.1163    4.0685    2.9038 H   0  0  0  0  0  0  0  0  0  0  0  0
   -2.5727    2.1328    4.2583 H   0  0  0  0  0  0  0  0  0  0  0  0
   -3.0725    1.8711    6.4847 H   0  0  0  0  0  0  0  0  0  0  0  0
   -2.5519    4.1879    7.2831 H   0  0  0  0  0  0  0  0  0  0  0  0
   -3.0560    3.4097   10.5911 H   0  0  0  0  0  0  0  0  0  0  0  0
   -3.4944    4.5400    9.3166 H   0  0  0  0  0  0  0  0  0  0  0  0
   -1.8530    4.5360    9.9800 H   0  0  0  0  0  0  0  0  0  0  0  0
   -0.0391    4.2250    8.6630 H   0  0  0  0  0  0  0  0  0  0  0  0
   -1.0146    6.1030    6.8607 H   0  0  0  0  0  0  0  0  0  0  0  0
    1.0445    7.7646    9.1315 H   0  0  0  0  0  0  0  0  0  0  0  0
   -0.0122    6.4007    9.4870 H   0  0  0  0  0  0  0  0  0  0  0  0
   -0.5812    7.7306    8.4597 H   0  0  0  0  0  0  0  0  0  0  0  0
   -0.0501    6.0798    4.7575 H   0  0  0  0  0  0  0  0  0  0  0  0
    2.6060    5.5118    5.1454 H   0  0  0  0  0  0  0  0  0  0  0  0
    1.7757    4.9709    3.7553 H   0  0  0  0  0  0  0  0  0  0  0  0
    5.9166    1.2634    8.5229 H   0  0  0  0  0  0  0  0  0  0  0  0
    7.5471    0.7964    6.4343 H   0  0  0  0  0  0  0  0  0  0  0  0
    6.4975   -1.7881    7.0998 H   0  0  0  0  0  0  0  0  0  0  0  0
    6.7433   -0.7040    8.5233 H   0  0  0  0  0  0  0  0  0  0  0  0
    4.1114   -0.5698    8.0790 H   0  0  0  0  0  0  0  0  0  0  0  0
    6.0691   -0.0294    1.4211 H   0  0  0  0  0  0  0  0  0  0  0  0
    4.2330   -0.7702   -0.0744 H   0  0  0  0  0  0  0  0  0  0  0  0
    2.0705   -1.5540    0.8762 H   0  0  0  0  0  0  0  0  0  0  0  0
    1.7403   -1.6020    3.3291 H   0  0  0  0  0  0  0  0  0  0  0  0
  1  2  1  0
  1 45  1  0
  1 46  1  0
  1 47  1  0
  2  3  1  0
  3  4  1  0
  3 30  1  0
  3 48  1  6
  4  5  1  0
  4 49  1  0
  4 50  1  0
  5 15  1  0
  5  6  1  6
  5  7  1  0
  6 51  1  0
  7 29  1  0
  7  8  1  6
  7  9  1  0
  8 52  1  0
  9 10  1  0
  9 53  1  0
  9 54  1  0
 10 19  1  0
 10 11  1  0
 10 55  1  6
 11 20  1  0
 11 12  1  0
 11 56  1  6
 12 13  1  0
 13 14  1  0
 13 57  1  0
 13 58  1  0
 15 14  1  6
 14 59  1  0
 14 60  1  0
 15 24  1  0
 15 16  1  0
 16 28  1  0
 16 17  1  0
 16 61  1  6
 17 18  1  0
 17 19  1  0
 17 62  1  1
 18 63  1  0
 19 20  1  0
 19 64  1  6
 20 21  1  0
 20 65  1  6
 21 22  1  0
 21 24  1  0
 21 66  1  6
 22 23  1  0
 23 67  1  0
 23 68  1  0
 23 69  1  0
 24 25  1  0
 24 70  1  1
 25 26  1  0
 25 28  1  0
 25 71  1  6
 26 27  1  0
 27 72  1  0
 27 73  1  0
 27 74  1  0
 28 29  1  0
 28 75  1  6
 29 76  1  0
 29 77  1  0
 30 33  1  0
 30 31  1  0
 30 78  1  1
 31 35  1  0
 31 32  1  0
 31 79  1  6
 32 33  1  0
 32 80  1  0
 32 81  1  0
 33 34  1  0
 33 82  1  1
 34 43  1  0
 34 35  1  0
 35 36  2  0
 36 37  1  0
 37 42  2  0
 37 38  1  0
 38 39  2  0
 38 83  1  0
 39 40  1  0
 39 84  1  0
 40 41  2  0
 40 85  1  0
 41 42  1  0
 41 86  1  0
 42 43  1  0
 43 44  2  0
M  END
>  <i_m_ct_stereo_status>  (248) 
1

>  <s_m_source_file>  (248) 
/var/tmp/pbs.5076255.sched01/tmp25xsusm8/82mdre8bl4.sdf

>  <i_m_source_file_index>  (248) 
37

>  <i_lp_mmshare_version>  (248) 
48012

>  <i_f3d_flags>  (248) 
0

>  <s_epik_input>  (248) 
W2NIXTFbY0hdW2NIXVtjSF1jKG4yKWMxYyg9TyluKGMyW0NAQEhdMzQpW0NAQEhdKFtDSDJdNClbQ0BASF0zW0NASF0oT1tDSDNdKVtDSDJdW0NAQF01KFtPSF0pW0NAXShbT0hdKShbQ0gyXTYpW0NIMl1bQ0BIXShbQ0BASF03W0NAQEhdOFtPSF0pW0NAQEhdKE9bQ0gyXVtDSDJdOSlbQ0BIXTdbQ0BASF0oT1tDSDNdKVtDQEBIXTFbQ0BASF0oT1tDSDNdKVtDQEBIXTZbQ0hdOEMxNTk=

>  <s_epik_cmdline>  (248) 
J2VwaWtfcHl0aG9uJywgJy1waHQnLCAnMi4wJywgJy1waCcsICc3LjAnLCAnLXRuJywgJzgnLCAnLW1hJywgJzIwMCcsICctaW1hZScsICc8aW5maWxlLm1hZT4nLCAnLW9tYWUnLCAnPG91dGZpbGUubWFlPic=

>  <r_lp_tautomer_probability>  (248) 
1

>  <r_epik_Ionization_Penalty>  (248) 
4.61428e-05

>  <r_epik_Ionization_Penalty_Charging>  (248) 
4.09573e-09

>  <r_epik_Ionization_Penalty_Neutral>  (248) 
4.61387e-05

>  <r_epik_State_Penalty>  (248) 
-0

>  <r_epik_Charging_Adjusted_Penalty>  (248) 
4.09573e-09

>  <i_epik_Tot_Q>  (248) 
0

>  <i_epik_Tot_abs_Q>  (248) 
0

>  <s_lp_Force_Field>  (248) 
OPLS3e

>  <r_lp_Energy>  (248) 
421.989

>  <b_lp_Chiralities_Consistent>  (248) 
1

>  <s_lp_Variant>  (248) 
84:0-1

>  <s_i_glide_gridfile>  (248) 
pfpi4k_grid

>  <i_i_glide_lignum>  (248) 
37

>  <i_i_glide_rotatable_bonds>  (248) 
9

>  <r_i_docking_score>  (248) 
-2.96851

>  <r_i_glide_ligand_efficiency>  (248) 
-0.0674661

>  <r_i_glide_ligand_efficiency_sa>  (248) 
-0.238179

>  <r_i_glide_ligand_efficiency_ln>  (248) 
-0.620483

>  <r_i_glide_gscore>  (248) 
-2.96851

>  <r_i_glide_lipo>  (248) 
-0.507009

>  <r_i_glide_hbond>  (248) 
-0.214209

>  <r_i_glide_metal>  (248) 
-0

>  <r_i_glide_rewards>  (248) 
-0.104641

>  <r_i_glide_evdw>  (248) 
-24.2602

>  <r_i_glide_ecoul>  (248) 
-6.52745

>  <r_i_glide_erotb>  (248) 
0.0494775

>  <r_i_glide_esite>  (248) 
0

>  <r_i_glide_emodel>  (248) 
-35.1464

>  <r_i_glide_energy>  (248) 
-30.7877

>  <r_i_glide_einternal>  (248) 
3.53653

>  <r_i_glide_intrahb_reward>  (248) 
-0

>  <i_i_glide_confnum>  (248) 
5

>  <i_i_glide_posenum>  (248) 
23

>  <r_i_glide_eff_state_penalty>  (248) 
0

>  <ligand_id>  (248) 
84

>  <original_smiles>  (248) 
COC(CC1(O)C2(O)CC3C4OCCC15C1C(O)C3C4C(OC)C5C(OC)C1C2)C1C2CC1n1c2nc2ccccc2c1=O

>  <smiles>  (248) 
[H]OC1([H])C2([H])C3([H])C([H])([H])C4(O[H])C([H])([H])C5([H])C([H])(OC([H])([H])[H])C6([H])C([H])(OC([H])([H])[H])C2([H])C3([H])OC([H])([H])C([H])([H])C6(C15[H])C4(O[H])C([H])([H])C([H])(OC([H])([H])[H])C1([H])C2([H])c3nc4c([H])c([H])c([H])c([H])c4c(=O)n3C1([H])C2([H])[H]

$$$$
84:0:2
     RDKit          3D

 86 95  0  0  1  0  0  0  0  0999 V2000
    3.5362   -4.3555    2.3250 C   0  0  0  0  0  0  0  0  0  0  0  0
    2.8466   -3.1087    2.0656 O   0  0  0  0  0  0  0  0  0  0  0  0
    3.0657   -2.0546    3.0215 C   0  0  2  0  0  0  0  0  0  0  0  0
    1.9871   -0.8902    2.8120 C   0  0  0  0  0  0  0  0  0  0  0  0
    1.8891    0.4068    3.7718 C   0  0  1  0  0  0  0  0  0  0  0  0
    3.2590    0.6623    3.8668 O   0  0  0  0  0  0  0  0  0  0  0  0
    1.0379    1.5332    3.1319 C   0  0  1  0  0  0  0  0  0  0  0  0
    1.1492    1.6184    1.7247 O   0  0  0  0  0  0  0  0  0  0  0  0
   -0.6426    1.3201    3.4073 C   0  0  0  0  0  0  0  0  0  0  0  0
   -1.5272    1.1817    4.8757 C   0  0  1  0  0  0  0  0  0  0  0  0
   -1.7067   -0.0089    5.8816 C   0  0  1  0  0  0  0  0  0  0  0  0
   -1.6096   -1.3618    5.5139 O   0  0  0  0  0  0  0  0  0  0  0  0
   -0.5226   -1.5876    4.6728 C   0  0  0  0  0  0  0  0  0  0  0  0
    0.7053   -1.0004    5.3765 C   0  0  0  0  0  0  0  0  0  0  0  0
    1.2187    0.5438    5.2304 C   0  0  2  0  0  0  0  0  0  0  0  0
    0.7680    2.2304    5.5262 C   0  0  1  0  0  0  0  0  0  0  0  0
   -0.2070    2.8721    6.5166 C   0  0  1  0  0  0  0  0  0  0  0  0
   -0.6424    4.2080    6.2258 O   0  0  0  0  0  0  0  0  0  0  0  0
   -1.3006    1.9094    6.3161 C   0  0  2  0  0  0  0  0  0  0  0  0
   -0.8841    0.6363    7.0813 C   0  0  2  0  0  0  0  0  0  0  0  0
    0.7018    0.5328    7.6092 C   0  0  1  0  0  0  0  0  0  0  0  0
    0.8491   -0.6462    8.4119 O   0  0  0  0  0  0  0  0  0  0  0  0
    0.4489   -0.5355    9.7742 C   0  0  0  0  0  0  0  0  0  0  0  0
    1.9447    0.6653    6.5315 C   0  0  2  0  0  0  0  0  0  0  0  0
    2.7249    2.0497    6.3553 C   0  0  1  0  0  0  0  0  0  0  0  0
    4.1225    1.8989    6.1052 O   0  0  0  0  0  0  0  0  0  0  0  0
    4.8753    3.1069    6.1801 C   0  0  0  0  0  0  0  0  0  0  0  0
    1.9924    2.9459    5.2736 C   0  0  1  0  0  0  0  0  0  0  0  0
    1.8840    2.8268    3.6614 C   0  0  0  0  0  0  0  0  0  0  0  0
    4.5498   -1.5662    2.9610 C   0  0  2  0  0  0  0  0  0  0  0  0
    5.0228   -0.4936    1.9426 C   0  0  1  0  0  0  0  0  0  0  0  0
    6.4156   -0.9526    2.2927 C   0  0  0  0  0  0  0  0  0  0  0  0
    5.7094   -2.2685    2.2357 C   0  0  2  0  0  0  0  0  0  0  0  0
    5.2920   -2.3408    0.8400 N   0  0  0  0  0  0  0  0  0  0  0  0
    4.7901   -1.0916    0.5925 C   0  0  0  0  0  0  0  0  0  0  0  0
    4.2266   -0.6619   -0.4678 N   0  0  0  0  0  0  0  0  0  0  0  0
    4.1437   -1.5703   -1.5185 C   0  0  0  0  0  0  0  0  0  0  0  0
    3.5598   -1.1715   -2.7439 C   0  0  0  0  0  0  0  0  0  0  0  0
    3.4376   -2.0930   -3.8048 C   0  0  0  0  0  0  0  0  0  0  0  0
    3.8845   -3.4334   -3.6307 C   0  0  0  0  0  0  0  0  0  0  0  0
    4.4857   -3.8926   -2.4171 C   0  0  0  0  0  0  0  0  0  0  0  0
    4.6243   -2.9328   -1.3729 C   0  0  0  0  0  0  0  0  0  0  0  0
    5.2474   -3.3256   -0.0638 C   0  0  0  0  0  0  0  0  0  0  0  0
    5.6788   -4.4694    0.1979 O   0  0  0  0  0  0  0  0  0  0  0  0
    3.1755   -5.0710    1.5600 H   0  0  0  0  0  0  0  0  0  0  0  0
    3.2112   -4.7567    3.2941 H   0  0  0  0  0  0  0  0  0  0  0  0
    4.5747   -4.2646    2.2440 H   0  0  0  0  0  0  0  0  0  0  0  0
    2.9008   -2.5413    3.9799 H   0  0  0  0  0  0  0  0  0  0  0  0
    2.2429   -0.5053    1.8254 H   0  0  0  0  0  0  0  0  0  0  0  0
    1.0290   -1.3248    2.5989 H   0  0  0  0  0  0  0  0  0  0  0  0
    3.6675   -0.0742    4.3107 H   0  0  0  0  0  0  0  0  0  0  0  0
    0.6983    2.3992    1.4358 H   0  0  0  0  0  0  0  0  0  0  0  0
   -1.0647    2.2059    2.9320 H   0  0  0  0  0  0  0  0  0  0  0  0
   -0.9827    0.5476    2.7249 H   0  0  0  0  0  0  0  0  0  0  0  0
   -2.5445    1.4440    4.5906 H   0  0  0  0  0  0  0  0  0  0  0  0
   -2.7511    0.0311    6.1914 H   0  0  0  0  0  0  0  0  0  0  0  0
   -0.4022   -2.6693    4.5936 H   0  0  0  0  0  0  0  0  0  0  0  0
   -0.7247   -1.2454    3.6634 H   0  0  0  0  0  0  0  0  0  0  0  0
    0.6262   -1.4392    6.3593 H   0  0  0  0  0  0  0  0  0  0  0  0
    1.5400   -1.6167    5.0964 H   0  0  0  0  0  0  0  0  0  0  0  0
    0.1574    2.7954    4.8337 H   0  0  0  0  0  0  0  0  0  0  0  0
    0.1504    2.9521    7.5341 H   0  0  0  0  0  0  0  0  0  0  0  0
   -0.8436    4.2454    5.3122 H   0  0  0  0  0  0  0  0  0  0  0  0
   -2.2394    2.2779    6.7139 H   0  0  0  0  0  0  0  0  0  0  0  0
   -1.5257    0.5789    7.9541 H   0  0  0  0  0  0  0  0  0  0  0  0
    0.9086    1.3029    8.3454 H   0  0  0  0  0  0  0  0  0  0  0  0
    0.5546   -1.5013   10.2714 H   0  0  0  0  0  0  0  0  0  0  0  0
   -0.5882   -0.2240    9.8888 H   0  0  0  0  0  0  0  0  0  0  0  0
    1.0782    0.1748   10.3071 H   0  0  0  0  0  0  0  0  0  0  0  0
    2.6637   -0.1300    6.6988 H   0  0  0  0  0  0  0  0  0  0  0  0
    2.6650    2.5583    7.3168 H   0  0  0  0  0  0  0  0  0  0  0  0
    5.8972    2.9187    5.8505 H   0  0  0  0  0  0  0  0  0  0  0  0
    4.9183    3.4521    7.2122 H   0  0  0  0  0  0  0  0  0  0  0  0
    4.4787    3.9129    5.5563 H   0  0  0  0  0  0  0  0  0  0  0  0
    1.9762    3.9919    5.5777 H   0  0  0  0  0  0  0  0  0  0  0  0
    2.8794    2.9001    3.2211 H   0  0  0  0  0  0  0  0  0  0  0  0
    1.4039    3.7317    3.2780 H   0  0  0  0  0  0  0  0  0  0  0  0
    4.8723   -1.3024    3.9779 H   0  0  0  0  0  0  0  0  0  0  0  0
    4.7157    0.5433    2.0728 H   0  0  0  0  0  0  0  0  0  0  0  0
    7.1904   -0.7658    1.5364 H   0  0  0  0  0  0  0  0  0  0  0  0
    6.7685   -0.5691    3.2802 H   0  0  0  0  0  0  0  0  0  0  0  0
    6.1738   -3.1889    2.6839 H   0  0  0  0  0  0  0  0  0  0  0  0
    3.2085   -0.1546   -2.8649 H   0  0  0  0  0  0  0  0  0  0  0  0
    2.9954   -1.7913   -4.7221 H   0  0  0  0  0  0  0  0  0  0  0  0
    3.7686   -4.1597   -4.4155 H   0  0  0  0  0  0  0  0  0  0  0  0
    4.7982   -4.8593   -2.2656 H   0  0  0  0  0  0  0  0  0  0  0  0
  1  2  1  0
  1 45  1  0
  1 46  1  0
  1 47  1  0
  2  3  1  0
  3  4  1  0
  3 30  1  0
  3 48  1  1
  4  5  1  0
  4 49  1  0
  4 50  1  0
  5 15  1  0
  5  6  1  1
  5  7  1  0
  6 51  1  0
  7 29  1  0
  7  8  1  6
  7  9  1  0
  8 52  1  0
  9 10  1  0
  9 53  1  0
  9 54  1  0
 10 19  1  0
 10 11  1  0
 10 55  1  6
 11 20  1  0
 11 12  1  0
 11 56  1  1
 12 13  1  0
 13 14  1  0
 13 57  1  0
 13 58  1  0
 15 14  1  1
 14 59  1  0
 14 60  1  0
 15 24  1  0
 15 16  1  0
 16 28  1  0
 16 17  1  0
 16 61  1  6
 17 18  1  0
 17 19  1  0
 17 62  1  1
 18 63  1  0
 19 20  1  0
 19 64  1  1
 20 21  1  0
 20 65  1  1
 21 22  1  0
 21 24  1  0
 21 66  1  1
 22 23  1  0
 23 67  1  0
 23 68  1  0
 23 69  1  0
 24 25  1  0
 24 70  1  1
 25 26  1  0
 25 28  1  0
 25 71  1  1
 26 27  1  0
 27 72  1  0
 27 73  1  0
 27 74  1  0
 28 29  1  0
 28 75  1  6
 29 76  1  0
 29 77  1  0
 30 33  1  0
 30 31  1  0
 30 78  1  1
 31 35  1  0
 31 32  1  0
 31 79  1  6
 32 33  1  0
 32 80  1  0
 32 81  1  0
 33 34  1  0
 33 82  1  1
 34 43  1  0
 34 35  1  0
 35 36  2  0
 36 37  1  0
 37 42  2  0
 37 38  1  0
 38 39  2  0
 38 83  1  0
 39 40  1  0
 39 84  1  0
 40 41  2  0
 40 85  1  0
 41 42  1  0
 41 86  1  0
 42 43  1  0
 43 44  2  0
M  END
>  <i_m_ct_stereo_status>  (249) 
1

>  <s_m_source_file>  (249) 
/var/tmp/pbs.5076255.sched01/tmp25xsusm8/82mdre8bl4.sdf

>  <i_m_source_file_index>  (249) 
37

>  <i_lp_mmshare_version>  (249) 
48012

>  <i_f3d_flags>  (249) 
0

>  <s_epik_input>  (249) 
W2NIXTFbY0hdW2NIXVtjSF1jKG4yKWMxYyg9TyluKGMyW0NAQEhdMzQpW0NAQEhdKFtDSDJdNClbQ0BASF0zW0NASF0oT1tDSDNdKVtDSDJdW0NAQF01KFtPSF0pW0NAXShbT0hdKShbQ0gyXTYpW0NIMl1bQ0BIXShbQ0BASF03W0NAQEhdOFtPSF0pW0NAQEhdKE9bQ0gyXVtDSDJdOSlbQ0BIXTdbQ0BASF0oT1tDSDNdKVtDQEBIXTFbQ0BASF0oT1tDSDNdKVtDQEBIXTZbQ0hdOEMxNTk=

>  <s_epik_cmdline>  (249) 
J2VwaWtfcHl0aG9uJywgJy1waHQnLCAnMi4wJywgJy1waCcsICc3LjAnLCAnLXRuJywgJzgnLCAnLW1hJywgJzIwMCcsICctaW1hZScsICc8aW5maWxlLm1hZT4nLCAnLW9tYWUnLCAnPG91dGZpbGUubWFlPic=

>  <r_lp_tautomer_probability>  (249) 
1

>  <r_epik_Ionization_Penalty>  (249) 
4.61428e-05

>  <r_epik_Ionization_Penalty_Charging>  (249) 
4.09573e-09

>  <r_epik_Ionization_Penalty_Neutral>  (249) 
4.61387e-05

>  <r_epik_State_Penalty>  (249) 
-0

>  <r_epik_Charging_Adjusted_Penalty>  (249) 
4.09573e-09

>  <i_epik_Tot_Q>  (249) 
0

>  <i_epik_Tot_abs_Q>  (249) 
0

>  <s_lp_Force_Field>  (249) 
OPLS3e

>  <r_lp_Energy>  (249) 
421.989

>  <b_lp_Chiralities_Consistent>  (249) 
1

>  <s_lp_Variant>  (249) 
84:0-1

>  <s_i_glide_gridfile>  (249) 
pfpi4k_grid

>  <i_i_glide_lignum>  (249) 
37

>  <i_i_glide_rotatable_bonds>  (249) 
9

>  <r_i_docking_score>  (249) 
-2.66367

>  <r_i_glide_ligand_efficiency>  (249) 
-0.060538

>  <r_i_glide_ligand_efficiency_sa>  (249) 
-0.21372

>  <r_i_glide_ligand_efficiency_ln>  (249) 
-0.556765

>  <r_i_glide_gscore>  (249) 
-2.66367

>  <r_i_glide_lipo>  (249) 
-0.663345

>  <r_i_glide_hbond>  (249) 
0

>  <r_i_glide_metal>  (249) 
-0

>  <r_i_glide_rewards>  (249) 
-0.143219

>  <r_i_glide_evdw>  (249) 
-32.9435

>  <r_i_glide_ecoul>  (249) 
-1.7294

>  <r_i_glide_erotb>  (249) 
0.0494775

>  <r_i_glide_esite>  (249) 
0

>  <r_i_glide_emodel>  (249) 
-34.4569

>  <r_i_glide_energy>  (249) 
-34.6729

>  <r_i_glide_einternal>  (249) 
8.12333

>  <r_i_glide_intrahb_reward>  (249) 
-0

>  <i_i_glide_confnum>  (249) 
2

>  <i_i_glide_posenum>  (249) 
12

>  <r_i_glide_eff_state_penalty>  (249) 
0

>  <ligand_id>  (249) 
84

>  <original_smiles>  (249) 
COC(CC1(O)C2(O)CC3C4OCCC15C1C(O)C3C4C(OC)C5C(OC)C1C2)C1C2CC1n1c2nc2ccccc2c1=O

>  <smiles>  (249) 
[H]OC1([H])C2([H])C3([H])C([H])([H])C4(O[H])C([H])([H])C5([H])C([H])(OC([H])([H])[H])C6([H])C([H])(OC([H])([H])[H])C2([H])C3([H])OC([H])([H])C([H])([H])C6(C15[H])C4(O[H])C([H])([H])C([H])(OC([H])([H])[H])C1([H])C2([H])c3nc4c([H])c([H])c([H])c([H])c4c(=O)n3C1([H])C2([H])[H]

$$$$
85:0:0
     RDKit          3D

 72 77  0  0  1  0  0  0  0  0999 V2000
    3.8816   -0.2266    1.3223 C   0  0  0  0  0  0  0  0  0  0  0  0
    4.0699   -1.7646    1.2466 C   0  0  2  0  0  0  0  0  0  0  0  0
    4.9599   -2.3348    2.3970 C   0  0  1  0  0  0  0  0  0  0  0  0
    4.9916   -1.4486    3.5025 O   0  0  0  0  0  0  0  0  0  0  0  0
    4.4893   -3.7142    2.9368 C   0  0  1  0  0  0  0  0  0  0  0  0
    3.1492   -3.5432    3.3719 O   0  0  0  0  0  0  0  0  0  0  0  0
    4.7041   -4.9729    2.0092 C   0  0  2  0  0  0  0  0  0  0  0  0
    6.2458   -5.1506    1.8562 C   0  0  0  0  0  0  0  0  0  0  0  0
    4.1225   -4.8174    0.5522 C   0  0  1  0  0  0  0  0  0  0  0  0
    2.5773   -4.8820    0.4894 C   0  0  0  0  0  0  0  0  0  0  0  0
    1.9148   -5.8423    1.5007 C   0  0  0  0  0  0  0  0  0  0  0  0
    2.8800   -6.9335    2.0068 C   0  0  1  0  0  0  0  0  0  0  0  0
    4.0876   -6.2722    2.7329 C   0  0  1  0  0  0  0  0  0  0  0  0
    5.0785   -7.3953    3.1328 C   0  0  0  0  0  0  0  0  0  0  0  0
    4.4099   -8.4886    3.9814 C   0  0  0  0  0  0  0  0  0  0  0  0
    3.1868   -9.1127    3.2782 C   0  0  1  0  0  0  0  0  0  0  0  0
    2.5410  -10.3190    4.0681 C   0  0  0  0  0  0  0  0  0  0  0  0
    3.5206  -11.5261    4.0406 C   0  0  0  0  0  0  0  0  0  0  0  0
    2.2295   -9.9929    5.5511 C   0  0  0  0  0  0  0  0  0  0  0  0
    1.2549  -10.7386    3.3247 C   0  0  1  0  0  0  0  0  0  0  0  0
    0.6748  -11.8910    3.8899 O   0  0  0  0  0  0  0  0  0  0  0  0
    0.1639   -9.6511    3.2307 C   0  0  0  0  0  0  0  0  0  0  0  0
    0.7080   -8.3010    2.8509 C   0  0  1  0  0  0  0  0  0  0  0  0
    1.3495   -7.5391    3.9152 O   0  0  0  0  0  0  0  0  0  0  0  0
    2.1996   -8.0174    2.8699 C   0  0  2  0  0  0  0  0  0  0  0  0
    4.7641   -3.7341   -0.3963 C   0  0  1  0  0  0  0  0  0  0  0  0
    4.2053   -3.8567   -1.7365 N   0  0  0  0  0  0  0  0  0  0  0  0
    3.5099   -2.7980   -2.1334 C   0  0  0  0  0  0  0  0  0  0  0  0
    2.8700   -2.7049   -3.1804 O   0  0  0  0  0  0  0  0  0  0  0  0
    3.5710   -1.8946   -1.1830 N   0  0  0  0  0  0  0  0  0  0  0  0
    4.5604   -2.2064   -0.1546 C   0  0  1  0  0  0  0  0  0  0  0  0
    5.8654   -1.4722   -0.5678 C   0  0  0  0  0  0  0  0  0  0  0  0
    4.8331    0.3011    1.3274 H   0  0  0  0  0  0  0  0  0  0  0  0
    3.3383    0.0611    2.2286 H   0  0  0  0  0  0  0  0  0  0  0  0
    3.2940    0.1391    0.4782 H   0  0  0  0  0  0  0  0  0  0  0  0
    3.0612   -2.1388    1.3572 H   0  0  0  0  0  0  0  0  0  0  0  0
    5.9943   -2.3951    2.0790 H   0  0  0  0  0  0  0  0  0  0  0  0
    4.1116   -1.3678    3.8244 H   0  0  0  0  0  0  0  0  0  0  0  0
    5.0573   -3.9066    3.8489 H   0  0  0  0  0  0  0  0  0  0  0  0
    2.6130   -3.3721    2.6197 H   0  0  0  0  0  0  0  0  0  0  0  0
    6.4857   -6.0259    1.2421 H   0  0  0  0  0  0  0  0  0  0  0  0
    6.7476   -5.2589    2.8202 H   0  0  0  0  0  0  0  0  0  0  0  0
    6.7353   -4.3020    1.3811 H   0  0  0  0  0  0  0  0  0  0  0  0
    4.4157   -5.7526    0.0698 H   0  0  0  0  0  0  0  0  0  0  0  0
    2.1257   -3.8975    0.5400 H   0  0  0  0  0  0  0  0  0  0  0  0
    2.3051   -5.2602   -0.4989 H   0  0  0  0  0  0  0  0  0  0  0  0
    1.5445   -5.2693    2.3581 H   0  0  0  0  0  0  0  0  0  0  0  0
    1.0375   -6.2752    1.0196 H   0  0  0  0  0  0  0  0  0  0  0  0
    3.2505   -7.4555    1.1184 H   0  0  0  0  0  0  0  0  0  0  0  0
    3.6890   -5.9319    3.6920 H   0  0  0  0  0  0  0  0  0  0  0  0
    5.5041   -7.8617    2.2452 H   0  0  0  0  0  0  0  0  0  0  0  0
    5.8998   -7.0093    3.7251 H   0  0  0  0  0  0  0  0  0  0  0  0
    5.1508   -9.2547    4.1974 H   0  0  0  0  0  0  0  0  0  0  0  0
    4.1096   -8.0541    4.9382 H   0  0  0  0  0  0  0  0  0  0  0  0
    3.5586   -9.5304    2.3370 H   0  0  0  0  0  0  0  0  0  0  0  0
    3.0901  -12.4022    4.5299 H   0  0  0  0  0  0  0  0  0  0  0  0
    4.4542  -11.3134    4.5641 H   0  0  0  0  0  0  0  0  0  0  0  0
    3.7640  -11.8142    3.0125 H   0  0  0  0  0  0  0  0  0  0  0  0
    1.7451  -10.8382    6.0353 H   0  0  0  0  0  0  0  0  0  0  0  0
    1.5399   -9.1535    5.6639 H   0  0  0  0  0  0  0  0  0  0  0  0
    3.1262   -9.7743    6.1265 H   0  0  0  0  0  0  0  0  0  0  0  0
    1.5462  -10.9689    2.3112 H   0  0  0  0  0  0  0  0  0  0  0  0
    1.2286  -12.6361    3.7338 H   0  0  0  0  0  0  0  0  0  0  0  0
   -0.5606   -9.9528    2.4710 H   0  0  0  0  0  0  0  0  0  0  0  0
   -0.3956   -9.5620    4.1616 H   0  0  0  0  0  0  0  0  0  0  0  0
    0.0208   -7.6822    2.2757 H   0  0  0  0  0  0  0  0  0  0  0  0
    5.8227   -3.9656   -0.5157 H   0  0  0  0  0  0  0  0  0  0  0  0
    4.1291   -4.7295   -2.2422 H   0  0  0  0  0  0  0  0  0  0  0  0
    2.9127   -1.1213   -1.1295 H   0  0  0  0  0  0  0  0  0  0  0  0
    6.6867   -1.6316    0.1384 H   0  0  0  0  0  0  0  0  0  0  0  0
    5.7073   -0.3953   -0.6704 H   0  0  0  0  0  0  0  0  0  0  0  0
    6.2128   -1.8251   -1.5442 H   0  0  0  0  0  0  0  0  0  0  0  0
  1  2  1  0
  1 33  1  0
  1 34  1  0
  1 35  1  0
  2 31  1  0
  2  3  1  0
  2 36  1  1
  3  4  1  0
  3  5  1  0
  3 37  1  6
  4 38  1  0
  5  6  1  0
  5  7  1  0
  5 39  1  1
  6 40  1  0
  7 13  1  0
  7  8  1  6
  7  9  1  0
  8 41  1  0
  8 42  1  0
  8 43  1  0
  9 10  1  0
  9 26  1  0
  9 44  1  6
 10 11  1  0
 10 45  1  0
 10 46  1  0
 11 12  1  0
 11 47  1  0
 11 48  1  0
 12 25  1  0
 12 13  1  0
 12 49  1  6
 13 14  1  0
 13 50  1  1
 14 15  1  0
 14 51  1  0
 14 52  1  0
 15 16  1  0
 15 53  1  0
 15 54  1  0
 16 25  1  0
 16 17  1  0
 16 55  1  6
 17 18  1  0
 17 19  1  0
 17 20  1  0
 18 56  1  0
 18 57  1  0
 18 58  1  0
 19 59  1  0
 19 60  1  0
 19 61  1  0
 20 21  1  0
 20 22  1  0
 20 62  1  6
 21 63  1  0
 22 23  1  0
 22 64  1  0
 22 65  1  0
 23 25  1  0
 23 24  1  0
 23 66  1  6
 25 24  1  1
 26 31  1  0
 26 27  1  0
 26 67  1  6
 27 28  1  0
 27 68  1  0
 28 29  2  0
 28 30  1  0
 30 31  1  0
 30 69  1  0
 31 32  1  6
 32 70  1  0
 32 71  1  0
 32 72  1  0
M  END
>  <i_m_ct_stereo_status>  (250) 
1

>  <s_m_source_file>  (250) 
/var/tmp/pbs.5076255.sched01/tmp25xsusm8/82mdre8bl4.sdf

>  <i_m_source_file_index>  (250) 
38

>  <i_lp_mmshare_version>  (250) 
48012

>  <i_f3d_flags>  (250) 
0

>  <s_epik_input>  (250) 
W09IXVtDQEBIXTFbQ0BIXShbT0hdKVtDQEBIXShbQ0gzXSlbQ0BdKFtDSDNdKShbTkhdQyg9TylbTkhdMilbQ0BIXTJbQ0BIXShbQ0gyXVtDSDJdMylbQ0BdMShbQ0gzXSlbQ0BASF0oW0NASF0zW0NAXTQ1NilbQ0gyXVtDSDJdW0NASF00QyhbQ0gzXSkoW0NIM10pW0NAQEhdKFtPSF0pW0NIMl1bQ0BIXTVPNg==

>  <s_epik_cmdline>  (250) 
J2VwaWtfcHl0aG9uJywgJy1waHQnLCAnMi4wJywgJy1waCcsICc3LjAnLCAnLXRuJywgJzgnLCAnLW1hJywgJzIwMCcsICctaW1hZScsICc8aW5maWxlLm1hZT4nLCAnLW9tYWUnLCAnPG91dGZpbGUubWFlPic=

>  <r_lp_tautomer_probability>  (250) 
1

>  <r_epik_Ionization_Penalty>  (250) 
7.33226e-05

>  <r_epik_Ionization_Penalty_Charging>  (250) 
0

>  <r_epik_Ionization_Penalty_Neutral>  (250) 
7.33226e-05

>  <r_epik_State_Penalty>  (250) 
-0

>  <r_epik_Charging_Adjusted_Penalty>  (250) 
0

>  <i_epik_Tot_Q>  (250) 
0

>  <i_epik_Tot_abs_Q>  (250) 
0

>  <s_lp_Force_Field>  (250) 
OPLS3e

>  <r_lp_Energy>  (250) 
63.9839

>  <b_lp_Chiralities_Consistent>  (250) 
1

>  <s_lp_Variant>  (250) 
85:0-1

>  <s_i_glide_gridfile>  (250) 
pfpi4k_grid

>  <i_i_glide_lignum>  (250) 
38

>  <i_i_glide_rotatable_bonds>  (250) 
3

>  <r_i_docking_score>  (250) 
-4.25914

>  <r_i_glide_ligand_efficiency>  (250) 
-0.133098

>  <r_i_glide_ligand_efficiency_sa>  (250) 
-0.422561

>  <r_i_glide_ligand_efficiency_ln>  (250) 
-0.953738

>  <r_i_glide_gscore>  (250) 
-4.25914

>  <r_i_glide_lipo>  (250) 
-0.44353

>  <r_i_glide_hbond>  (250) 
-0.609614

>  <r_i_glide_metal>  (250) 
-0

>  <r_i_glide_rewards>  (250) 
-0.350485

>  <r_i_glide_evdw>  (250) 
-34.8454

>  <r_i_glide_ecoul>  (250) 
-6.50123

>  <r_i_glide_erotb>  (250) 
0

>  <r_i_glide_esite>  (250) 
-0.138062

>  <r_i_glide_emodel>  (250) 
-50.9751

>  <r_i_glide_energy>  (250) 
-41.3466

>  <r_i_glide_einternal>  (250) 
0.418576

>  <r_i_glide_intrahb_reward>  (250) 
-0

>  <i_i_glide_confnum>  (250) 
2

>  <i_i_glide_posenum>  (250) 
17

>  <r_i_glide_eff_state_penalty>  (250) 
0

>  <ligand_id>  (250) 
85

>  <original_smiles>  (250) 
CC1C(O)C(O)C2(C)C(CCC3C2CCC2C(C)(C)C(O)CC4OC432)C2NC(=O)NC12C

>  <smiles>  (250) 
[H]OC1([H])C([H])(O[H])C2(C([H])([H])[H])C([H])(C([H])([H])C([H])([H])C3([H])C2([H])C([H])([H])C([H])([H])C2([H])C34OC4([H])C([H])([H])C([H])(O[H])C2(C([H])([H])[H])C([H])([H])[H])C2([H])N([H])C(=O)N([H])C2(C([H])([H])[H])C1([H])C([H])([H])[H]

$$$$
85:0:1
     RDKit          3D

 72 77  0  0  1  0  0  0  0  0999 V2000
    3.7314   -0.2006    1.3483 C   0  0  0  0  0  0  0  0  0  0  0  0
    3.9484   -1.7341    1.2895 C   0  0  2  0  0  0  0  0  0  0  0  0
    4.8176   -2.2820    2.4633 C   0  0  1  0  0  0  0  0  0  0  0  0
    4.8192   -1.4156    3.5893 O   0  0  0  0  0  0  0  0  0  0  0  0
    4.3654   -3.6713    2.9827 C   0  0  1  0  0  0  0  0  0  0  0  0
    3.0001   -3.5406    3.3488 O   0  0  0  0  0  0  0  0  0  0  0  0
    4.6321   -4.9280    2.0690 C   0  0  2  0  0  0  0  0  0  0  0  0
    6.1781   -5.0682    1.9542 C   0  0  0  0  0  0  0  0  0  0  0  0
    4.0763   -4.7906    0.6035 C   0  0  1  0  0  0  0  0  0  0  0  0
    2.5323   -4.8811    0.5056 C   0  0  0  0  0  0  0  0  0  0  0  0
    1.8665   -5.8507    1.4981 C   0  0  0  0  0  0  0  0  0  0  0  0
    2.8439   -6.9207    2.0274 C   0  0  1  0  0  0  0  0  0  0  0  0
    4.0191   -6.2319    2.7806 C   0  0  1  0  0  0  0  0  0  0  0  0
    5.0200   -7.3373    3.2066 C   0  0  0  0  0  0  0  0  0  0  0  0
    4.3524   -8.4412    4.0404 C   0  0  0  0  0  0  0  0  0  0  0  0
    3.1605   -9.0889    3.3091 C   0  0  1  0  0  0  0  0  0  0  0  0
    2.5177  -10.3048    4.0832 C   0  0  0  0  0  0  0  0  0  0  0  0
    3.5161  -11.4922    4.0825 C   0  0  0  0  0  0  0  0  0  0  0  0
    2.1684   -9.9864    5.5603 C   0  0  0  0  0  0  0  0  0  0  0  0
    1.2501  -10.7511    3.3123 C   0  0  1  0  0  0  0  0  0  0  0  0
    0.6486  -11.9084    3.8564 O   0  0  0  0  0  0  0  0  0  0  0  0
    0.1461   -9.6821    3.1919 C   0  0  0  0  0  0  0  0  0  0  0  0
    0.6764   -8.3232    2.8251 C   0  0  1  0  0  0  0  0  0  0  0  0
    1.2773   -7.5520    3.9001 O   0  0  0  0  0  0  0  0  0  0  0  0
    2.1613   -8.0142    2.8762 C   0  0  2  0  0  0  0  0  0  0  0  0
    4.7150   -3.7031   -0.3368 C   0  0  1  0  0  0  0  0  0  0  0  0
    4.1768   -3.8470   -1.6846 N   0  0  0  0  0  0  0  0  0  0  0  0
    3.4873   -2.8064   -2.1037 C   0  0  0  0  0  0  0  0  0  0  0  0
    2.8675   -2.7198   -3.1739 O   0  0  0  0  0  0  0  0  0  0  0  0
    3.5048   -1.8909   -1.1499 N   0  0  0  0  0  0  0  0  0  0  0  0
    4.4804   -2.1774   -0.1006 C   0  0  1  0  0  0  0  0  0  0  0  0
    5.7779   -1.4090   -0.4829 C   0  0  0  0  0  0  0  0  0  0  0  0
    4.6648    0.3535    1.3812 H   0  0  0  0  0  0  0  0  0  0  0  0
    3.1488    0.0894    2.2297 H   0  0  0  0  0  0  0  0  0  0  0  0
    3.1686    0.1420    0.4813 H   0  0  0  0  0  0  0  0  0  0  0  0
    2.9407   -2.1215    1.3774 H   0  0  0  0  0  0  0  0  0  0  0  0
    5.8579   -2.3190    2.1659 H   0  0  0  0  0  0  0  0  0  0  0  0
    3.9353   -1.2023    3.8095 H   0  0  0  0  0  0  0  0  0  0  0  0
    4.9056   -3.8496    3.9146 H   0  0  0  0  0  0  0  0  0  0  0  0
    2.9367   -2.9225    4.0483 H   0  0  0  0  0  0  0  0  0  0  0  0
    6.4453   -5.9390    1.3460 H   0  0  0  0  0  0  0  0  0  0  0  0
    6.6549   -5.1644    2.9295 H   0  0  0  0  0  0  0  0  0  0  0  0
    6.6560   -4.2095    1.4889 H   0  0  0  0  0  0  0  0  0  0  0  0
    4.3985   -5.7203    0.1321 H   0  0  0  0  0  0  0  0  0  0  0  0
    2.0702   -3.9041    0.5525 H   0  0  0  0  0  0  0  0  0  0  0  0
    2.2894   -5.2593   -0.4918 H   0  0  0  0  0  0  0  0  0  0  0  0
    1.4691   -5.2819    2.3419 H   0  0  0  0  0  0  0  0  0  0  0  0
    1.0106   -6.2977    0.9968 H   0  0  0  0  0  0  0  0  0  0  0  0
    3.2428   -7.4363    1.1519 H   0  0  0  0  0  0  0  0  0  0  0  0
    3.5899   -5.8988    3.7295 H   0  0  0  0  0  0  0  0  0  0  0  0
    5.4771   -7.7933    2.3280 H   0  0  0  0  0  0  0  0  0  0  0  0
    5.8231   -6.9314    3.8167 H   0  0  0  0  0  0  0  0  0  0  0  0
    5.1049   -9.1899    4.2732 H   0  0  0  0  0  0  0  0  0  0  0  0
    4.0230   -8.0077    4.9871 H   0  0  0  0  0  0  0  0  0  0  0  0
    3.5616   -9.4988    2.3787 H   0  0  0  0  0  0  0  0  0  0  0  0
    3.0914  -12.3756    4.5642 H   0  0  0  0  0  0  0  0  0  0  0  0
    4.4346  -11.2593    4.6279 H   0  0  0  0  0  0  0  0  0  0  0  0
    3.7931  -11.7766    3.0610 H   0  0  0  0  0  0  0  0  0  0  0  0
    1.6908  -10.8392    6.0331 H   0  0  0  0  0  0  0  0  0  0  0  0
    1.4614   -9.1571    5.6589 H   0  0  0  0  0  0  0  0  0  0  0  0
    3.0494   -9.7495    6.1529 H   0  0  0  0  0  0  0  0  0  0  0  0
    1.5759  -10.9954    2.3101 H   0  0  0  0  0  0  0  0  0  0  0  0
    1.2194  -12.6507    3.7254 H   0  0  0  0  0  0  0  0  0  0  0  0
   -0.5568   -9.9983    2.4189 H   0  0  0  0  0  0  0  0  0  0  0  0
   -0.4330   -9.6010    4.1098 H   0  0  0  0  0  0  0  0  0  0  0  0
   -0.0069   -7.7199    2.2306 H   0  0  0  0  0  0  0  0  0  0  0  0
    5.7785   -3.9078   -0.4345 H   0  0  0  0  0  0  0  0  0  0  0  0
    4.1433   -4.7223   -2.1859 H   0  0  0  0  0  0  0  0  0  0  0  0
    2.8574   -1.1205   -1.1328 H   0  0  0  0  0  0  0  0  0  0  0  0
    6.5837   -1.5466    0.2420 H   0  0  0  0  0  0  0  0  0  0  0  0
    5.5980   -0.3386   -0.5881 H   0  0  0  0  0  0  0  0  0  0  0  0
    6.1561   -1.7505   -1.4504 H   0  0  0  0  0  0  0  0  0  0  0  0
  1  2  1  0
  1 33  1  0
  1 34  1  0
  1 35  1  0
  2 31  1  0
  2  3  1  0
  2 36  1  1
  3  4  1  0
  3  5  1  0
  3 37  1  6
  4 38  1  0
  5  6  1  0
  5  7  1  0
  5 39  1  1
  6 40  1  0
  7 13  1  0
  7  8  1  6
  7  9  1  0
  8 41  1  0
  8 42  1  0
  8 43  1  0
  9 10  1  0
  9 26  1  0
  9 44  1  6
 10 11  1  0
 10 45  1  0
 10 46  1  0
 11 12  1  0
 11 47  1  0
 11 48  1  0
 12 25  1  0
 12 13  1  0
 12 49  1  6
 13 14  1  0
 13 50  1  1
 14 15  1  0
 14 51  1  0
 14 52  1  0
 15 16  1  0
 15 53  1  0
 15 54  1  0
 16 25  1  0
 16 17  1  0
 16 55  1  6
 17 18  1  0
 17 19  1  0
 17 20  1  0
 18 56  1  0
 18 57  1  0
 18 58  1  0
 19 59  1  0
 19 60  1  0
 19 61  1  0
 20 21  1  0
 20 22  1  0
 20 62  1  6
 21 63  1  0
 22 23  1  0
 22 64  1  0
 22 65  1  0
 23 25  1  0
 23 24  1  0
 23 66  1  6
 25 24  1  1
 26 31  1  0
 26 27  1  0
 26 67  1  6
 27 28  1  0
 27 68  1  0
 28 29  2  0
 28 30  1  0
 30 31  1  0
 30 69  1  0
 31 32  1  6
 32 70  1  0
 32 71  1  0
 32 72  1  0
M  END
>  <i_m_ct_stereo_status>  (251) 
1

>  <s_m_source_file>  (251) 
/var/tmp/pbs.5076255.sched01/tmp25xsusm8/82mdre8bl4.sdf

>  <i_m_source_file_index>  (251) 
38

>  <i_lp_mmshare_version>  (251) 
48012

>  <i_f3d_flags>  (251) 
0

>  <s_epik_input>  (251) 
W09IXVtDQEBIXTFbQ0BIXShbT0hdKVtDQEBIXShbQ0gzXSlbQ0BdKFtDSDNdKShbTkhdQyg9TylbTkhdMilbQ0BIXTJbQ0BIXShbQ0gyXVtDSDJdMylbQ0BdMShbQ0gzXSlbQ0BASF0oW0NASF0zW0NAXTQ1NilbQ0gyXVtDSDJdW0NASF00QyhbQ0gzXSkoW0NIM10pW0NAQEhdKFtPSF0pW0NIMl1bQ0BIXTVPNg==

>  <s_epik_cmdline>  (251) 
J2VwaWtfcHl0aG9uJywgJy1waHQnLCAnMi4wJywgJy1waCcsICc3LjAnLCAnLXRuJywgJzgnLCAnLW1hJywgJzIwMCcsICctaW1hZScsICc8aW5maWxlLm1hZT4nLCAnLW9tYWUnLCAnPG91dGZpbGUubWFlPic=

>  <r_lp_tautomer_probability>  (251) 
1

>  <r_epik_Ionization_Penalty>  (251) 
7.33226e-05

>  <r_epik_Ionization_Penalty_Charging>  (251) 
0

>  <r_epik_Ionization_Penalty_Neutral>  (251) 
7.33226e-05

>  <r_epik_State_Penalty>  (251) 
-0

>  <r_epik_Charging_Adjusted_Penalty>  (251) 
0

>  <i_epik_Tot_Q>  (251) 
0

>  <i_epik_Tot_abs_Q>  (251) 
0

>  <s_lp_Force_Field>  (251) 
OPLS3e

>  <r_lp_Energy>  (251) 
63.9839

>  <b_lp_Chiralities_Consistent>  (251) 
1

>  <s_lp_Variant>  (251) 
85:0-1

>  <s_i_glide_gridfile>  (251) 
pfpi4k_grid

>  <i_i_glide_lignum>  (251) 
38

>  <i_i_glide_rotatable_bonds>  (251) 
3

>  <r_i_docking_score>  (251) 
-4.07041

>  <r_i_glide_ligand_efficiency>  (251) 
-0.1272

>  <r_i_glide_ligand_efficiency_sa>  (251) 
-0.403836

>  <r_i_glide_ligand_efficiency_ln>  (251) 
-0.911476

>  <r_i_glide_gscore>  (251) 
-4.07041

>  <r_i_glide_lipo>  (251) 
-0.388213

>  <r_i_glide_hbond>  (251) 
-0.619151

>  <r_i_glide_metal>  (251) 
-0

>  <r_i_glide_rewards>  (251) 
-0.350485

>  <r_i_glide_evdw>  (251) 
-34.2073

>  <r_i_glide_ecoul>  (251) 
-5.7206

>  <r_i_glide_erotb>  (251) 
0

>  <r_i_glide_esite>  (251) 
-0.144106

>  <r_i_glide_emodel>  (251) 
-49.436

>  <r_i_glide_energy>  (251) 
-39.9279

>  <r_i_glide_einternal>  (251) 
0.74169

>  <r_i_glide_intrahb_reward>  (251) 
-0

>  <i_i_glide_confnum>  (251) 
2

>  <i_i_glide_posenum>  (251) 
13

>  <r_i_glide_eff_state_penalty>  (251) 
0

>  <ligand_id>  (251) 
85

>  <original_smiles>  (251) 
CC1C(O)C(O)C2(C)C(CCC3C2CCC2C(C)(C)C(O)CC4OC432)C2NC(=O)NC12C

>  <smiles>  (251) 
[H]OC1([H])C([H])(O[H])C2(C([H])([H])[H])C([H])(C([H])([H])C([H])([H])C3([H])C2([H])C([H])([H])C([H])([H])C2([H])C34OC4([H])C([H])([H])C([H])(O[H])C2(C([H])([H])[H])C([H])([H])[H])C2([H])N([H])C(=O)N([H])C2(C([H])([H])[H])C1([H])C([H])([H])[H]

$$$$
85:0:2
     RDKit          3D

 72 77  0  0  1  0  0  0  0  0999 V2000
    1.6579  -11.1540    3.3044 C   0  0  0  0  0  0  0  0  0  0  0  0
    1.9349   -9.6264    3.2985 C   0  0  2  0  0  0  0  0  0  0  0  0
    3.4086   -9.2816    3.6658 C   0  0  1  0  0  0  0  0  0  0  0  0
    4.2717  -10.3719    3.4182 O   0  0  0  0  0  0  0  0  0  0  0  0
    3.9823   -8.0663    2.8902 C   0  0  1  0  0  0  0  0  0  0  0  0
    3.8809   -8.3746    1.5168 O   0  0  0  0  0  0  0  0  0  0  0  0
    3.4382   -6.6273    3.2643 C   0  0  2  0  0  0  0  0  0  0  0  0
    3.8785   -6.3712    4.7334 C   0  0  0  0  0  0  0  0  0  0  0  0
    1.8816   -6.4865    3.2391 C   0  0  1  0  0  0  0  0  0  0  0  0
    1.2859   -6.5162    1.8005 C   0  0  0  0  0  0  0  0  0  0  0  0
    2.1287   -5.7766    0.7465 C   0  0  0  0  0  0  0  0  0  0  0  0
    3.1234   -4.7711    1.3666 C   0  0  1  0  0  0  0  0  0  0  0  0
    4.1039   -5.5306    2.3058 C   0  0  1  0  0  0  0  0  0  0  0  0
    5.0311   -4.4818    2.9659 C   0  0  0  0  0  0  0  0  0  0  0  0
    5.7509   -3.6188    1.9264 C   0  0  0  0  0  0  0  0  0  0  0  0
    4.7746   -2.9029    0.9809 C   0  0  1  0  0  0  0  0  0  0  0  0
    5.4761   -1.9313   -0.0500 C   0  0  0  0  0  0  0  0  0  0  0  0
    6.0247   -0.7231    0.7229 C   0  0  0  0  0  0  0  0  0  0  0  0
    6.6845   -2.5503   -0.8106 C   0  0  0  0  0  0  0  0  0  0  0  0
    4.3961   -1.4166   -1.0420 C   0  0  1  0  0  0  0  0  0  0  0  0
    4.9592   -0.5286   -1.9655 O   0  0  0  0  0  0  0  0  0  0  0  0
    3.7508   -2.4911   -1.9137 C   0  0  0  0  0  0  0  0  0  0  0  0
    3.3727   -3.6823   -1.0880 C   0  0  1  0  0  0  0  0  0  0  0  0
    4.4651   -4.6068   -0.7715 O   0  0  0  0  0  0  0  0  0  0  0  0
    3.8617   -3.9055    0.3133 C   0  0  2  0  0  0  0  0  0  0  0  0
    1.0466   -7.3072    4.2866 C   0  0  1  0  0  0  0  0  0  0  0  0
   -0.3355   -6.9133    4.1676 N   0  0  0  0  0  0  0  0  0  0  0  0
   -1.1189   -7.8873    3.7377 C   0  0  0  0  0  0  0  0  0  0  0  0
   -2.2914   -7.7385    3.4359 O   0  0  0  0  0  0  0  0  0  0  0  0
   -0.4144   -9.0069    3.6245 N   0  0  0  0  0  0  0  0  0  0  0  0
    0.9135   -8.8748    4.1810 C   0  0  1  0  0  0  0  0  0  0  0  0
    0.8571   -9.4610    5.6253 C   0  0  0  0  0  0  0  0  0  0  0  0
    1.9142  -11.6340    4.2431 H   0  0  0  0  0  0  0  0  0  0  0  0
    2.2377  -11.6511    2.5177 H   0  0  0  0  0  0  0  0  0  0  0  0
    0.6097  -11.3729    3.0898 H   0  0  0  0  0  0  0  0  0  0  0  0
    1.7348   -9.3406    2.2734 H   0  0  0  0  0  0  0  0  0  0  0  0
    3.4895   -9.1134    4.7335 H   0  0  0  0  0  0  0  0  0  0  0  0
    4.1698  -10.6328    2.5064 H   0  0  0  0  0  0  0  0  0  0  0  0
    5.0542   -8.0468    3.0996 H   0  0  0  0  0  0  0  0  0  0  0  0
    2.9690   -8.5597    1.3192 H   0  0  0  0  0  0  0  0  0  0  0  0
    3.5563   -5.3740    5.0642 H   0  0  0  0  0  0  0  0  0  0  0  0
    4.9584   -6.4450    4.8546 H   0  0  0  0  0  0  0  0  0  0  0  0
    3.4627   -7.0787    5.4474 H   0  0  0  0  0  0  0  0  0  0  0  0
    1.7026   -5.4582    3.5671 H   0  0  0  0  0  0  0  0  0  0  0  0
    0.9701   -7.4935    1.4664 H   0  0  0  0  0  0  0  0  0  0  0  0
    0.3575   -5.9430    1.8636 H   0  0  0  0  0  0  0  0  0  0  0  0
    2.7160   -6.5158    0.2095 H   0  0  0  0  0  0  0  0  0  0  0  0
    1.4545   -5.3158    0.0199 H   0  0  0  0  0  0  0  0  0  0  0  0
    2.5415   -4.0650    1.9560 H   0  0  0  0  0  0  0  0  0  0  0  0
    4.7678   -6.0856    1.6384 H   0  0  0  0  0  0  0  0  0  0  0  0
    4.4543   -3.8168    3.6075 H   0  0  0  0  0  0  0  0  0  0  0  0
    5.8051   -4.9471    3.5715 H   0  0  0  0  0  0  0  0  0  0  0  0
    6.3213   -2.8682    2.4527 H   0  0  0  0  0  0  0  0  0  0  0  0
    6.4350   -4.2591    1.3638 H   0  0  0  0  0  0  0  0  0  0  0  0
    4.1316   -2.2842    1.6131 H   0  0  0  0  0  0  0  0  0  0  0  0
    6.4694    0.0110    0.0595 H   0  0  0  0  0  0  0  0  0  0  0  0
    6.8077   -1.0115    1.4322 H   0  0  0  0  0  0  0  0  0  0  0  0
    5.2314   -0.2176    1.2774 H   0  0  0  0  0  0  0  0  0  0  0  0
    7.0916   -1.8612   -1.5336 H   0  0  0  0  0  0  0  0  0  0  0  0
    6.4060   -3.4326   -1.3998 H   0  0  0  0  0  0  0  0  0  0  0  0
    7.4883   -2.8426   -0.1426 H   0  0  0  0  0  0  0  0  0  0  0  0
    3.6012   -0.9245   -0.4743 H   0  0  0  0  0  0  0  0  0  0  0  0
    5.0135    0.3241   -1.5502 H   0  0  0  0  0  0  0  0  0  0  0  0
    2.8496   -2.0817   -2.3779 H   0  0  0  0  0  0  0  0  0  0  0  0
    4.4048   -2.8172   -2.7172 H   0  0  0  0  0  0  0  0  0  0  0  0
    2.4841   -4.1825   -1.4466 H   0  0  0  0  0  0  0  0  0  0  0  0
    1.3318   -7.0201    5.2966 H   0  0  0  0  0  0  0  0  0  0  0  0
   -0.7091   -5.9964    4.3715 H   0  0  0  0  0  0  0  0  0  0  0  0
   -0.8215   -9.8759    3.3040 H   0  0  0  0  0  0  0  0  0  0  0  0
    1.8196   -9.4251    6.1391 H   0  0  0  0  0  0  0  0  0  0  0  0
    0.5093  -10.4928    5.6391 H   0  0  0  0  0  0  0  0  0  0  0  0
    0.1468   -8.9053    6.2443 H   0  0  0  0  0  0  0  0  0  0  0  0
  1  2  1  0
  1 33  1  0
  1 34  1  0
  1 35  1  0
  2 31  1  0
  2  3  1  0
  2 36  1  6
  3  4  1  0
  3  5  1  0
  3 37  1  1
  4 38  1  0
  5  6  1  0
  5  7  1  0
  5 39  1  1
  6 40  1  0
  7 13  1  0
  7  8  1  1
  7  9  1  0
  8 41  1  0
  8 42  1  0
  8 43  1  0
  9 10  1  0
  9 26  1  0
  9 44  1  1
 10 11  1  0
 10 45  1  0
 10 46  1  0
 11 12  1  0
 11 47  1  0
 11 48  1  0
 12 25  1  0
 12 13  1  0
 12 49  1  1
 13 14  1  0
 13 50  1  6
 14 15  1  0
 14 51  1  0
 14 52  1  0
 15 16  1  0
 15 53  1  0
 15 54  1  0
 16 25  1  0
 16 17  1  0
 16 55  1  1
 17 18  1  0
 17 19  1  0
 17 20  1  0
 18 56  1  0
 18 57  1  0
 18 58  1  0
 19 59  1  0
 19 60  1  0
 19 61  1  0
 20 21  1  0
 20 22  1  0
 20 62  1  1
 21 63  1  0
 22 23  1  0
 22 64  1  0
 22 65  1  0
 23 25  1  0
 23 24  1  0
 23 66  1  1
 25 24  1  6
 26 31  1  0
 26 27  1  0
 26 67  1  1
 27 28  1  0
 27 68  1  0
 28 29  2  0
 28 30  1  0
 30 31  1  0
 30 69  1  0
 31 32  1  1
 32 70  1  0
 32 71  1  0
 32 72  1  0
M  END
>  <i_m_ct_stereo_status>  (252) 
1

>  <s_m_source_file>  (252) 
/var/tmp/pbs.5076255.sched01/tmp25xsusm8/82mdre8bl4.sdf

>  <i_m_source_file_index>  (252) 
38

>  <i_lp_mmshare_version>  (252) 
48012

>  <i_f3d_flags>  (252) 
0

>  <s_epik_input>  (252) 
W09IXVtDQEBIXTFbQ0BIXShbT0hdKVtDQEBIXShbQ0gzXSlbQ0BdKFtDSDNdKShbTkhdQyg9TylbTkhdMilbQ0BIXTJbQ0BIXShbQ0gyXVtDSDJdMylbQ0BdMShbQ0gzXSlbQ0BASF0oW0NASF0zW0NAXTQ1NilbQ0gyXVtDSDJdW0NASF00QyhbQ0gzXSkoW0NIM10pW0NAQEhdKFtPSF0pW0NIMl1bQ0BIXTVPNg==

>  <s_epik_cmdline>  (252) 
J2VwaWtfcHl0aG9uJywgJy1waHQnLCAnMi4wJywgJy1waCcsICc3LjAnLCAnLXRuJywgJzgnLCAnLW1hJywgJzIwMCcsICctaW1hZScsICc8aW5maWxlLm1hZT4nLCAnLW9tYWUnLCAnPG91dGZpbGUubWFlPic=

>  <r_lp_tautomer_probability>  (252) 
1

>  <r_epik_Ionization_Penalty>  (252) 
7.33226e-05

>  <r_epik_Ionization_Penalty_Charging>  (252) 
0

>  <r_epik_Ionization_Penalty_Neutral>  (252) 
7.33226e-05

>  <r_epik_State_Penalty>  (252) 
-0

>  <r_epik_Charging_Adjusted_Penalty>  (252) 
0

>  <i_epik_Tot_Q>  (252) 
0

>  <i_epik_Tot_abs_Q>  (252) 
0

>  <s_lp_Force_Field>  (252) 
OPLS3e

>  <r_lp_Energy>  (252) 
63.9839

>  <b_lp_Chiralities_Consistent>  (252) 
1

>  <s_lp_Variant>  (252) 
85:0-1

>  <s_i_glide_gridfile>  (252) 
pfpi4k_grid

>  <i_i_glide_lignum>  (252) 
38

>  <i_i_glide_rotatable_bonds>  (252) 
3

>  <r_i_docking_score>  (252) 
-3.84089

>  <r_i_glide_ligand_efficiency>  (252) 
-0.120028

>  <r_i_glide_ligand_efficiency_sa>  (252) 
-0.381064

>  <r_i_glide_ligand_efficiency_ln>  (252) 
-0.860079

>  <r_i_glide_gscore>  (252) 
-3.84089

>  <r_i_glide_lipo>  (252) 
-0.368264

>  <r_i_glide_hbond>  (252) 
-0.32

>  <r_i_glide_metal>  (252) 
-0

>  <r_i_glide_rewards>  (252) 
-0.350485

>  <r_i_glide_evdw>  (252) 
-35.3652

>  <r_i_glide_ecoul>  (252) 
-5.72475

>  <r_i_glide_erotb>  (252) 
0

>  <r_i_glide_esite>  (252) 
-0.175165

>  <r_i_glide_emodel>  (252) 
-49.7672

>  <r_i_glide_energy>  (252) 
-41.0899

>  <r_i_glide_einternal>  (252) 
0.844831

>  <r_i_glide_intrahb_reward>  (252) 
-0

>  <i_i_glide_confnum>  (252) 
2

>  <i_i_glide_posenum>  (252) 
24

>  <r_i_glide_eff_state_penalty>  (252) 
0

>  <ligand_id>  (252) 
85

>  <original_smiles>  (252) 
CC1C(O)C(O)C2(C)C(CCC3C2CCC2C(C)(C)C(O)CC4OC432)C2NC(=O)NC12C

>  <smiles>  (252) 
[H]OC1([H])C([H])(O[H])C2(C([H])([H])[H])C([H])(C([H])([H])C([H])([H])C3([H])C2([H])C([H])([H])C([H])([H])C2([H])C34OC4([H])C([H])([H])C([H])(O[H])C2(C([H])([H])[H])C([H])([H])[H])C2([H])N([H])C(=O)N([H])C2(C([H])([H])[H])C1([H])C([H])([H])[H]

$$$$
87:0:0
     RDKit          3D

 55 60  0  0  1  0  0  0  0  0999 V2000
    1.2990   -9.1053    5.0668 C   0  0  0  0  0  0  0  0  0  0  0  0
    1.8212   -7.9053    4.2735 C   0  0  0  0  0  0  0  0  0  0  0  0
    2.1849   -6.7525    4.9399 C   0  0  0  0  0  0  0  0  0  0  0  0
    3.4742   -5.8262    4.4338 C   0  0  0  0  0  0  0  0  0  0  0  0
    4.2781   -5.9812    2.9423 C   0  0  2  0  0  0  0  0  0  0  0  0
    5.5108   -6.8988    3.0984 C   0  0  0  0  0  0  0  0  0  0  0  0
    3.0289   -6.3646    2.6222 C   0  0  0  0  0  0  0  0  0  0  0  0
    2.6010   -7.6782    2.5827 C   0  0  0  0  0  0  0  0  0  0  0  0
    3.4428   -8.9851    2.4939 C   0  0  0  0  0  0  0  0  0  0  0  0
    1.1174   -7.7611    2.8416 C   0  0  1  0  0  0  0  0  0  0  0  0
    0.3403   -6.7250    3.5180 O   0  0  0  0  0  0  0  0  0  0  0  0
    0.8934   -6.1001    4.6420 C   0  0  0  0  0  0  0  0  0  0  0  0
    0.4144   -5.1140    5.2004 O   0  0  0  0  0  0  0  0  0  0  0  0
    1.1882   -7.0609    1.2875 C   0  0  1  0  0  0  0  0  0  0  0  0
   -0.1289   -6.7075    0.8855 O   0  0  0  0  0  0  0  0  0  0  0  0
    2.2840   -5.7874    0.9525 C   0  0  1  0  0  0  0  0  0  0  0  0
    1.8314   -5.1282   -0.2271 O   0  0  0  0  0  0  0  0  0  0  0  0
    2.1374   -5.0743    2.1725 C   0  0  2  0  0  0  0  0  0  0  0  0
    2.6134   -3.5351    2.2102 C   0  0  0  0  0  0  0  0  0  0  0  0
    3.1936   -2.8961    0.9120 C   0  0  2  0  0  0  0  0  0  0  0  0
    4.2802   -3.5209    0.0016 C   0  0  2  0  0  0  0  0  0  0  0  0
    4.7513   -4.9875    0.2256 C   0  0  1  0  0  0  0  0  0  0  0  0
    6.1623   -5.0669    0.3606 O   0  0  0  0  0  0  0  0  0  0  0  0
    3.9473   -5.7006    1.3472 C   0  0  2  0  0  0  0  0  0  0  0  0
    4.5845   -2.2805    0.8313 C   0  0  0  0  0  0  0  0  0  0  0  0
    4.7350   -0.9602    0.0897 C   0  0  0  0  0  0  0  0  0  0  0  0
    5.5721   -2.3067    1.9838 C   0  0  0  0  0  0  0  0  0  0  0  0
    1.8458  -10.0251    4.8360 H   0  0  0  0  0  0  0  0  0  0  0  0
    0.2402   -9.2787    4.8524 H   0  0  0  0  0  0  0  0  0  0  0  0
    1.3808   -8.9260    6.1425 H   0  0  0  0  0  0  0  0  0  0  0  0
    3.2027   -4.7876    4.6246 H   0  0  0  0  0  0  0  0  0  0  0  0
    4.2294   -6.0141    5.1970 H   0  0  0  0  0  0  0  0  0  0  0  0
    6.3365   -6.2952    3.4717 H   0  0  0  0  0  0  0  0  0  0  0  0
    5.8568   -7.3109    2.1520 H   0  0  0  0  0  0  0  0  0  0  0  0
    5.3790   -7.7001    3.8228 H   0  0  0  0  0  0  0  0  0  0  0  0
    2.8508   -9.7804    2.0421 H   0  0  0  0  0  0  0  0  0  0  0  0
    3.7871   -9.3555    3.4625 H   0  0  0  0  0  0  0  0  0  0  0  0
    4.3146   -8.8679    1.8535 H   0  0  0  0  0  0  0  0  0  0  0  0
    1.4121   -7.8595    0.5765 H   0  0  0  0  0  0  0  0  0  0  0  0
   -0.6104   -7.5120    0.7801 H   0  0  0  0  0  0  0  0  0  0  0  0
    2.2925   -5.4727   -0.9831 H   0  0  0  0  0  0  0  0  0  0  0  0
    1.0718   -4.9758    2.3466 H   0  0  0  0  0  0  0  0  0  0  0  0
    1.7280   -2.9439    2.4544 H   0  0  0  0  0  0  0  0  0  0  0  0
    3.2855   -3.3355    3.0392 H   0  0  0  0  0  0  0  0  0  0  0  0
    2.4269   -2.3416    0.3761 H   0  0  0  0  0  0  0  0  0  0  0  0
    4.1703   -3.3053   -1.0566 H   0  0  0  0  0  0  0  0  0  0  0  0
    4.5272   -5.5247   -0.6957 H   0  0  0  0  0  0  0  0  0  0  0  0
    6.4177   -4.6023    1.1424 H   0  0  0  0  0  0  0  0  0  0  0  0
    4.4027   -4.8242    1.7972 H   0  0  0  0  0  0  0  0  0  0  0  0
    5.7458   -0.8494   -0.3002 H   0  0  0  0  0  0  0  0  0  0  0  0
    4.5210   -0.1161    0.7458 H   0  0  0  0  0  0  0  0  0  0  0  0
    4.0438   -0.9092   -0.7520 H   0  0  0  0  0  0  0  0  0  0  0  0
    6.5899   -2.2220    1.6014 H   0  0  0  0  0  0  0  0  0  0  0  0
    5.5033   -3.2236    2.5607 H   0  0  0  0  0  0  0  0  0  0  0  0
    5.3806   -1.4705    2.6572 H   0  0  0  0  0  0  0  0  0  0  0  0
  1  2  1  0
  1 28  1  0
  1 29  1  0
  1 30  1  0
  2 10  1  0
  2  3  2  0
  3 12  1  0
  3  4  1  0
  4  5  1  0
  4 31  1  0
  4 32  1  0
  5 24  1  0
  5  6  1  6
  5  7  1  0
  6 33  1  0
  6 34  1  0
  6 35  1  0
  7 18  1  0
  7  8  2  0
  8  9  1  0
  8 10  1  0
  9 36  1  0
  9 37  1  0
  9 38  1  0
 10 11  1  1
 10 14  1  0
 11 12  1  0
 12 13  2  0
 14 15  1  0
 14 16  1  0
 14 39  1  6
 15 40  1  0
 16 24  1  0
 16 17  1  6
 16 18  1  0
 17 41  1  0
 18 19  1  0
 18 42  1  1
 19 20  1  0
 19 43  1  0
 19 44  1  0
 20 25  1  0
 20 21  1  0
 20 45  1  6
 21 22  1  0
 21 25  1  0
 21 46  1  6
 22 23  1  0
 22 24  1  0
 22 47  1  6
 23 48  1  0
 24 49  1  6
 25 26  1  0
 25 27  1  0
 26 50  1  0
 26 51  1  0
 26 52  1  0
 27 53  1  0
 27 54  1  0
 27 55  1  0
M  END
>  <i_m_ct_stereo_status>  (253) 
1

>  <s_m_source_file>  (253) 
/var/tmp/pbs.5076255.sched01/tmp25xsusm8/82mdre8bl4.sdf

>  <i_m_source_file_index>  (253) 
40

>  <i_lp_mmshare_version>  (253) 
48012

>  <i_f3d_flags>  (253) 
0

>  <s_epik_input>  (253) 
W0NIM11DKEMxMjMpPUMoQyhPMik9TylbQ0gyXVtDQEBdNChbQ0gzXSlDKD1DMVtDSDNdKVtDQEBIXTVbQ0BdKFtPSF0pKFtDQEBIXTNbT0hdKVtDQEBIXTRbQ0BIXShbT0hdKVtDQEhdNltDQEBIXShbQ0gyXTUpQzYoW0NIM10pW0NIM10=

>  <s_epik_cmdline>  (253) 
J2VwaWtfcHl0aG9uJywgJy1waHQnLCAnMi4wJywgJy1waCcsICc3LjAnLCAnLXRuJywgJzgnLCAnLW1hJywgJzIwMCcsICctaW1hZScsICc8aW5maWxlLm1hZT4nLCAnLW9tYWUnLCAnPG91dGZpbGUubWFlPic=

>  <r_lp_tautomer_probability>  (253) 
1

>  <r_epik_Ionization_Penalty>  (253) 
2.76441e-05

>  <r_epik_Ionization_Penalty_Charging>  (253) 
0

>  <r_epik_Ionization_Penalty_Neutral>  (253) 
2.76441e-05

>  <r_epik_State_Penalty>  (253) 
-0

>  <r_epik_Charging_Adjusted_Penalty>  (253) 
0

>  <i_epik_Tot_Q>  (253) 
0

>  <i_epik_Tot_abs_Q>  (253) 
0

>  <s_epik_Chemistry_Notes>  (253) 
This compound has an ester and may undergo hydrolysis at high or low pH.

>  <s_lp_Force_Field>  (253) 
OPLS3e

>  <r_lp_Energy>  (253) 
563.781

>  <b_lp_Chiralities_Consistent>  (253) 
1

>  <s_lp_Variant>  (253) 
87:0-1

>  <s_i_glide_gridfile>  (253) 
pfpi4k_grid

>  <i_i_glide_lignum>  (253) 
40

>  <i_i_glide_rotatable_bonds>  (253) 
3

>  <r_i_docking_score>  (253) 
-3.82858

>  <r_i_glide_ligand_efficiency>  (253) 
-0.141799

>  <r_i_glide_ligand_efficiency_sa>  (253) 
-0.425398

>  <r_i_glide_ligand_efficiency_ln>  (253) 
-0.891231

>  <r_i_glide_gscore>  (253) 
-3.82858

>  <r_i_glide_lipo>  (253) 
-0.185844

>  <r_i_glide_hbond>  (253) 
0

>  <r_i_glide_metal>  (253) 
-0

>  <r_i_glide_rewards>  (253) 
-0.869627

>  <r_i_glide_evdw>  (253) 
-24.7349

>  <r_i_glide_ecoul>  (253) 
-10.1844

>  <r_i_glide_erotb>  (253) 
0

>  <r_i_glide_esite>  (253) 
-0.00870479

>  <r_i_glide_emodel>  (253) 
-43.6408

>  <r_i_glide_energy>  (253) 
-34.9193

>  <r_i_glide_einternal>  (253) 
0.76737

>  <r_i_glide_intrahb_reward>  (253) 
-0

>  <i_i_glide_confnum>  (253) 
1

>  <i_i_glide_posenum>  (253) 
25

>  <r_i_glide_eff_state_penalty>  (253) 
0

>  <ligand_id>  (253) 
87

>  <original_smiles>  (253) 
CC1=C2CC3(C)C4=C(C)C1(OC2=O)C(O)C1(O)C4CC2C(C(O)C31)C2(C)C

>  <smiles>  (253) 
[H]OC1([H])C2([H])C3(O[H])C([H])(O[H])C45OC(=O)C(=C4C([H])([H])[H])C([H])([H])C2(C([H])([H])[H])C(=C5C([H])([H])[H])C3([H])C([H])([H])C2([H])C1([H])C2(C([H])([H])[H])C([H])([H])[H]

$$$$
87:0:1
     RDKit          3D

 55 60  0  0  1  0  0  0  0  0999 V2000
    1.2859   -8.9839    5.1250 C   0  0  0  0  0  0  0  0  0  0  0  0
    1.8130   -7.8067    4.3006 C   0  0  0  0  0  0  0  0  0  0  0  0
    2.1812   -6.6384    4.9366 C   0  0  0  0  0  0  0  0  0  0  0  0
    3.4739   -5.7293    4.4082 C   0  0  0  0  0  0  0  0  0  0  0  0
    4.2791   -5.9266    2.9222 C   0  0  2  0  0  0  0  0  0  0  0  0
    5.5086   -6.8432    3.1051 C   0  0  0  0  0  0  0  0  0  0  0  0
    3.0305   -6.3157    2.6105 C   0  0  0  0  0  0  0  0  0  0  0  0
    2.5979   -7.6278    2.6049 C   0  0  0  0  0  0  0  0  0  0  0  0
    3.4349   -8.9390    2.5522 C   0  0  0  0  0  0  0  0  0  0  0  0
    1.1129   -7.6995    2.8643 C   0  0  1  0  0  0  0  0  0  0  0  0
    0.3378   -6.6440    3.5128 O   0  0  0  0  0  0  0  0  0  0  0  0
    0.8920   -5.9904    4.6205 C   0  0  0  0  0  0  0  0  0  0  0  0
    0.4155   -4.9889    5.1529 O   0  0  0  0  0  0  0  0  0  0  0  0
    1.1868   -7.0401    1.2930 C   0  0  1  0  0  0  0  0  0  0  0  0
   -0.1287   -6.6921    0.8803 O   0  0  0  0  0  0  0  0  0  0  0  0
    2.2859   -5.7779    0.9253 C   0  0  1  0  0  0  0  0  0  0  0  0
    1.8316   -5.1425   -0.2678 O   0  0  0  0  0  0  0  0  0  0  0  0
    2.1438   -5.0351    2.1272 C   0  0  2  0  0  0  0  0  0  0  0  0
    2.6222   -3.4956    2.1239 C   0  0  0  0  0  0  0  0  0  0  0  0
    3.2069   -2.8924    0.8101 C   0  0  2  0  0  0  0  0  0  0  0  0
    4.2904   -3.5447   -0.0832 C   0  0  2  0  0  0  0  0  0  0  0  0
    4.7534   -5.0050    0.1823 C   0  0  1  0  0  0  0  0  0  0  0  0
    6.1596   -5.0671    0.3474 O   0  0  0  0  0  0  0  0  0  0  0  0
    3.9485   -5.6848    1.3207 C   0  0  2  0  0  0  0  0  0  0  0  0
    4.5997   -2.2837    0.7147 C   0  0  0  0  0  0  0  0  0  0  0  0
    4.7546   -0.9848   -0.0617 C   0  0  0  0  0  0  0  0  0  0  0  0
    5.5852   -2.2810    1.8696 C   0  0  0  0  0  0  0  0  0  0  0  0
    1.8309   -9.9109    4.9195 H   0  0  0  0  0  0  0  0  0  0  0  0
    0.2269   -9.1608    4.9135 H   0  0  0  0  0  0  0  0  0  0  0  0
    1.3668   -8.7769    6.1960 H   0  0  0  0  0  0  0  0  0  0  0  0
    3.2054   -4.6851    4.5712 H   0  0  0  0  0  0  0  0  0  0  0  0
    4.2272   -5.8985    5.1782 H   0  0  0  0  0  0  0  0  0  0  0  0
    6.3354   -6.2308    3.4621 H   0  0  0  0  0  0  0  0  0  0  0  0
    5.8539   -7.2850    2.1726 H   0  0  0  0  0  0  0  0  0  0  0  0
    5.3730   -7.6233    3.8519 H   0  0  0  0  0  0  0  0  0  0  0  0
    2.8401   -9.7438    2.1213 H   0  0  0  0  0  0  0  0  0  0  0  0
    3.7762   -9.2839    3.5311 H   0  0  0  0  0  0  0  0  0  0  0  0
    4.3077   -8.8417    1.9101 H   0  0  0  0  0  0  0  0  0  0  0  0
    1.4099   -7.8569    0.6024 H   0  0  0  0  0  0  0  0  0  0  0  0
   -0.6103   -7.4980    0.7834 H   0  0  0  0  0  0  0  0  0  0  0  0
    2.3245   -5.4686   -1.0123 H   0  0  0  0  0  0  0  0  0  0  0  0
    1.0798   -4.9285    2.2996 H   0  0  0  0  0  0  0  0  0  0  0  0
    1.7398   -2.8945    2.3509 H   0  0  0  0  0  0  0  0  0  0  0  0
    3.2951   -3.2756    2.9478 H   0  0  0  0  0  0  0  0  0  0  0  0
    2.4444   -2.3495    0.2584 H   0  0  0  0  0  0  0  0  0  0  0  0
    4.1866   -3.3566   -1.1478 H   0  0  0  0  0  0  0  0  0  0  0  0
    4.5362   -5.5710   -0.7233 H   0  0  0  0  0  0  0  0  0  0  0  0
    6.4082   -5.9730    0.4408 H   0  0  0  0  0  0  0  0  0  0  0  0
    4.4077   -4.7992    1.7489 H   0  0  0  0  0  0  0  0  0  0  0  0
    5.7664   -0.8877   -0.4524 H   0  0  0  0  0  0  0  0  0  0  0  0
    4.5432   -0.1231    0.5717 H   0  0  0  0  0  0  0  0  0  0  0  0
    4.0646   -0.9531   -0.9053 H   0  0  0  0  0  0  0  0  0  0  0  0
    6.6036   -2.2140    1.4856 H   0  0  0  0  0  0  0  0  0  0  0  0
    5.5167   -3.1853    2.4663 H   0  0  0  0  0  0  0  0  0  0  0  0
    5.3962   -1.4278    2.5222 H   0  0  0  0  0  0  0  0  0  0  0  0
  1  2  1  0
  1 28  1  0
  1 29  1  0
  1 30  1  0
  2 10  1  0
  2  3  2  0
  3 12  1  0
  3  4  1  0
  4  5  1  0
  4 31  1  0
  4 32  1  0
  5 24  1  0
  5  6  1  6
  5  7  1  0
  6 33  1  0
  6 34  1  0
  6 35  1  0
  7 18  1  0
  7  8  2  0
  8  9  1  0
  8 10  1  0
  9 36  1  0
  9 37  1  0
  9 38  1  0
 10 11  1  1
 10 14  1  0
 11 12  1  0
 12 13  2  0
 14 15  1  0
 14 16  1  0
 14 39  1  6
 15 40  1  0
 16 24  1  0
 16 17  1  6
 16 18  1  0
 17 41  1  0
 18 19  1  0
 18 42  1  1
 19 20  1  0
 19 43  1  0
 19 44  1  0
 20 25  1  0
 20 21  1  0
 20 45  1  6
 21 22  1  0
 21 25  1  0
 21 46  1  6
 22 23  1  0
 22 24  1  0
 22 47  1  6
 23 48  1  0
 24 49  1  6
 25 26  1  0
 25 27  1  0
 26 50  1  0
 26 51  1  0
 26 52  1  0
 27 53  1  0
 27 54  1  0
 27 55  1  0
M  END
>  <i_m_ct_stereo_status>  (254) 
1

>  <s_m_source_file>  (254) 
/var/tmp/pbs.5076255.sched01/tmp25xsusm8/82mdre8bl4.sdf

>  <i_m_source_file_index>  (254) 
40

>  <i_lp_mmshare_version>  (254) 
48012

>  <i_f3d_flags>  (254) 
0

>  <s_epik_input>  (254) 
W0NIM11DKEMxMjMpPUMoQyhPMik9TylbQ0gyXVtDQEBdNChbQ0gzXSlDKD1DMVtDSDNdKVtDQEBIXTVbQ0BdKFtPSF0pKFtDQEBIXTNbT0hdKVtDQEBIXTRbQ0BIXShbT0hdKVtDQEhdNltDQEBIXShbQ0gyXTUpQzYoW0NIM10pW0NIM10=

>  <s_epik_cmdline>  (254) 
J2VwaWtfcHl0aG9uJywgJy1waHQnLCAnMi4wJywgJy1waCcsICc3LjAnLCAnLXRuJywgJzgnLCAnLW1hJywgJzIwMCcsICctaW1hZScsICc8aW5maWxlLm1hZT4nLCAnLW9tYWUnLCAnPG91dGZpbGUubWFlPic=

>  <r_lp_tautomer_probability>  (254) 
1

>  <r_epik_Ionization_Penalty>  (254) 
2.76441e-05

>  <r_epik_Ionization_Penalty_Charging>  (254) 
0

>  <r_epik_Ionization_Penalty_Neutral>  (254) 
2.76441e-05

>  <r_epik_State_Penalty>  (254) 
-0

>  <r_epik_Charging_Adjusted_Penalty>  (254) 
0

>  <i_epik_Tot_Q>  (254) 
0

>  <i_epik_Tot_abs_Q>  (254) 
0

>  <s_epik_Chemistry_Notes>  (254) 
This compound has an ester and may undergo hydrolysis at high or low pH.

>  <s_lp_Force_Field>  (254) 
OPLS3e

>  <r_lp_Energy>  (254) 
563.781

>  <b_lp_Chiralities_Consistent>  (254) 
1

>  <s_lp_Variant>  (254) 
87:0-1

>  <s_i_glide_gridfile>  (254) 
pfpi4k_grid

>  <i_i_glide_lignum>  (254) 
40

>  <i_i_glide_rotatable_bonds>  (254) 
3

>  <r_i_docking_score>  (254) 
-3.78777

>  <r_i_glide_ligand_efficiency>  (254) 
-0.140288

>  <r_i_glide_ligand_efficiency_sa>  (254) 
-0.420863

>  <r_i_glide_ligand_efficiency_ln>  (254) 
-0.881729

>  <r_i_glide_gscore>  (254) 
-3.78777

>  <r_i_glide_lipo>  (254) 
-0.168201

>  <r_i_glide_hbond>  (254) 
0

>  <r_i_glide_metal>  (254) 
-0

>  <r_i_glide_rewards>  (254) 
-0.869627

>  <r_i_glide_evdw>  (254) 
-24.6596

>  <r_i_glide_ecoul>  (254) 
-10.0552

>  <r_i_glide_erotb>  (254) 
0

>  <r_i_glide_esite>  (254) 
-0.00867002

>  <r_i_glide_emodel>  (254) 
-43.0741

>  <r_i_glide_energy>  (254) 
-34.7149

>  <r_i_glide_einternal>  (254) 
1.2032

>  <r_i_glide_intrahb_reward>  (254) 
-0

>  <i_i_glide_confnum>  (254) 
1

>  <i_i_glide_posenum>  (254) 
35

>  <r_i_glide_eff_state_penalty>  (254) 
0

>  <ligand_id>  (254) 
87

>  <original_smiles>  (254) 
CC1=C2CC3(C)C4=C(C)C1(OC2=O)C(O)C1(O)C4CC2C(C(O)C31)C2(C)C

>  <smiles>  (254) 
[H]OC1([H])C2([H])C3(O[H])C([H])(O[H])C45OC(=O)C(=C4C([H])([H])[H])C([H])([H])C2(C([H])([H])[H])C(=C5C([H])([H])[H])C3([H])C([H])([H])C2([H])C1([H])C2(C([H])([H])[H])C([H])([H])[H]

$$$$
87:0:2
     RDKit          3D

 55 60  0  0  1  0  0  0  0  0999 V2000
    2.5510   -7.4582    5.4778 C   0  0  0  0  0  0  0  0  0  0  0  0
    2.8587   -6.5046    4.3278 C   0  0  0  0  0  0  0  0  0  0  0  0
    1.9184   -5.5718    3.9468 C   0  0  0  0  0  0  0  0  0  0  0  0
    2.3818   -4.0551    3.4347 C   0  0  0  0  0  0  0  0  0  0  0  0
    3.9662   -3.5910    3.0209 C   0  0  2  0  0  0  0  0  0  0  0  0
    4.6730   -2.9583    4.2408 C   0  0  0  0  0  0  0  0  0  0  0  0
    3.9479   -4.8904    2.6809 C   0  0  0  0  0  0  0  0  0  0  0  0
    4.4180   -5.9060    3.5041 C   0  0  0  0  0  0  0  0  0  0  0  0
    5.3607   -5.8217    4.7390 C   0  0  0  0  0  0  0  0  0  0  0  0
    3.7346   -7.2003    3.1712 C   0  0  1  0  0  0  0  0  0  0  0  0
    2.4550   -7.2999    2.4789 O   0  0  0  0  0  0  0  0  0  0  0  0
    1.4271   -6.4061    2.8263 C   0  0  0  0  0  0  0  0  0  0  0  0
    0.3604   -6.2853    2.2295 O   0  0  0  0  0  0  0  0  0  0  0  0
    4.7526   -6.9614    1.8256 C   0  0  1  0  0  0  0  0  0  0  0  0
    4.4765   -7.9839    0.8831 O   0  0  0  0  0  0  0  0  0  0  0  0
    4.8281   -5.4222    1.0740 C   0  0  1  0  0  0  0  0  0  0  0  0
    5.3401   -5.5730   -0.2268 O   0  0  0  0  0  0  0  0  0  0  0  0
    3.4540   -5.0840    1.1408 C   0  0  2  0  0  0  0  0  0  0  0  0
    2.9212   -3.9169    0.1718 C   0  0  0  0  0  0  0  0  0  0  0  0
    3.9207   -3.2400   -0.8132 C   0  0  2  0  0  0  0  0  0  0  0  0
    5.3300   -2.7071   -0.4563 C   0  0  2  0  0  0  0  0  0  0  0  0
    5.9478   -2.9871    0.9413 C   0  0  1  0  0  0  0  0  0  0  0  0
    6.3568   -1.7754    1.5513 O   0  0  0  0  0  0  0  0  0  0  0  0
    5.0499   -3.9061    1.8170 C   0  0  2  0  0  0  0  0  0  0  0  0
    4.2139   -1.7510   -0.8193 C   0  0  0  0  0  0  0  0  0  0  0  0
    4.2943   -1.0590   -2.1722 C   0  0  0  0  0  0  0  0  0  0  0  0
    3.6403   -0.7887    0.2059 C   0  0  0  0  0  0  0  0  0  0  0  0
    3.3348   -7.4680    6.2413 H   0  0  0  0  0  0  0  0  0  0  0  0
    2.4341   -8.4812    5.1065 H   0  0  0  0  0  0  0  0  0  0  0  0
    1.6072   -7.1885    5.9630 H   0  0  0  0  0  0  0  0  0  0  0  0
    1.6773   -3.7624    2.6593 H   0  0  0  0  0  0  0  0  0  0  0  0
    2.1049   -3.4132    4.2678 H   0  0  0  0  0  0  0  0  0  0  0  0
    4.3889   -1.9075    4.2833 H   0  0  0  0  0  0  0  0  0  0  0  0
    5.7588   -2.9603    4.1543 H   0  0  0  0  0  0  0  0  0  0  0  0
    4.3775   -3.3829    5.1988 H   0  0  0  0  0  0  0  0  0  0  0  0
    5.8767   -6.7728    4.8788 H   0  0  0  0  0  0  0  0  0  0  0  0
    4.8432   -5.6034    5.6793 H   0  0  0  0  0  0  0  0  0  0  0  0
    6.1480   -5.0807    4.6135 H   0  0  0  0  0  0  0  0  0  0  0  0
    5.7757   -7.2051    2.1127 H   0  0  0  0  0  0  0  0  0  0  0  0
    3.5467   -7.9709    0.6989 H   0  0  0  0  0  0  0  0  0  0  0  0
    4.6410   -5.8827   -0.7878 H   0  0  0  0  0  0  0  0  0  0  0  0
    2.9075   -5.9464    0.7696 H   0  0  0  0  0  0  0  0  0  0  0  0
    2.1585   -4.3665   -0.4645 H   0  0  0  0  0  0  0  0  0  0  0  0
    2.3858   -3.1443    0.7172 H   0  0  0  0  0  0  0  0  0  0  0  0
    3.8658   -3.6960   -1.7958 H   0  0  0  0  0  0  0  0  0  0  0  0
    6.0701   -2.8109   -1.2378 H   0  0  0  0  0  0  0  0  0  0  0  0
    6.8662   -3.5492    0.7652 H   0  0  0  0  0  0  0  0  0  0  0  0
    5.5883   -1.2563    1.7378 H   0  0  0  0  0  0  0  0  0  0  0  0
    4.4526   -3.0392    1.5622 H   0  0  0  0  0  0  0  0  0  0  0  0
    4.9214   -0.1718   -2.1142 H   0  0  0  0  0  0  0  0  0  0  0  0
    3.3011   -0.7626   -2.5139 H   0  0  0  0  0  0  0  0  0  0  0  0
    4.7278   -1.7226   -2.9206 H   0  0  0  0  0  0  0  0  0  0  0  0
    4.2700    0.1025    0.2826 H   0  0  0  0  0  0  0  0  0  0  0  0
    3.5400   -1.2351    1.1910 H   0  0  0  0  0  0  0  0  0  0  0  0
    2.6356   -0.4867   -0.0856 H   0  0  0  0  0  0  0  0  0  0  0  0
  1  2  1  0
  1 28  1  0
  1 29  1  0
  1 30  1  0
  2 10  1  0
  2  3  2  0
  3 12  1  0
  3  4  1  0
  4  5  1  0
  4 31  1  0
  4 32  1  0
  5 24  1  0
  5  6  1  6
  5  7  1  0
  6 33  1  0
  6 34  1  0
  6 35  1  0
  7 18  1  0
  7  8  2  0
  8  9  1  0
  8 10  1  0
  9 36  1  0
  9 37  1  0
  9 38  1  0
 10 11  1  6
 10 14  1  0
 11 12  1  0
 12 13  2  0
 14 15  1  0
 14 16  1  0
 14 39  1  1
 15 40  1  0
 16 24  1  0
 16 17  1  6
 16 18  1  0
 17 41  1  0
 18 19  1  0
 18 42  1  1
 19 20  1  0
 19 43  1  0
 19 44  1  0
 20 25  1  0
 20 21  1  0
 20 45  1  6
 21 22  1  0
 21 25  1  0
 21 46  1  6
 22 23  1  0
 22 24  1  0
 22 47  1  6
 23 48  1  0
 24 49  1  1
 25 26  1  0
 25 27  1  0
 26 50  1  0
 26 51  1  0
 26 52  1  0
 27 53  1  0
 27 54  1  0
 27 55  1  0
M  END
>  <i_m_ct_stereo_status>  (255) 
1

>  <s_m_source_file>  (255) 
/var/tmp/pbs.5076255.sched01/tmp25xsusm8/82mdre8bl4.sdf

>  <i_m_source_file_index>  (255) 
40

>  <i_lp_mmshare_version>  (255) 
48012

>  <i_f3d_flags>  (255) 
0

>  <s_epik_input>  (255) 
W0NIM11DKEMxMjMpPUMoQyhPMik9TylbQ0gyXVtDQEBdNChbQ0gzXSlDKD1DMVtDSDNdKVtDQEBIXTVbQ0BdKFtPSF0pKFtDQEBIXTNbT0hdKVtDQEBIXTRbQ0BIXShbT0hdKVtDQEhdNltDQEBIXShbQ0gyXTUpQzYoW0NIM10pW0NIM10=

>  <s_epik_cmdline>  (255) 
J2VwaWtfcHl0aG9uJywgJy1waHQnLCAnMi4wJywgJy1waCcsICc3LjAnLCAnLXRuJywgJzgnLCAnLW1hJywgJzIwMCcsICctaW1hZScsICc8aW5maWxlLm1hZT4nLCAnLW9tYWUnLCAnPG91dGZpbGUubWFlPic=

>  <r_lp_tautomer_probability>  (255) 
1

>  <r_epik_Ionization_Penalty>  (255) 
2.76441e-05

>  <r_epik_Ionization_Penalty_Charging>  (255) 
0

>  <r_epik_Ionization_Penalty_Neutral>  (255) 
2.76441e-05

>  <r_epik_State_Penalty>  (255) 
-0

>  <r_epik_Charging_Adjusted_Penalty>  (255) 
0

>  <i_epik_Tot_Q>  (255) 
0

>  <i_epik_Tot_abs_Q>  (255) 
0

>  <s_epik_Chemistry_Notes>  (255) 
This compound has an ester and may undergo hydrolysis at high or low pH.

>  <s_lp_Force_Field>  (255) 
OPLS3e

>  <r_lp_Energy>  (255) 
563.781

>  <b_lp_Chiralities_Consistent>  (255) 
1

>  <s_lp_Variant>  (255) 
87:0-1

>  <s_i_glide_gridfile>  (255) 
pfpi4k_grid

>  <i_i_glide_lignum>  (255) 
40

>  <i_i_glide_rotatable_bonds>  (255) 
3

>  <r_i_docking_score>  (255) 
-3.11032

>  <r_i_glide_ligand_efficiency>  (255) 
-0.115197

>  <r_i_glide_ligand_efficiency_sa>  (255) 
-0.345591

>  <r_i_glide_ligand_efficiency_ln>  (255) 
-0.724031

>  <r_i_glide_gscore>  (255) 
-3.11032

>  <r_i_glide_lipo>  (255) 
-0.266069

>  <r_i_glide_hbond>  (255) 
-0.158319

>  <r_i_glide_metal>  (255) 
-0

>  <r_i_glide_rewards>  (255) 
-0.869627

>  <r_i_glide_evdw>  (255) 
-23.0121

>  <r_i_glide_ecoul>  (255) 
-4.25976

>  <r_i_glide_erotb>  (255) 
0

>  <r_i_glide_esite>  (255) 
-0.0267368

>  <r_i_glide_emodel>  (255) 
-34.1546

>  <r_i_glide_energy>  (255) 
-27.2719

>  <r_i_glide_einternal>  (255) 
0.63398

>  <r_i_glide_intrahb_reward>  (255) 
-0

>  <i_i_glide_confnum>  (255) 
2

>  <i_i_glide_posenum>  (255) 
20

>  <r_i_glide_eff_state_penalty>  (255) 
0

>  <ligand_id>  (255) 
87

>  <original_smiles>  (255) 
CC1=C2CC3(C)C4=C(C)C1(OC2=O)C(O)C1(O)C4CC2C(C(O)C31)C2(C)C

>  <smiles>  (255) 
[H]OC1([H])C2([H])C3(O[H])C([H])(O[H])C45OC(=O)C(=C4C([H])([H])[H])C([H])([H])C2(C([H])([H])[H])C(=C5C([H])([H])[H])C3([H])C([H])([H])C2([H])C1([H])C2(C([H])([H])[H])C([H])([H])[H]

$$$$
89:0:0
     RDKit          3D

 80 86  0  0  1  0  0  0  0  0999 V2000
    7.7224   -5.3258    5.7226 C   0  0  0  0  0  0  0  0  0  0  0  0
    6.3800   -5.4140    5.2627 O   0  0  0  0  0  0  0  0  0  0  0  0
    6.1068   -6.5036    4.3780 C   0  0  2  0  0  0  0  0  0  0  0  0
    6.6965   -6.1906    3.0148 C   0  0  0  0  0  0  0  0  0  0  0  0
    5.9279   -6.7867    1.8623 C   0  0  1  0  0  0  0  0  0  0  0  0
    5.8078   -8.3415    2.0126 C   0  0  0  0  0  0  0  0  0  0  0  0
    6.6058   -9.0186    1.3622 O   0  0  0  0  0  0  0  0  0  0  0  0
    4.7872   -9.1201    2.9013 C   0  0  1  0  0  0  0  0  0  0  0  0
    5.2161   -9.9665    4.1904 C   0  0  1  0  0  0  0  0  0  0  0  0
    6.4648  -10.8380    3.9329 C   0  0  0  0  0  0  0  0  0  0  0  0
    5.4562   -9.1913    5.5988 C   0  0  0  0  0  0  0  0  0  0  0  0
    4.6936   -7.7735    5.8909 C   0  0  0  0  0  0  0  0  0  0  0  0
    4.5735   -6.8547    4.5878 C   0  0  2  0  0  0  0  0  0  0  0  0
    3.7691   -7.9986    4.4931 O   0  0  0  0  0  0  0  0  0  0  0  0
    3.4146   -8.6061    3.3377 C   0  0  2  0  0  0  0  0  0  0  0  0
    2.7307   -9.8847    3.8504 C   0  0  0  0  0  0  0  0  0  0  0  0
    3.8902  -10.8091    4.3239 C   0  0  1  0  0  0  0  0  0  0  0  0
    3.8771  -12.1477    3.5549 C   0  0  0  0  0  0  0  0  0  0  0  0
    2.6206   -7.3524    3.0082 C   0  0  1  0  0  0  0  0  0  0  0  0
    1.3118   -7.4399    3.5839 O   0  0  0  0  0  0  0  0  0  0  0  0
    0.1993   -7.0731    2.9075 C   0  0  0  0  0  0  0  0  0  0  0  0
   -1.0754   -7.3076    3.7087 C   0  0  0  0  0  0  0  0  0  0  0  0
    0.1566   -6.5938    1.7710 O   0  0  0  0  0  0  0  0  0  0  0  0
    3.4358   -6.2203    3.6857 C   0  0  2  0  0  0  0  0  0  0  0  0
    3.8728   -5.2415    2.5354 C   0  0  0  0  0  0  0  0  0  0  0  0
    2.7038   -4.6740    1.9072 O   0  0  0  0  0  0  0  0  0  0  0  0
    1.8363   -4.0181    2.9538 O   0  0  0  0  0  0  0  0  0  0  0  0
    2.5599   -2.9384    3.5765 C   0  0  0  0  0  0  0  0  0  0  0  0
    1.7214   -2.4020    4.7369 C   0  0  0  0  0  0  0  0  0  0  0  0
    0.4610   -1.6676    4.2570 C   0  0  0  0  0  0  0  0  0  0  0  0
    0.8070   -0.5477    3.2579 C   0  0  0  0  0  0  0  0  0  0  0  0
    1.6380   -1.1083    2.0845 C   0  0  0  0  0  0  0  0  0  0  0  0
    2.8975   -1.8383    2.5720 C   0  0  0  0  0  0  0  0  0  0  0  0
    3.7591   -3.4761    4.1637 O   0  0  0  0  0  0  0  0  0  0  0  0
    4.5999   -4.1405    3.1310 O   0  0  0  0  0  0  0  0  0  0  0  0
    4.7524   -5.8791    1.3598 C   0  0  0  0  0  0  0  0  0  0  0  0
    5.3812   -4.7077    0.5423 C   0  0  0  0  0  0  0  0  0  0  0  0
    3.9860   -6.6511    0.2422 C   0  0  0  0  0  0  0  0  0  0  0  0
    7.8124   -4.4844    6.4134 H   0  0  0  0  0  0  0  0  0  0  0  0
    8.4246   -5.1576    4.9086 H   0  0  0  0  0  0  0  0  0  0  0  0
    8.0241   -6.2247    6.2619 H   0  0  0  0  0  0  0  0  0  0  0  0
    6.7418   -7.3149    4.7185 H   0  0  0  0  0  0  0  0  0  0  0  0
    6.8368   -5.1189    2.8834 H   0  0  0  0  0  0  0  0  0  0  0  0
    7.7085   -6.5924    2.9913 H   0  0  0  0  0  0  0  0  0  0  0  0
    6.6423   -6.7421    1.0348 H   0  0  0  0  0  0  0  0  0  0  0  0
    4.5287   -9.8667    2.1539 H   0  0  0  0  0  0  0  0  0  0  0  0
    6.6095  -11.5584    4.7395 H   0  0  0  0  0  0  0  0  0  0  0  0
    7.3665  -10.2270    3.8826 H   0  0  0  0  0  0  0  0  0  0  0  0
    6.4043  -11.3906    2.9958 H   0  0  0  0  0  0  0  0  0  0  0  0
    5.2052   -9.8677    6.4186 H   0  0  0  0  0  0  0  0  0  0  0  0
    6.5251   -9.0569    5.7495 H   0  0  0  0  0  0  0  0  0  0  0  0
    3.7837   -7.9075    6.5113 H   0  0  0  0  0  0  0  0  0  0  0  0
    5.3105   -7.2514    6.6219 H   0  0  0  0  0  0  0  0  0  0  0  0
    2.0439   -9.6756    4.6780 H   0  0  0  0  0  0  0  0  0  0  0  0
    2.1472  -10.3448    3.0483 H   0  0  0  0  0  0  0  0  0  0  0  0
    3.7189  -11.0692    5.3682 H   0  0  0  0  0  0  0  0  0  0  0  0
    4.0534  -12.0225    2.4843 H   0  0  0  0  0  0  0  0  0  0  0  0
    2.9140  -12.6421    3.6665 H   0  0  0  0  0  0  0  0  0  0  0  0
    4.6238  -12.8415    3.9362 H   0  0  0  0  0  0  0  0  0  0  0  0
    2.4772   -7.2334    1.9469 H   0  0  0  0  0  0  0  0  0  0  0  0
   -1.1353   -8.3448    4.0245 H   0  0  0  0  0  0  0  0  0  0  0  0
   -1.9548   -7.0896    3.1014 H   0  0  0  0  0  0  0  0  0  0  0  0
   -1.0991   -6.6704    4.5946 H   0  0  0  0  0  0  0  0  0  0  0  0
    2.7800   -5.7088    4.3872 H   0  0  0  0  0  0  0  0  0  0  0  0
    1.4443   -3.1993    5.4248 H   0  0  0  0  0  0  0  0  0  0  0  0
    2.3291   -1.7071    5.3068 H   0  0  0  0  0  0  0  0  0  0  0  0
   -0.2247   -2.3711    3.7889 H   0  0  0  0  0  0  0  0  0  0  0  0
   -0.0692   -1.2304    5.1099 H   0  0  0  0  0  0  0  0  0  0  0  0
   -0.1060   -0.0854    2.8810 H   0  0  0  0  0  0  0  0  0  0  0  0
    1.3649    0.2468    3.7640 H   0  0  0  0  0  0  0  0  0  0  0  0
    1.0175   -1.7891    1.5090 H   0  0  0  0  0  0  0  0  0  0  0  0
    1.9086   -0.2901    1.4136 H   0  0  0  0  0  0  0  0  0  0  0  0
    3.5577   -1.1235    3.0566 H   0  0  0  0  0  0  0  0  0  0  0  0
    3.4518   -2.2215    1.7075 H   0  0  0  0  0  0  0  0  0  0  0  0
    4.6120   -4.0736    0.1108 H   0  0  0  0  0  0  0  0  0  0  0  0
    5.9845   -5.0742   -0.3031 H   0  0  0  0  0  0  0  0  0  0  0  0
    6.0406   -4.0751    1.1276 H   0  0  0  0  0  0  0  0  0  0  0  0
    3.1031   -6.1161   -0.0961 H   0  0  0  0  0  0  0  0  0  0  0  0
    3.6958   -7.6675    0.5039 H   0  0  0  0  0  0  0  0  0  0  0  0
    4.6141   -6.8025   -0.6457 H   0  0  0  0  0  0  0  0  0  0  0  0
  1  2  1  0
  1 39  1  0
  1 40  1  0
  1 41  1  0
  2  3  1  0
  3 13  1  0
  3  4  1  0
  3 42  1  1
  4  5  1  0
  4 43  1  0
  4 44  1  0
  5 36  1  0
  5  6  1  0
  5 45  1  6
  6  7  2  0
  6  8  1  0
  8 15  1  0
  8  9  1  0
  8 46  1  6
  9 17  1  0
  9 10  1  6
  9 11  1  0
 10 47  1  0
 10 48  1  0
 10 49  1  0
 11 12  1  0
 11 50  1  0
 11 51  1  0
 13 12  1  1
 12 52  1  0
 12 53  1  0
 13 24  1  0
 13 14  1  0
 14 15  1  0
 15 16  1  1
 15 19  1  0
 16 17  1  0
 16 54  1  0
 16 55  1  0
 17 18  1  0
 17 56  1  1
 18 57  1  0
 18 58  1  0
 18 59  1  0
 19 20  1  0
 19 24  1  0
 19 60  1  6
 20 21  1  0
 21 22  1  0
 21 23  2  0
 22 61  1  0
 22 62  1  0
 22 63  1  0
 24 25  1  0
 24 64  1  1
 25 35  1  0
 25 26  1  0
 25 36  1  0
 26 27  1  0
 27 28  1  0
 28 33  1  0
 28 29  1  0
 28 34  1  0
 29 30  1  0
 29 65  1  0
 29 66  1  0
 30 31  1  0
 30 67  1  0
 30 68  1  0
 31 32  1  0
 31 69  1  0
 31 70  1  0
 32 33  1  0
 32 71  1  0
 32 72  1  0
 33 73  1  0
 33 74  1  0
 34 35  1  0
 36 37  1  0
 36 38  1  0
 37 75  1  0
 37 76  1  0
 37 77  1  0
 38 78  1  0
 38 79  1  0
 38 80  1  0
M  END
>  <i_m_ct_stereo_status>  (256) 
1

>  <s_m_source_file>  (256) 
/var/tmp/pbs.5076255.sched01/tmpt85fkz7r/123fjz13bl5.sdf

>  <i_m_source_file_index>  (256) 
1

>  <i_lp_mmshare_version>  (256) 
48012

>  <i_f3d_flags>  (256) 
0

>  <s_epik_input>  (256) 
W0NIMl0xW0NIMl1bQ0BAXTIoW0NIM10pW0NASF0oW0NIM10pW0NIMl1bQ0BdKE8zKShbQ0BIXTRPQyg9TylbQ0gzXSlbQ0BIXTJDKD1PKVtDQEhdKFtDSDJdW0NASF01T1tDSDNdKUMoW0NIM10pKFtDSDNdKUM2KFtDQEBIXTRbQ0BAXTEzNSlPT0M3KE9PNilbQ0gyXVtDSDJdW0NIMl1bQ0gyXVtDSDJdNw==

>  <s_epik_cmdline>  (256) 
J2VwaWtfcHl0aG9uJywgJy1waHQnLCAnMi4wJywgJy1waCcsICc3LjAnLCAnLXRuJywgJzgnLCAnLW1hJywgJzIwMCcsICctaW1hZScsICc8aW5maWxlLm1hZT4nLCAnLW9tYWUnLCAnPG91dGZpbGUubWFlPic=

>  <r_lp_tautomer_probability>  (256) 
1

>  <r_epik_Ionization_Penalty>  (256) 
6.53082e-12

>  <r_epik_Ionization_Penalty_Charging>  (256) 
0

>  <r_epik_Ionization_Penalty_Neutral>  (256) 
6.53082e-12

>  <r_epik_State_Penalty>  (256) 
-0

>  <r_epik_Charging_Adjusted_Penalty>  (256) 
0

>  <i_epik_Tot_Q>  (256) 
0

>  <i_epik_Tot_abs_Q>  (256) 
0

>  <s_epik_Chemistry_Notes>  (256) 
This compound has an ester and may undergo hydrolysis at high or low pH.

>  <s_lp_Force_Field>  (256) 
OPLS3e

>  <r_lp_Energy>  (256) 
183.943

>  <b_lp_Chiralities_Consistent>  (256) 
1

>  <s_lp_Variant>  (256) 
89:0-1

>  <s_i_glide_gridfile>  (256) 
pfpi4k_grid

>  <i_i_glide_lignum>  (256) 
1

>  <i_i_glide_rotatable_bonds>  (256) 
3

>  <r_i_docking_score>  (256) 
-2.25766

>  <r_i_glide_ligand_efficiency>  (256) 
-0.059412

>  <r_i_glide_ligand_efficiency_sa>  (256) 
-0.199742

>  <r_i_glide_ligand_efficiency_ln>  (256) 
-0.486817

>  <r_i_glide_gscore>  (256) 
-2.25766

>  <r_i_glide_lipo>  (256) 
-0.336976

>  <r_i_glide_hbond>  (256) 
-0.166156

>  <r_i_glide_metal>  (256) 
-0

>  <r_i_glide_rewards>  (256) 
-0.0763797

>  <r_i_glide_evdw>  (256) 
-24.3412

>  <r_i_glide_ecoul>  (256) 
-3.16408

>  <r_i_glide_erotb>  (256) 
0.0722071

>  <r_i_glide_esite>  (256) 
-0.0586779

>  <r_i_glide_emodel>  (256) 
-31.229

>  <r_i_glide_energy>  (256) 
-27.5053

>  <r_i_glide_einternal>  (256) 
0.53943

>  <r_i_glide_intrahb_reward>  (256) 
-0

>  <i_i_glide_confnum>  (256) 
2

>  <i_i_glide_posenum>  (256) 
16

>  <r_i_glide_eff_state_penalty>  (256) 
0

>  <ligand_id>  (256) 
89

>  <original_smiles>  (256) 
COC1CC2C(=O)C3C4(C)CCC15OC3(CC4C)C(OC(C)=O)C5C1(OOC3(CCCCC3)OO1)C2(C)C

>  <smiles>  (256) 
[H]C([H])([H])OC1([H])C([H])([H])C2([H])C(=O)C3([H])C45OC1(C([H])([H])C([H])([H])C3(C([H])([H])[H])C([H])(C([H])([H])[H])C4([H])[H])C([H])(C5([H])OC(=O)C([H])([H])[H])C1(OOC3(OO1)C([H])([H])C([H])([H])C([H])([H])C([H])([H])C3([H])[H])C2(C([H])([H])[H])C([H])([H])[H]

$$$$
89:0:1
     RDKit          3D

 80 86  0  0  1  0  0  0  0  0999 V2000
    1.0156   -5.2699    9.3944 C   0  0  0  0  0  0  0  0  0  0  0  0
    1.5849   -4.6625    8.2407 O   0  0  0  0  0  0  0  0  0  0  0  0
    1.9628   -5.5566    7.1949 C   0  0  2  0  0  0  0  0  0  0  0  0
    3.1302   -6.4129    7.6685 C   0  0  0  0  0  0  0  0  0  0  0  0
    4.0797   -6.8260    6.5732 C   0  0  1  0  0  0  0  0  0  0  0  0
    3.3179   -7.5867    5.4414 C   0  0  0  0  0  0  0  0  0  0  0  0
    3.3763   -8.8171    5.4809 O   0  0  0  0  0  0  0  0  0  0  0  0
    2.4917   -6.9642    4.2786 C   0  0  1  0  0  0  0  0  0  0  0  0
    0.9025   -7.1166    4.1414 C   0  0  1  0  0  0  0  0  0  0  0  0
    0.4300   -8.5631    4.4024 C   0  0  0  0  0  0  0  0  0  0  0  0
   -0.0591   -6.1310    5.0123 C   0  0  0  0  0  0  0  0  0  0  0  0
    0.4835   -4.6567    5.4771 C   0  0  0  0  0  0  0  0  0  0  0  0
    2.0285   -4.6652    5.8844 C   0  0  2  0  0  0  0  0  0  0  0  0
    1.8598   -4.8699    4.5059 O   0  0  0  0  0  0  0  0  0  0  0  0
    2.7012   -5.5642    3.7036 C   0  0  2  0  0  0  0  0  0  0  0  0
    1.8983   -5.6205    2.3899 C   0  0  0  0  0  0  0  0  0  0  0  0
    0.7913   -6.6924    2.6296 C   0  0  1  0  0  0  0  0  0  0  0  0
    0.9064   -7.8371    1.5995 C   0  0  0  0  0  0  0  0  0  0  0  0
    3.7139   -4.4650    3.9874 C   0  0  1  0  0  0  0  0  0  0  0  0
    3.5711   -3.3701    3.0818 O   0  0  0  0  0  0  0  0  0  0  0  0
    4.3355   -3.2156    1.9720 C   0  0  0  0  0  0  0  0  0  0  0  0
    5.3570   -4.3183    1.7010 C   0  0  0  0  0  0  0  0  0  0  0  0
    4.2310   -2.2597    1.2030 O   0  0  0  0  0  0  0  0  0  0  0  0
    3.3817   -3.9826    5.4222 C   0  0  2  0  0  0  0  0  0  0  0  0
    4.6895   -4.2598    6.2699 C   0  0  0  0  0  0  0  0  0  0  0  0
    5.7836   -3.4845    5.7146 O   0  0  0  0  0  0  0  0  0  0  0  0
    5.3957   -2.0115    5.6759 O   0  0  0  0  0  0  0  0  0  0  0  0
    5.1066   -1.5610    7.0155 C   0  0  0  0  0  0  0  0  0  0  0  0
    4.5557   -0.1206    6.9290 C   0  0  0  0  0  0  0  0  0  0  0  0
    5.6202    0.8903    6.4791 C   0  0  0  0  0  0  0  0  0  0  0  0
    6.8622    0.8334    7.3857 C   0  0  0  0  0  0  0  0  0  0  0  0
    7.4267   -0.5996    7.4583 C   0  0  0  0  0  0  0  0  0  0  0  0
    6.3608   -1.6090    7.9108 C   0  0  0  0  0  0  0  0  0  0  0  0
    4.0506   -2.3624    7.5815 O   0  0  0  0  0  0  0  0  0  0  0  0
    4.4392   -3.8106    7.6240 O   0  0  0  0  0  0  0  0  0  0  0  0
    5.2137   -5.7785    6.3034 C   0  0  0  0  0  0  0  0  0  0  0  0
    6.2458   -5.8886    7.4665 C   0  0  0  0  0  0  0  0  0  0  0  0
    6.0669   -6.2796    5.0882 C   0  0  0  0  0  0  0  0  0  0  0  0
    0.7261   -4.4959   10.1043 H   0  0  0  0  0  0  0  0  0  0  0  0
    1.7215   -5.9283    9.9003 H   0  0  0  0  0  0  0  0  0  0  0  0
    0.1226   -5.8432    9.1433 H   0  0  0  0  0  0  0  0  0  0  0  0
    1.1583   -6.2806    7.1388 H   0  0  0  0  0  0  0  0  0  0  0  0
    3.6639   -5.9402    8.4908 H   0  0  0  0  0  0  0  0  0  0  0  0
    2.7143   -7.3198    8.1095 H   0  0  0  0  0  0  0  0  0  0  0  0
    4.6302   -7.6578    7.0205 H   0  0  0  0  0  0  0  0  0  0  0  0
    2.9049   -7.5948    3.4909 H   0  0  0  0  0  0  0  0  0  0  0  0
   -0.6095   -8.6933    4.1014 H   0  0  0  0  0  0  0  0  0  0  0  0
    0.4934   -8.8079    5.4634 H   0  0  0  0  0  0  0  0  0  0  0  0
    1.0336   -9.3003    3.8716 H   0  0  0  0  0  0  0  0  0  0  0  0
   -0.9907   -5.9752    4.4650 H   0  0  0  0  0  0  0  0  0  0  0  0
   -0.4054   -6.6750    5.8926 H   0  0  0  0  0  0  0  0  0  0  0  0
    0.1359   -3.8425    4.8096 H   0  0  0  0  0  0  0  0  0  0  0  0
   -0.0899   -4.3921    6.3665 H   0  0  0  0  0  0  0  0  0  0  0  0
    1.4600   -4.6510    2.1396 H   0  0  0  0  0  0  0  0  0  0  0  0
    2.5541   -5.9007    1.5642 H   0  0  0  0  0  0  0  0  0  0  0  0
   -0.1802   -6.2378    2.4485 H   0  0  0  0  0  0  0  0  0  0  0  0
    1.8386   -8.3968    1.6927 H   0  0  0  0  0  0  0  0  0  0  0  0
    0.8577   -7.4501    0.5816 H   0  0  0  0  0  0  0  0  0  0  0  0
    0.0842   -8.5436    1.7035 H   0  0  0  0  0  0  0  0  0  0  0  0
    4.7293   -4.7937    3.8989 H   0  0  0  0  0  0  0  0  0  0  0  0
    6.0541   -4.3978    2.5374 H   0  0  0  0  0  0  0  0  0  0  0  0
    5.9207   -4.1225    0.7872 H   0  0  0  0  0  0  0  0  0  0  0  0
    4.8500   -5.2746    1.5776 H   0  0  0  0  0  0  0  0  0  0  0  0
    3.1598   -2.9135    5.3817 H   0  0  0  0  0  0  0  0  0  0  0  0
    3.6991   -0.0826    6.2594 H   0  0  0  0  0  0  0  0  0  0  0  0
    4.1905    0.1666    7.9122 H   0  0  0  0  0  0  0  0  0  0  0  0
    5.9126    0.6937    5.4456 H   0  0  0  0  0  0  0  0  0  0  0  0
    5.2036    1.8987    6.4992 H   0  0  0  0  0  0  0  0  0  0  0  0
    7.6273    1.5172    7.0079 H   0  0  0  0  0  0  0  0  0  0  0  0
    6.6081    1.1842    8.3880 H   0  0  0  0  0  0  0  0  0  0  0  0
    7.8087   -0.8795    6.4771 H   0  0  0  0  0  0  0  0  0  0  0  0
    8.2733   -0.6204    8.1421 H   0  0  0  0  0  0  0  0  0  0  0  0
    6.0599   -1.3772    8.9309 H   0  0  0  0  0  0  0  0  0  0  0  0
    6.7907   -2.6106    7.9393 H   0  0  0  0  0  0  0  0  0  0  0  0
    7.0945   -5.2229    7.3126 H   0  0  0  0  0  0  0  0  0  0  0  0
    6.6554   -6.8994    7.5515 H   0  0  0  0  0  0  0  0  0  0  0  0
    5.8263   -5.6575    8.4427 H   0  0  0  0  0  0  0  0  0  0  0  0
    6.8252   -5.5585    4.7885 H   0  0  0  0  0  0  0  0  0  0  0  0
    5.4987   -6.5588    4.2017 H   0  0  0  0  0  0  0  0  0  0  0  0
    6.5997   -7.2040    5.3325 H   0  0  0  0  0  0  0  0  0  0  0  0
  1  2  1  0
  1 39  1  0
  1 40  1  0
  1 41  1  0
  2  3  1  0
  3 13  1  0
  3  4  1  0
  3 42  1  6
  4  5  1  0
  4 43  1  0
  4 44  1  0
  5 36  1  0
  5  6  1  0
  5 45  1  1
  6  7  2  0
  6  8  1  0
  8 15  1  0
  8  9  1  0
  8 46  1  6
  9 17  1  0
  9 10  1  6
  9 11  1  0
 10 47  1  0
 10 48  1  0
 10 49  1  0
 11 12  1  0
 11 50  1  0
 11 51  1  0
 13 12  1  1
 12 52  1  0
 12 53  1  0
 13 24  1  0
 13 14  1  0
 14 15  1  0
 15 16  1  6
 15 19  1  0
 16 17  1  0
 16 54  1  0
 16 55  1  0
 17 18  1  0
 17 56  1  1
 18 57  1  0
 18 58  1  0
 18 59  1  0
 19 20  1  0
 19 24  1  0
 19 60  1  1
 20 21  1  0
 21 22  1  0
 21 23  2  0
 22 61  1  0
 22 62  1  0
 22 63  1  0
 24 25  1  0
 24 64  1  6
 25 35  1  0
 25 26  1  0
 25 36  1  0
 26 27  1  0
 27 28  1  0
 28 33  1  0
 28 29  1  0
 28 34  1  0
 29 30  1  0
 29 65  1  0
 29 66  1  0
 30 31  1  0
 30 67  1  0
 30 68  1  0
 31 32  1  0
 31 69  1  0
 31 70  1  0
 32 33  1  0
 32 71  1  0
 32 72  1  0
 33 73  1  0
 33 74  1  0
 34 35  1  0
 36 37  1  0
 36 38  1  0
 37 75  1  0
 37 76  1  0
 37 77  1  0
 38 78  1  0
 38 79  1  0
 38 80  1  0
M  END
>  <i_m_ct_stereo_status>  (257) 
1

>  <s_m_source_file>  (257) 
/var/tmp/pbs.5076255.sched01/tmpt85fkz7r/123fjz13bl5.sdf

>  <i_m_source_file_index>  (257) 
1

>  <i_lp_mmshare_version>  (257) 
48012

>  <i_f3d_flags>  (257) 
0

>  <s_epik_input>  (257) 
W0NIMl0xW0NIMl1bQ0BAXTIoW0NIM10pW0NASF0oW0NIM10pW0NIMl1bQ0BdKE8zKShbQ0BIXTRPQyg9TylbQ0gzXSlbQ0BIXTJDKD1PKVtDQEhdKFtDSDJdW0NASF01T1tDSDNdKUMoW0NIM10pKFtDSDNdKUM2KFtDQEBIXTRbQ0BAXTEzNSlPT0M3KE9PNilbQ0gyXVtDSDJdW0NIMl1bQ0gyXVtDSDJdNw==

>  <s_epik_cmdline>  (257) 
J2VwaWtfcHl0aG9uJywgJy1waHQnLCAnMi4wJywgJy1waCcsICc3LjAnLCAnLXRuJywgJzgnLCAnLW1hJywgJzIwMCcsICctaW1hZScsICc8aW5maWxlLm1hZT4nLCAnLW9tYWUnLCAnPG91dGZpbGUubWFlPic=

>  <r_lp_tautomer_probability>  (257) 
1

>  <r_epik_Ionization_Penalty>  (257) 
6.53082e-12

>  <r_epik_Ionization_Penalty_Charging>  (257) 
0

>  <r_epik_Ionization_Penalty_Neutral>  (257) 
6.53082e-12

>  <r_epik_State_Penalty>  (257) 
-0

>  <r_epik_Charging_Adjusted_Penalty>  (257) 
0

>  <i_epik_Tot_Q>  (257) 
0

>  <i_epik_Tot_abs_Q>  (257) 
0

>  <s_epik_Chemistry_Notes>  (257) 
This compound has an ester and may undergo hydrolysis at high or low pH.

>  <s_lp_Force_Field>  (257) 
OPLS3e

>  <r_lp_Energy>  (257) 
183.943

>  <b_lp_Chiralities_Consistent>  (257) 
1

>  <s_lp_Variant>  (257) 
89:0-1

>  <s_i_glide_gridfile>  (257) 
pfpi4k_grid

>  <i_i_glide_lignum>  (257) 
1

>  <i_i_glide_rotatable_bonds>  (257) 
3

>  <r_i_docking_score>  (257) 
-0.739406

>  <r_i_glide_ligand_efficiency>  (257) 
-0.0194581

>  <r_i_glide_ligand_efficiency_sa>  (257) 
-0.0654175

>  <r_i_glide_ligand_efficiency_ln>  (257) 
-0.159438

>  <r_i_glide_gscore>  (257) 
-0.739406

>  <r_i_glide_lipo>  (257) 
-0.201505

>  <r_i_glide_hbond>  (257) 
0

>  <r_i_glide_metal>  (257) 
-0

>  <r_i_glide_rewards>  (257) 
-0.0184214

>  <r_i_glide_evdw>  (257) 
-16.7226

>  <r_i_glide_ecoul>  (257) 
1.63011

>  <r_i_glide_erotb>  (257) 
0.0722071

>  <r_i_glide_esite>  (257) 
-7.16236e-05

>  <r_i_glide_emodel>  (257) 
-13.5717

>  <r_i_glide_energy>  (257) 
-15.0925

>  <r_i_glide_einternal>  (257) 
5.13704

>  <r_i_glide_intrahb_reward>  (257) 
-0

>  <i_i_glide_confnum>  (257) 
1

>  <i_i_glide_posenum>  (257) 
3

>  <r_i_glide_eff_state_penalty>  (257) 
0

>  <ligand_id>  (257) 
89

>  <original_smiles>  (257) 
COC1CC2C(=O)C3C4(C)CCC15OC3(CC4C)C(OC(C)=O)C5C1(OOC3(CCCCC3)OO1)C2(C)C

>  <smiles>  (257) 
[H]C([H])([H])OC1([H])C([H])([H])C2([H])C(=O)C3([H])C45OC1(C([H])([H])C([H])([H])C3(C([H])([H])[H])C([H])(C([H])([H])[H])C4([H])[H])C([H])(C5([H])OC(=O)C([H])([H])[H])C1(OOC3(OO1)C([H])([H])C([H])([H])C([H])([H])C([H])([H])C3([H])[H])C2(C([H])([H])[H])C([H])([H])[H]

$$$$
90:0:0
     RDKit          3D

 31 36  0  0  1  0  0  0  0  0999 V2000
    7.5090   -3.2714   -1.8893 C   0  0  0  0  0  0  0  0  0  0  0  0
    6.2679   -3.5066   -2.5489 O   0  0  0  0  0  0  0  0  0  0  0  0
    5.1228   -2.8153   -2.0813 C   0  0  2  0  0  0  0  0  0  0  0  0
    4.3027   -3.5409   -0.9650 C   0  0  1  0  0  0  0  0  0  0  0  0
    4.9622   -4.2241    0.2342 C   0  0  0  0  0  0  0  0  0  0  0  0
    4.8102   -2.9261    1.0269 C   0  0  1  0  0  0  0  0  0  0  0  0
    5.8852   -1.8381    0.9422 C   0  0  0  0  0  0  0  0  0  0  0  0
    5.4013   -0.9061   -0.1755 C   0  0  2  0  0  0  0  0  0  0  0  0
    3.8944   -1.0609   -0.3400 C   0  0  2  0  0  0  0  0  0  0  0  0
    3.6770   -2.5425    0.0523 C   0  0  1  0  0  0  0  0  0  0  0  0
    4.0907   -0.6394   -1.8213 C   0  0  2  0  0  0  0  0  0  0  0  0
    3.4150   -1.3338   -2.9794 C   0  0  1  0  0  0  0  0  0  0  0  0
    4.2128   -1.5369   -4.1364 O   0  0  0  0  0  0  0  0  0  0  0  0
    4.0937   -2.6149   -3.2168 C   0  0  1  0  0  0  0  0  0  0  0  0
    5.4252   -1.3460   -1.6583 C   0  0  2  0  0  0  0  0  0  0  0  0
    8.2878   -3.8591   -2.3427 H   0  0  0  0  0  0  0  0  0  0  0  0
    7.4906   -3.5372   -0.8305 H   0  0  0  0  0  0  0  0  0  0  0  0
    7.8436   -2.2511   -1.9801 H   0  0  0  0  0  0  0  0  0  0  0  0
    3.5340   -4.2209   -1.3578 H   0  0  0  0  0  0  0  0  0  0  0  0
    4.3485   -5.0181    0.6400 H   0  0  0  0  0  0  0  0  0  0  0  0
    5.9822   -4.5842    0.0874 H   0  0  0  0  0  0  0  0  0  0  0  0
    4.4504   -3.1142    2.0426 H   0  0  0  0  0  0  0  0  0  0  0  0
    5.9350   -1.2955    1.8820 H   0  0  0  0  0  0  0  0  0  0  0  0
    6.8827   -2.2238    0.7696 H   0  0  0  0  0  0  0  0  0  0  0  0
    5.7313    0.1258   -0.0635 H   0  0  0  0  0  0  0  0  0  0  0  0
    3.3365   -0.3537    0.2719 H   0  0  0  0  0  0  0  0  0  0  0  0
    2.6712   -2.8085    0.3885 H   0  0  0  0  0  0  0  0  0  0  0  0
    4.2637    0.4160   -2.0001 H   0  0  0  0  0  0  0  0  0  0  0  0
    2.3404   -1.2292   -3.1321 H   0  0  0  0  0  0  0  0  0  0  0  0
    3.5234   -3.4814   -3.5984 H   0  0  0  0  0  0  0  0  0  0  0  0
    6.1918   -0.8791   -2.2730 H   0  0  0  0  0  0  0  0  0  0  0  0
  1  2  1  0
  1 16  1  0
  1 17  1  0
  1 18  1  0
  3  2  1  6
  3 14  1  0
  3 15  1  0
  3  4  1  0
  4 10  1  0
  4  5  1  0
  4 19  1  6
  5  6  1  0
  5 20  1  0
  5 21  1  0
  6 10  1  0
  6  7  1  0
  6 22  1  1
  7  8  1  0
  7 23  1  0
  7 24  1  0
  8 15  1  0
  8  9  1  0
  8 25  1  6
  9 10  1  0
  9 11  1  0
  9 26  1  1
 10 27  1  1
 11 12  1  0
 11 15  1  0
 11 28  1  1
 12 14  1  0
 12 13  1  0
 12 29  1  6
 13 14  1  0
 14 30  1  6
 15 31  1  6
M  END
>  <i_m_ct_stereo_status>  (258) 
1

>  <s_m_source_file>  (258) 
/var/tmp/pbs.5076255.sched01/tmpt85fkz7r/123fjz13bl5.sdf

>  <i_m_source_file_index>  (258) 
2

>  <i_lp_mmshare_version>  (258) 
48012

>  <i_f3d_flags>  (258) 
2

>  <s_epik_input>  (258) 
W0NIM11PW0NAXTEyW0NAQEhdM1tDQEhdNFtDQEBIXShbQ0gyXTMpW0NIMl1bQ0BASF01W0NAQEhdNFtDQEBIXShbQ0BIXTI1KVtDQEBIXTZbQ0BIXTFPNg==

>  <s_epik_cmdline>  (258) 
J2VwaWtfcHl0aG9uJywgJy1waHQnLCAnMi4wJywgJy1waCcsICc3LjAnLCAnLXRuJywgJzgnLCAnLW1hJywgJzIwMCcsICctaW1hZScsICc8aW5maWxlLm1hZT4nLCAnLW9tYWUnLCAnPG91dGZpbGUubWFlPic=

>  <r_lp_tautomer_probability>  (258) 
1

>  <r_epik_Ionization_Penalty>  (258) 
2.46384e-11

>  <r_epik_Ionization_Penalty_Charging>  (258) 
0

>  <r_epik_Ionization_Penalty_Neutral>  (258) 
2.46384e-11

>  <r_epik_State_Penalty>  (258) 
-0

>  <r_epik_Charging_Adjusted_Penalty>  (258) 
0

>  <i_epik_Tot_Q>  (258) 
0

>  <i_epik_Tot_abs_Q>  (258) 
0

>  <s_lp_Force_Field>  (258) 
OPLS3e

>  <r_lp_Energy>  (258) 
65.7278

>  <b_lp_Chiralities_Consistent>  (258) 
0

>  <s_lp_Variant>  (258) 
90:0-1

>  <s_i_glide_gridfile>  (258) 
pfpi4k_grid

>  <i_i_glide_lignum>  (258) 
2

>  <i_i_glide_rotatable_bonds>  (258) 
1

>  <r_i_docking_score>  (258) 
-3.6529

>  <r_i_glide_ligand_efficiency>  (258) 
-0.243527

>  <r_i_glide_ligand_efficiency_sa>  (258) 
-0.600588

>  <r_i_glide_ligand_efficiency_ln>  (258) 
-0.985127

>  <r_i_glide_gscore>  (258) 
-3.6529

>  <r_i_glide_lipo>  (258) 
-0.427491

>  <r_i_glide_hbond>  (258) 
-0.195932

>  <r_i_glide_metal>  (258) 
-0

>  <r_i_glide_rewards>  (258) 
-2.01638

>  <r_i_glide_evdw>  (258) 
-13.0151

>  <r_i_glide_ecoul>  (258) 
-2.41564

>  <r_i_glide_erotb>  (258) 
0

>  <r_i_glide_esite>  (258) 
0

>  <r_i_glide_emodel>  (258) 
-16.3567

>  <r_i_glide_energy>  (258) 
-15.4308

>  <r_i_glide_einternal>  (258) 
4.39876

>  <r_i_glide_intrahb_reward>  (258) 
-0

>  <i_i_glide_confnum>  (258) 
1

>  <i_i_glide_posenum>  (258) 
5

>  <r_i_glide_eff_state_penalty>  (258) 
0

>  <ligand_id>  (258) 
90

>  <original_smiles>  (258) 
COC12C3CC4CC5C(C43)C(C3OC31)C52

>  <smiles>  (258) 
[H]C([H])([H])OC12C3([H])OC3([H])C3([H])C4([H])C([H])(C([H])([H])C5([H])C([H])([H])C1([H])C54[H])C32[H]

$$$$
90:0:1
     RDKit          3D

 31 36  0  0  1  0  0  0  0  0999 V2000
    4.6940   -0.7935    1.5786 C   0  0  0  0  0  0  0  0  0  0  0  0
    5.5972   -1.8976    1.7664 O   0  0  0  0  0  0  0  0  0  0  0  0
    5.9890   -2.6449    0.5915 C   0  0  2  0  0  0  0  0  0  0  0  0
    5.0235   -3.8295    0.2766 C   0  0  1  0  0  0  0  0  0  0  0  0
    3.4917   -3.6961    0.3412 C   0  0  0  0  0  0  0  0  0  0  0  0
    3.5213   -3.3576   -1.1479 C   0  0  1  0  0  0  0  0  0  0  0  0
    3.7050   -1.9152   -1.6202 C   0  0  0  0  0  0  0  0  0  0  0  0
    5.2090   -1.7828   -1.8658 C   0  0  2  0  0  0  0  0  0  0  0  0
    5.8019   -3.1723   -2.1019 C   0  0  2  0  0  0  0  0  0  0  0  0
    4.8802   -4.0730   -1.2536 C   0  0  1  0  0  0  0  0  0  0  0  0
    7.1446   -2.6104   -1.5609 C   0  0  2  0  0  0  0  0  0  0  0  0
    8.0105   -3.3623   -0.5858 C   0  0  1  0  0  0  0  0  0  0  0  0
    8.5770   -2.5769    0.4748 O   0  0  0  0  0  0  0  0  0  0  0  0
    7.3662   -3.3068    0.7754 C   0  0  1  0  0  0  0  0  0  0  0  0
    6.2006   -1.7762   -0.6820 C   0  0  2  0  0  0  0  0  0  0  0  0
    4.5281   -0.3046    2.5443 H   0  0  0  0  0  0  0  0  0  0  0  0
    3.7484   -1.0701    1.2001 H   0  0  0  0  0  0  0  0  0  0  0  0
    5.1333   -0.0183    0.9308 H   0  0  0  0  0  0  0  0  0  0  0  0
    5.3110   -4.7593    0.7921 H   0  0  0  0  0  0  0  0  0  0  0  0
    3.0303   -4.6722    0.5142 H   0  0  0  0  0  0  0  0  0  0  0  0
    3.1004   -2.9520    0.9860 H   0  0  0  0  0  0  0  0  0  0  0  0
    2.7258   -3.8824   -1.6965 H   0  0  0  0  0  0  0  0  0  0  0  0
    3.1594   -1.7450   -2.5529 H   0  0  0  0  0  0  0  0  0  0  0  0
    3.3119   -1.1717   -0.9218 H   0  0  0  0  0  0  0  0  0  0  0  0
    5.4726   -1.0319   -2.5941 H   0  0  0  0  0  0  0  0  0  0  0  0
    5.8282   -3.4250   -3.1740 H   0  0  0  0  0  0  0  0  0  0  0  0
    4.8441   -5.1136   -1.5241 H   0  0  0  0  0  0  0  0  0  0  0  0
    7.6860   -1.9875   -2.2708 H   0  0  0  0  0  0  0  0  0  0  0  0
    8.5704   -4.2450   -0.8976 H   0  0  0  0  0  0  0  0  0  0  0  0
    7.4888   -4.1275    1.4729 H   0  0  0  0  0  0  0  0  0  0  0  0
    6.6323   -0.8021   -0.4572 H   0  0  0  0  0  0  0  0  0  0  0  0
  1  2  1  0
  1 16  1  0
  1 17  1  0
  1 18  1  0
  3  2  1  1
  3 14  1  0
  3 15  1  0
  3  4  1  0
  4 10  1  0
  4  5  1  0
  4 19  1  1
  5  6  1  0
  5 20  1  0
  5 21  1  0
  6 10  1  0
  6  7  1  0
  6 22  1  6
  7  8  1  0
  7 23  1  0
  7 24  1  0
  8 15  1  0
  8  9  1  0
  8 25  1  6
  9 10  1  0
  9 11  1  0
  9 26  1  6
 10 27  1  1
 11 12  1  0
 11 15  1  0
 11 28  1  6
 12 14  1  0
 12 13  1  0
 12 29  1  6
 13 14  1  0
 14 30  1  1
 15 31  1  1
M  END
>  <i_m_ct_stereo_status>  (259) 
1

>  <s_m_source_file>  (259) 
/var/tmp/pbs.5076255.sched01/tmpt85fkz7r/123fjz13bl5.sdf

>  <i_m_source_file_index>  (259) 
2

>  <i_lp_mmshare_version>  (259) 
48012

>  <i_f3d_flags>  (259) 
2

>  <s_epik_input>  (259) 
W0NIM11PW0NAXTEyW0NAQEhdM1tDQEhdNFtDQEBIXShbQ0gyXTMpW0NIMl1bQ0BASF01W0NAQEhdNFtDQEBIXShbQ0BIXTI1KVtDQEBIXTZbQ0BIXTFPNg==

>  <s_epik_cmdline>  (259) 
J2VwaWtfcHl0aG9uJywgJy1waHQnLCAnMi4wJywgJy1waCcsICc3LjAnLCAnLXRuJywgJzgnLCAnLW1hJywgJzIwMCcsICctaW1hZScsICc8aW5maWxlLm1hZT4nLCAnLW9tYWUnLCAnPG91dGZpbGUubWFlPic=

>  <r_lp_tautomer_probability>  (259) 
1

>  <r_epik_Ionization_Penalty>  (259) 
2.46384e-11

>  <r_epik_Ionization_Penalty_Charging>  (259) 
0

>  <r_epik_Ionization_Penalty_Neutral>  (259) 
2.46384e-11

>  <r_epik_State_Penalty>  (259) 
-0

>  <r_epik_Charging_Adjusted_Penalty>  (259) 
0

>  <i_epik_Tot_Q>  (259) 
0

>  <i_epik_Tot_abs_Q>  (259) 
0

>  <s_lp_Force_Field>  (259) 
OPLS3e

>  <r_lp_Energy>  (259) 
65.7278

>  <b_lp_Chiralities_Consistent>  (259) 
0

>  <s_lp_Variant>  (259) 
90:0-1

>  <s_i_glide_gridfile>  (259) 
pfpi4k_grid

>  <i_i_glide_lignum>  (259) 
2

>  <i_i_glide_rotatable_bonds>  (259) 
1

>  <r_i_docking_score>  (259) 
-3.6041

>  <r_i_glide_ligand_efficiency>  (259) 
-0.240273

>  <r_i_glide_ligand_efficiency_sa>  (259) 
-0.592564

>  <r_i_glide_ligand_efficiency_ln>  (259) 
-0.971965

>  <r_i_glide_gscore>  (259) 
-3.6041

>  <r_i_glide_lipo>  (259) 
-0.77371

>  <r_i_glide_hbond>  (259) 
0

>  <r_i_glide_metal>  (259) 
-0

>  <r_i_glide_rewards>  (259) 
-2.01638

>  <r_i_glide_evdw>  (259) 
-15.2497

>  <r_i_glide_ecoul>  (259) 
-0.343494

>  <r_i_glide_erotb>  (259) 
0

>  <r_i_glide_esite>  (259) 
0

>  <r_i_glide_emodel>  (259) 
-16.6915

>  <r_i_glide_energy>  (259) 
-15.5932

>  <r_i_glide_einternal>  (259) 
4.18104

>  <r_i_glide_intrahb_reward>  (259) 
-0

>  <i_i_glide_confnum>  (259) 
1

>  <i_i_glide_posenum>  (259) 
9

>  <r_i_glide_eff_state_penalty>  (259) 
0

>  <ligand_id>  (259) 
90

>  <original_smiles>  (259) 
COC12C3CC4CC5C(C43)C(C3OC31)C52

>  <smiles>  (259) 
[H]C([H])([H])OC12C3([H])OC3([H])C3([H])C4([H])C([H])(C([H])([H])C5([H])C([H])([H])C1([H])C54[H])C32[H]

$$$$
90:0:2
     RDKit          3D

 31 36  0  0  1  0  0  0  0  0999 V2000
    2.8670   -1.0419    2.1587 C   0  0  0  0  0  0  0  0  0  0  0  0
    2.6782   -2.0621    1.1886 O   0  0  0  0  0  0  0  0  0  0  0  0
    3.8465   -2.4827    0.4778 C   0  0  2  0  0  0  0  0  0  0  0  0
    3.4924   -3.7260   -0.3800 C   0  0  1  0  0  0  0  0  0  0  0  0
    2.2144   -3.7612   -1.2211 C   0  0  0  0  0  0  0  0  0  0  0  0
    3.0245   -3.3058   -2.4279 C   0  0  1  0  0  0  0  0  0  0  0  0
    3.1518   -1.8143   -2.6958 C   0  0  0  0  0  0  0  0  0  0  0  0
    4.4582   -1.4397   -1.9967 C   0  0  2  0  0  0  0  0  0  0  0  0
    5.3426   -2.6724   -1.8441 C   0  0  2  0  0  0  0  0  0  0  0  0
    4.2986   -3.7917   -1.7071 C   0  0  1  0  0  0  0  0  0  0  0  0
    5.9558   -1.9713   -0.6065 C   0  0  2  0  0  0  0  0  0  0  0  0
    6.2551   -2.7046    0.6773 C   0  0  1  0  0  0  0  0  0  0  0  0
    5.9364   -1.9952    1.8879 O   0  0  0  0  0  0  0  0  0  0  0  0
    4.9717   -2.9477    1.3950 C   0  0  1  0  0  0  0  0  0  0  0  0
    4.5346   -1.4195   -0.4421 C   0  0  2  0  0  0  0  0  0  0  0  0
    1.9008   -0.7599    2.5761 H   0  0  0  0  0  0  0  0  0  0  0  0
    3.3183   -0.1371    1.7506 H   0  0  0  0  0  0  0  0  0  0  0  0
    3.4860   -1.3988    2.9815 H   0  0  0  0  0  0  0  0  0  0  0  0
    3.5650   -4.6693    0.1664 H   0  0  0  0  0  0  0  0  0  0  0  0
    1.7990   -4.7596   -1.3188 H   0  0  0  0  0  0  0  0  0  0  0  0
    1.4410   -3.0611   -0.9097 H   0  0  0  0  0  0  0  0  0  0  0  0
    2.7890   -3.8817   -3.3208 H   0  0  0  0  0  0  0  0  0  0  0  0
    3.2102   -1.6276   -3.7679 H   0  0  0  0  0  0  0  0  0  0  0  0
    2.2993   -1.2567   -2.3199 H   0  0  0  0  0  0  0  0  0  0  0  0
    4.9682   -0.5734   -2.4132 H   0  0  0  0  0  0  0  0  0  0  0  0
    6.0229   -2.7939   -2.6902 H   0  0  0  0  0  0  0  0  0  0  0  0
    4.6278   -4.7945   -1.9656 H   0  0  0  0  0  0  0  0  0  0  0  0
    6.6214   -1.1476   -0.8281 H   0  0  0  0  0  0  0  0  0  0  0  0
    7.0387   -3.4553    0.7257 H   0  0  0  0  0  0  0  0  0  0  0  0
    4.8198   -3.8129    2.0331 H   0  0  0  0  0  0  0  0  0  0  0  0
    4.5682   -0.4018   -0.0512 H   0  0  0  0  0  0  0  0  0  0  0  0
  1  2  1  0
  1 16  1  0
  1 17  1  0
  1 18  1  0
  3  2  1  1
  3 14  1  0
  3 15  1  0
  3  4  1  0
  4 10  1  0
  4  5  1  0
  4 19  1  1
  5  6  1  0
  5 20  1  0
  5 21  1  0
  6 10  1  0
  6  7  1  0
  6 22  1  6
  7  8  1  0
  7 23  1  0
  7 24  1  0
  8 15  1  0
  8  9  1  0
  8 25  1  6
  9 10  1  0
  9 11  1  0
  9 26  1  6
 10 27  1  6
 11 12  1  0
 11 15  1  0
 11 28  1  6
 12 14  1  0
 12 13  1  0
 12 29  1  1
 13 14  1  0
 14 30  1  1
 15 31  1  1
M  END
>  <i_m_ct_stereo_status>  (260) 
1

>  <s_m_source_file>  (260) 
/var/tmp/pbs.5076255.sched01/tmpt85fkz7r/123fjz13bl5.sdf

>  <i_m_source_file_index>  (260) 
2

>  <i_lp_mmshare_version>  (260) 
48012

>  <i_f3d_flags>  (260) 
2

>  <s_epik_input>  (260) 
W0NIM11PW0NAXTEyW0NAQEhdM1tDQEhdNFtDQEBIXShbQ0gyXTMpW0NIMl1bQ0BASF01W0NAQEhdNFtDQEBIXShbQ0BIXTI1KVtDQEBIXTZbQ0BIXTFPNg==

>  <s_epik_cmdline>  (260) 
J2VwaWtfcHl0aG9uJywgJy1waHQnLCAnMi4wJywgJy1waCcsICc3LjAnLCAnLXRuJywgJzgnLCAnLW1hJywgJzIwMCcsICctaW1hZScsICc8aW5maWxlLm1hZT4nLCAnLW9tYWUnLCAnPG91dGZpbGUubWFlPic=

>  <r_lp_tautomer_probability>  (260) 
1

>  <r_epik_Ionization_Penalty>  (260) 
2.46384e-11

>  <r_epik_Ionization_Penalty_Charging>  (260) 
0

>  <r_epik_Ionization_Penalty_Neutral>  (260) 
2.46384e-11

>  <r_epik_State_Penalty>  (260) 
-0

>  <r_epik_Charging_Adjusted_Penalty>  (260) 
0

>  <i_epik_Tot_Q>  (260) 
0

>  <i_epik_Tot_abs_Q>  (260) 
0

>  <s_lp_Force_Field>  (260) 
OPLS3e

>  <r_lp_Energy>  (260) 
65.7278

>  <b_lp_Chiralities_Consistent>  (260) 
0

>  <s_lp_Variant>  (260) 
90:0-1

>  <s_i_glide_gridfile>  (260) 
pfpi4k_grid

>  <i_i_glide_lignum>  (260) 
2

>  <i_i_glide_rotatable_bonds>  (260) 
1

>  <r_i_docking_score>  (260) 
-2.60598

>  <r_i_glide_ligand_efficiency>  (260) 
-0.173732

>  <r_i_glide_ligand_efficiency_sa>  (260) 
-0.42846

>  <r_i_glide_ligand_efficiency_ln>  (260) 
-0.70279

>  <r_i_glide_gscore>  (260) 
-2.60598

>  <r_i_glide_lipo>  (260) 
-0.129616

>  <r_i_glide_hbond>  (260) 
0

>  <r_i_glide_metal>  (260) 
-0

>  <r_i_glide_rewards>  (260) 
-2.01638

>  <r_i_glide_evdw>  (260) 
-12.8194

>  <r_i_glide_ecoul>  (260) 
1.20652

>  <r_i_glide_erotb>  (260) 
0

>  <r_i_glide_esite>  (260) 
0

>  <r_i_glide_emodel>  (260) 
-13.7543

>  <r_i_glide_energy>  (260) 
-11.6128

>  <r_i_glide_einternal>  (260) 
0.899081

>  <r_i_glide_intrahb_reward>  (260) 
-0

>  <i_i_glide_confnum>  (260) 
1

>  <i_i_glide_posenum>  (260) 
17

>  <r_i_glide_eff_state_penalty>  (260) 
0

>  <ligand_id>  (260) 
90

>  <original_smiles>  (260) 
COC12C3CC4CC5C(C43)C(C3OC31)C52

>  <smiles>  (260) 
[H]C([H])([H])OC12C3([H])OC3([H])C3([H])C4([H])C([H])(C([H])([H])C5([H])C([H])([H])C1([H])C54[H])C32[H]

$$$$
91:0:0
     RDKit          3D

 40 43  0  0  1  0  0  0  0  0999 V2000
    7.2335   -3.7221   -0.0208 C   0  0  0  0  0  0  0  0  0  0  0  0
    6.2654   -2.5305    0.0075 C   0  0  2  0  0  0  0  0  0  0  0  0
    5.7738   -2.2644    1.4404 C   0  0  0  0  0  0  0  0  0  0  0  0
    5.0161   -0.9551    1.5274 C   0  0  1  0  0  0  0  0  0  0  0  0
    4.1875   -0.5380    0.3246 C   0  0  1  0  0  0  0  0  0  0  0  0
    4.0521   -1.4662   -0.8811 C   0  0  2  0  0  0  0  0  0  0  0  0
    5.0507   -2.6941   -0.9408 C   0  0  1  0  0  0  0  0  0  0  0  0
    5.4463   -2.8550   -2.4639 C   0  0  0  0  0  0  0  0  0  0  0  0
    4.3633   -2.0332   -3.1243 C   0  0  2  0  0  0  0  0  0  0  0  0
    3.1110   -2.9222   -3.3419 C   0  0  0  0  0  0  0  0  0  0  0  0
    4.4010   -1.1132   -4.2441 O   0  0  0  0  0  0  0  0  0  0  0  0
    3.7003   -0.1573   -3.3707 C   0  0  0  0  0  0  0  0  0  0  0  0
    4.3909   -0.8314   -2.2011 C   0  0  1  0  0  0  0  0  0  0  0  0
    3.5124   -0.8441    1.6453 C   0  0  0  0  0  0  0  0  0  0  0  0
    2.6281   -2.0687    1.8041 C   0  0  0  0  0  0  0  0  0  0  0  0
    2.9291    0.3188    2.4243 C   0  0  0  0  0  0  0  0  0  0  0  0
    6.7481   -4.6549    0.2732 H   0  0  0  0  0  0  0  0  0  0  0  0
    8.0700   -3.5605    0.6626 H   0  0  0  0  0  0  0  0  0  0  0  0
    7.6602   -3.8491   -1.0170 H   0  0  0  0  0  0  0  0  0  0  0  0
    6.8403   -1.6608   -0.3117 H   0  0  0  0  0  0  0  0  0  0  0  0
    5.1591   -3.0935    1.7953 H   0  0  0  0  0  0  0  0  0  0  0  0
    6.6103   -2.2030    2.1263 H   0  0  0  0  0  0  0  0  0  0  0  0
    5.5964   -0.1629    1.9991 H   0  0  0  0  0  0  0  0  0  0  0  0
    4.2131    0.5191    0.0808 H   0  0  0  0  0  0  0  0  0  0  0  0
    3.0192   -1.8072   -0.9055 H   0  0  0  0  0  0  0  0  0  0  0  0
    4.5003   -3.5886   -0.6376 H   0  0  0  0  0  0  0  0  0  0  0  0
    6.4289   -2.4252   -2.6596 H   0  0  0  0  0  0  0  0  0  0  0  0
    5.4675   -3.8922   -2.7992 H   0  0  0  0  0  0  0  0  0  0  0  0
    2.9066   -3.5622   -2.4818 H   0  0  0  0  0  0  0  0  0  0  0  0
    3.2504   -3.5777   -4.1971 H   0  0  0  0  0  0  0  0  0  0  0  0
    2.2015   -2.3525   -3.5205 H   0  0  0  0  0  0  0  0  0  0  0  0
    4.0336    0.8684   -3.5211 H   0  0  0  0  0  0  0  0  0  0  0  0
    2.6157   -0.2353   -3.3905 H   0  0  0  0  0  0  0  0  0  0  0  0
    5.3877   -0.3829   -2.1605 H   0  0  0  0  0  0  0  0  0  0  0  0
    1.6176   -1.8463    1.4532 H   0  0  0  0  0  0  0  0  0  0  0  0
    2.5807   -2.3636    2.8533 H   0  0  0  0  0  0  0  0  0  0  0  0
    3.0037   -2.9125    1.2252 H   0  0  0  0  0  0  0  0  0  0  0  0
    1.9262    0.5580    2.0630 H   0  0  0  0  0  0  0  0  0  0  0  0
    3.5485    1.2081    2.3012 H   0  0  0  0  0  0  0  0  0  0  0  0
    2.8809    0.0787    3.4877 H   0  0  0  0  0  0  0  0  0  0  0  0
  1  2  1  0
  1 17  1  0
  1 18  1  0
  1 19  1  0
  2  7  1  0
  2  3  1  0
  2 20  1  6
  3  4  1  0
  3 21  1  0
  3 22  1  0
  4 14  1  0
  4  5  1  0
  4 23  1  1
  5  6  1  0
  5 14  1  0
  5 24  1  6
  6 13  1  0
  6  7  1  0
  6 25  1  6
  7  8  1  0
  7 26  1  1
  8  9  1  0
  8 27  1  0
  8 28  1  0
  9 13  1  0
  9 10  1  6
  9 11  1  0
 10 29  1  0
 10 30  1  0
 10 31  1  0
 11 12  1  0
 12 13  1  0
 12 32  1  0
 12 33  1  0
 13 34  1  1
 14 15  1  0
 14 16  1  0
 15 35  1  0
 15 36  1  0
 15 37  1  0
 16 38  1  0
 16 39  1  0
 16 40  1  0
M  END
>  <i_m_ct_stereo_status>  (261) 
1

>  <s_m_source_file>  (261) 
/var/tmp/pbs.5076255.sched01/tmpt85fkz7r/123fjz13bl5.sdf

>  <i_m_source_file_index>  (261) 
3

>  <i_lp_mmshare_version>  (261) 
48012

>  <i_f3d_flags>  (261) 
0

>  <s_epik_input>  (261) 
W0NIMl0xW0NASF0yW0NASF0oW0NIM10pW0NIMl1bQ0BIXShDMyhbQ0gzXSlbQ0gzXSlbQ0BIXTNbQ0BIXTJbQ0BIXShbQ0gyXU80KVtDQF0xNFtDSDNd

>  <s_epik_cmdline>  (261) 
J2VwaWtfcHl0aG9uJywgJy1waHQnLCAnMi4wJywgJy1waCcsICc3LjAnLCAnLXRuJywgJzgnLCAnLW1hJywgJzIwMCcsICctaW1hZScsICc8aW5maWxlLm1hZT4nLCAnLW9tYWUnLCAnPG91dGZpbGUubWFlPic=

>  <r_lp_tautomer_probability>  (261) 
1

>  <r_epik_Ionization_Penalty>  (261) 
1.419e-10

>  <r_epik_Ionization_Penalty_Charging>  (261) 
0

>  <r_epik_Ionization_Penalty_Neutral>  (261) 
1.419e-10

>  <r_epik_State_Penalty>  (261) 
-0

>  <r_epik_Charging_Adjusted_Penalty>  (261) 
0

>  <i_epik_Tot_Q>  (261) 
0

>  <i_epik_Tot_abs_Q>  (261) 
0

>  <s_lp_Force_Field>  (261) 
OPLS3e

>  <r_lp_Energy>  (261) 
66.5771

>  <b_lp_Chiralities_Consistent>  (261) 
1

>  <s_lp_Variant>  (261) 
91:0-1

>  <s_i_glide_gridfile>  (261) 
pfpi4k_grid

>  <i_i_glide_lignum>  (261) 
3

>  <i_i_glide_rotatable_bonds>  (261) 
0

>  <r_i_docking_score>  (261) 
-4.52259

>  <r_i_glide_ligand_efficiency>  (261) 
-0.282662

>  <r_i_glide_ligand_efficiency_sa>  (261) 
-0.712263

>  <r_i_glide_ligand_efficiency_ln>  (261) 
-1.1988

>  <r_i_glide_gscore>  (261) 
-4.52259

>  <r_i_glide_lipo>  (261) 
-1.01751

>  <r_i_glide_hbond>  (261) 
-0.101506

>  <r_i_glide_metal>  (261) 
-0

>  <r_i_glide_rewards>  (261) 
-1.9067

>  <r_i_glide_evdw>  (261) 
-19.7917

>  <r_i_glide_ecoul>  (261) 
-3.38188

>  <r_i_glide_erotb>  (261) 
0

>  <r_i_glide_esite>  (261) 
0

>  <r_i_glide_emodel>  (261) 
-29.471

>  <r_i_glide_energy>  (261) 
-23.1736

>  <r_i_glide_einternal>  (261) 
0

>  <r_i_glide_intrahb_reward>  (261) 
-0

>  <i_i_glide_confnum>  (261) 
2

>  <i_i_glide_posenum>  (261) 
34

>  <r_i_glide_eff_state_penalty>  (261) 
0

>  <ligand_id>  (261) 
91

>  <original_smiles>  (261) 
CC1CC2C(C3C1CC1(C)OCC31)C2(C)C

>  <smiles>  (261) 
[H]C([H])([H])C1([H])C([H])([H])C2([H])C([H])(C3([H])C1([H])C([H])([H])C1(C([H])([H])[H])OC([H])([H])C31[H])C2(C([H])([H])[H])C([H])([H])[H]

$$$$
91:0:1
     RDKit          3D

 40 43  0  0  1  0  0  0  0  0999 V2000
    8.1188   -3.6594   -0.1740 C   0  0  0  0  0  0  0  0  0  0  0  0
    6.7433   -2.9759   -0.0517 C   0  0  2  0  0  0  0  0  0  0  0  0
    6.1288   -3.2525    1.3257 C   0  0  0  0  0  0  0  0  0  0  0  0
    4.8911   -2.4080    1.5584 C   0  0  1  0  0  0  0  0  0  0  0  0
    4.0118   -2.0878    0.3642 C   0  0  1  0  0  0  0  0  0  0  0  0
    4.3182   -2.6898   -0.9984 C   0  0  2  0  0  0  0  0  0  0  0  0
    5.7324   -3.3897   -1.1517 C   0  0  1  0  0  0  0  0  0  0  0  0
    6.2197   -3.0271   -2.5983 C   0  0  0  0  0  0  0  0  0  0  0  0
    4.9300   -2.5461   -3.2383 C   0  0  2  0  0  0  0  0  0  0  0  0
    4.1866   -3.7753   -3.7977 C   0  0  0  0  0  0  0  0  0  0  0  0
    4.6075   -1.4555   -4.1395 O   0  0  0  0  0  0  0  0  0  0  0  0
    3.5444   -1.0858   -3.1905 C   0  0  0  0  0  0  0  0  0  0  0  0
    4.4170   -1.6832   -2.1090 C   0  0  1  0  0  0  0  0  0  0  0  0
    3.4689   -2.9256    1.5026 C   0  0  0  0  0  0  0  0  0  0  0  0
    3.1623   -4.3984    1.3111 C   0  0  0  0  0  0  0  0  0  0  0  0
    2.4329   -2.2951    2.4122 C   0  0  0  0  0  0  0  0  0  0  0  0
    8.0437   -4.7449   -0.0971 H   0  0  0  0  0  0  0  0  0  0  0  0
    8.7772   -3.3265    0.6319 H   0  0  0  0  0  0  0  0  0  0  0  0
    8.6176   -3.4115   -1.1123 H   0  0  0  0  0  0  0  0  0  0  0  0
    6.9198   -1.8983   -0.1129 H   0  0  0  0  0  0  0  0  0  0  0  0
    5.8863   -4.3092    1.4393 H   0  0  0  0  0  0  0  0  0  0  0  0
    6.8596   -3.0122    2.0836 H   0  0  0  0  0  0  0  0  0  0  0  0
    5.0618   -1.5894    2.2485 H   0  0  0  0  0  0  0  0  0  0  0  0
    3.6297   -1.0712    0.3146 H   0  0  0  0  0  0  0  0  0  0  0  0
    3.5166   -3.3974   -1.2185 H   0  0  0  0  0  0  0  0  0  0  0  0
    5.5834   -4.4702   -1.0910 H   0  0  0  0  0  0  0  0  0  0  0  0
    6.9780   -2.2537   -2.5467 H   0  0  0  0  0  0  0  0  0  0  0  0
    6.6625   -3.8677   -3.1196 H   0  0  0  0  0  0  0  0  0  0  0  0
    4.2830   -4.6225   -3.1183 H   0  0  0  0  0  0  0  0  0  0  0  0
    4.6349   -4.1013   -4.7311 H   0  0  0  0  0  0  0  0  0  0  0  0
    3.1252   -3.6030   -3.9734 H   0  0  0  0  0  0  0  0  0  0  0  0
    3.4409   -0.0055   -3.0984 H   0  0  0  0  0  0  0  0  0  0  0  0
    2.5816   -1.5726   -3.3561 H   0  0  0  0  0  0  0  0  0  0  0  0
    5.1451   -0.9020   -1.8675 H   0  0  0  0  0  0  0  0  0  0  0  0
    2.1717   -4.5214    0.8722 H   0  0  0  0  0  0  0  0  0  0  0  0
    3.1989   -4.9151    2.2716 H   0  0  0  0  0  0  0  0  0  0  0  0
    3.8832   -4.8629    0.6385 H   0  0  0  0  0  0  0  0  0  0  0  0
    1.4364   -2.3820    1.9792 H   0  0  0  0  0  0  0  0  0  0  0  0
    2.6447   -1.2334    2.5467 H   0  0  0  0  0  0  0  0  0  0  0  0
    2.4386   -2.7734    3.3912 H   0  0  0  0  0  0  0  0  0  0  0  0
  1  2  1  0
  1 17  1  0
  1 18  1  0
  1 19  1  0
  2  7  1  0
  2  3  1  0
  2 20  1  1
  3  4  1  0
  3 21  1  0
  3 22  1  0
  4 14  1  0
  4  5  1  0
  4 23  1  1
  5  6  1  0
  5 14  1  0
  5 24  1  6
  6 13  1  0
  6  7  1  0
  6 25  1  6
  7  8  1  0
  7 26  1  6
  8  9  1  0
  8 27  1  0
  8 28  1  0
  9 13  1  0
  9 10  1  6
  9 11  1  0
 10 29  1  0
 10 30  1  0
 10 31  1  0
 11 12  1  0
 12 13  1  0
 12 32  1  0
 12 33  1  0
 13 34  1  1
 14 15  1  0
 14 16  1  0
 15 35  1  0
 15 36  1  0
 15 37  1  0
 16 38  1  0
 16 39  1  0
 16 40  1  0
M  END
>  <i_m_ct_stereo_status>  (262) 
1

>  <s_m_source_file>  (262) 
/var/tmp/pbs.5076255.sched01/tmpt85fkz7r/123fjz13bl5.sdf

>  <i_m_source_file_index>  (262) 
3

>  <i_lp_mmshare_version>  (262) 
48012

>  <i_f3d_flags>  (262) 
0

>  <s_epik_input>  (262) 
W0NIMl0xW0NASF0yW0NASF0oW0NIM10pW0NIMl1bQ0BIXShDMyhbQ0gzXSlbQ0gzXSlbQ0BIXTNbQ0BIXTJbQ0BIXShbQ0gyXU80KVtDQF0xNFtDSDNd

>  <s_epik_cmdline>  (262) 
J2VwaWtfcHl0aG9uJywgJy1waHQnLCAnMi4wJywgJy1waCcsICc3LjAnLCAnLXRuJywgJzgnLCAnLW1hJywgJzIwMCcsICctaW1hZScsICc8aW5maWxlLm1hZT4nLCAnLW9tYWUnLCAnPG91dGZpbGUubWFlPic=

>  <r_lp_tautomer_probability>  (262) 
1

>  <r_epik_Ionization_Penalty>  (262) 
1.419e-10

>  <r_epik_Ionization_Penalty_Charging>  (262) 
0

>  <r_epik_Ionization_Penalty_Neutral>  (262) 
1.419e-10

>  <r_epik_State_Penalty>  (262) 
-0

>  <r_epik_Charging_Adjusted_Penalty>  (262) 
0

>  <i_epik_Tot_Q>  (262) 
0

>  <i_epik_Tot_abs_Q>  (262) 
0

>  <s_lp_Force_Field>  (262) 
OPLS3e

>  <r_lp_Energy>  (262) 
66.5771

>  <b_lp_Chiralities_Consistent>  (262) 
1

>  <s_lp_Variant>  (262) 
91:0-1

>  <s_i_glide_gridfile>  (262) 
pfpi4k_grid

>  <i_i_glide_lignum>  (262) 
3

>  <i_i_glide_rotatable_bonds>  (262) 
0

>  <r_i_docking_score>  (262) 
-4.18734

>  <r_i_glide_ligand_efficiency>  (262) 
-0.261709

>  <r_i_glide_ligand_efficiency_sa>  (262) 
-0.659465

>  <r_i_glide_ligand_efficiency_ln>  (262) 
-1.10994

>  <r_i_glide_gscore>  (262) 
-4.18734

>  <r_i_glide_lipo>  (262) 
-0.81923

>  <r_i_glide_hbond>  (262) 
-0.143668

>  <r_i_glide_metal>  (262) 
-0

>  <r_i_glide_rewards>  (262) 
-1.9067

>  <r_i_glide_evdw>  (262) 
-15.7836

>  <r_i_glide_ecoul>  (262) 
-3.52374

>  <r_i_glide_erotb>  (262) 
0

>  <r_i_glide_esite>  (262) 
0

>  <r_i_glide_emodel>  (262) 
-25.1116

>  <r_i_glide_energy>  (262) 
-19.3073

>  <r_i_glide_einternal>  (262) 
0

>  <r_i_glide_intrahb_reward>  (262) 
-0

>  <i_i_glide_confnum>  (262) 
1

>  <i_i_glide_posenum>  (262) 
36

>  <r_i_glide_eff_state_penalty>  (262) 
0

>  <ligand_id>  (262) 
91

>  <original_smiles>  (262) 
CC1CC2C(C3C1CC1(C)OCC31)C2(C)C

>  <smiles>  (262) 
[H]C([H])([H])C1([H])C([H])([H])C2([H])C([H])(C3([H])C1([H])C([H])([H])C1(C([H])([H])[H])OC([H])([H])C31[H])C2(C([H])([H])[H])C([H])([H])[H]

$$$$
91:0:2
     RDKit          3D

 40 43  0  0  1  0  0  0  0  0999 V2000
    7.7079   -2.5229    0.0930 C   0  0  0  0  0  0  0  0  0  0  0  0
    6.2335   -2.6904   -0.3011 C   0  0  2  0  0  0  0  0  0  0  0  0
    6.0905   -2.8079   -1.8277 C   0  0  0  0  0  0  0  0  0  0  0  0
    4.6782   -3.2078   -2.2153 C   0  0  1  0  0  0  0  0  0  0  0  0
    3.5353   -2.6974   -1.3505 C   0  0  1  0  0  0  0  0  0  0  0  0
    3.8036   -1.7287   -0.2016 C   0  0  2  0  0  0  0  0  0  0  0  0
    5.3167   -1.5610    0.2324 C   0  0  1  0  0  0  0  0  0  0  0  0
    5.2970   -1.4539    1.8101 C   0  0  0  0  0  0  0  0  0  0  0  0
    3.8374   -1.1549    2.0575 C   0  0  2  0  0  0  0  0  0  0  0  0
    3.5971    0.3730    1.9274 C   0  0  0  0  0  0  0  0  0  0  0  0
    2.9254   -1.6382    3.0765 O   0  0  0  0  0  0  0  0  0  0  0  0
    2.0018   -1.9519    1.9771 C   0  0  0  0  0  0  0  0  0  0  0  0
    3.2315   -2.1726    1.1160 C   0  0  1  0  0  0  0  0  0  0  0  0
    3.6497   -2.2626   -2.7940 C   0  0  0  0  0  0  0  0  0  0  0  0
    3.9935   -0.8225   -3.1528 C   0  0  0  0  0  0  0  0  0  0  0  0
    2.6485   -2.8268   -3.7794 C   0  0  0  0  0  0  0  0  0  0  0  0
    8.1406   -1.5949   -0.2794 H   0  0  0  0  0  0  0  0  0  0  0  0
    8.3091   -3.3464   -0.2961 H   0  0  0  0  0  0  0  0  0  0  0  0
    7.8068   -2.5366    1.1764 H   0  0  0  0  0  0  0  0  0  0  0  0
    5.9031   -3.6351    0.1342 H   0  0  0  0  0  0  0  0  0  0  0  0
    6.3630   -1.8708   -2.3070 H   0  0  0  0  0  0  0  0  0  0  0  0
    6.7785   -3.5548   -2.2246 H   0  0  0  0  0  0  0  0  0  0  0  0
    4.6039   -4.2508   -2.5301 H   0  0  0  0  0  0  0  0  0  0  0  0
    2.7377   -3.4052   -1.1429 H   0  0  0  0  0  0  0  0  0  0  0  0
    3.3651   -0.7715   -0.4787 H   0  0  0  0  0  0  0  0  0  0  0  0
    5.6721   -0.6091   -0.1685 H   0  0  0  0  0  0  0  0  0  0  0  0
    5.5668   -2.4035    2.2760 H   0  0  0  0  0  0  0  0  0  0  0  0
    5.9668   -0.6884    2.2032 H   0  0  0  0  0  0  0  0  0  0  0  0
    4.1443    0.8056    1.0892 H   0  0  0  0  0  0  0  0  0  0  0  0
    3.9256    0.8888    2.8283 H   0  0  0  0  0  0  0  0  0  0  0  0
    2.5522    0.6401    1.7772 H   0  0  0  0  0  0  0  0  0  0  0  0
    1.4401   -2.8648    2.1563 H   0  0  0  0  0  0  0  0  0  0  0  0
    1.3491   -1.1300    1.6845 H   0  0  0  0  0  0  0  0  0  0  0  0
    3.5714   -3.1877    1.3543 H   0  0  0  0  0  0  0  0  0  0  0  0
    3.0899   -0.2072   -3.1492 H   0  0  0  0  0  0  0  0  0  0  0  0
    4.4433   -0.7762   -4.1460 H   0  0  0  0  0  0  0  0  0  0  0  0
    4.6918   -0.3821   -2.4386 H   0  0  0  0  0  0  0  0  0  0  0  0
    1.7265   -2.2473   -3.7787 H   0  0  0  0  0  0  0  0  0  0  0  0
    2.3876   -3.8522   -3.5173 H   0  0  0  0  0  0  0  0  0  0  0  0
    3.0677   -2.8213   -4.7801 H   0  0  0  0  0  0  0  0  0  0  0  0
  1  2  1  0
  1 17  1  0
  1 18  1  0
  1 19  1  0
  2  7  1  0
  2  3  1  0
  2 20  1  1
  3  4  1  0
  3 21  1  0
  3 22  1  0
  4 14  1  0
  4  5  1  0
  4 23  1  6
  5  6  1  0
  5 14  1  0
  5 24  1  1
  6 13  1  0
  6  7  1  0
  6 25  1  6
  7  8  1  0
  7 26  1  6
  8  9  1  0
  8 27  1  0
  8 28  1  0
  9 13  1  0
  9 10  1  6
  9 11  1  0
 10 29  1  0
 10 30  1  0
 10 31  1  0
 11 12  1  0
 12 13  1  0
 12 32  1  0
 12 33  1  0
 13 34  1  1
 14 15  1  0
 14 16  1  0
 15 35  1  0
 15 36  1  0
 15 37  1  0
 16 38  1  0
 16 39  1  0
 16 40  1  0
M  END
>  <i_m_ct_stereo_status>  (263) 
1

>  <s_m_source_file>  (263) 
/var/tmp/pbs.5076255.sched01/tmpt85fkz7r/123fjz13bl5.sdf

>  <i_m_source_file_index>  (263) 
3

>  <i_lp_mmshare_version>  (263) 
48012

>  <i_f3d_flags>  (263) 
0

>  <s_epik_input>  (263) 
W0NIMl0xW0NASF0yW0NASF0oW0NIM10pW0NIMl1bQ0BIXShDMyhbQ0gzXSlbQ0gzXSlbQ0BIXTNbQ0BIXTJbQ0BIXShbQ0gyXU80KVtDQF0xNFtDSDNd

>  <s_epik_cmdline>  (263) 
J2VwaWtfcHl0aG9uJywgJy1waHQnLCAnMi4wJywgJy1waCcsICc3LjAnLCAnLXRuJywgJzgnLCAnLW1hJywgJzIwMCcsICctaW1hZScsICc8aW5maWxlLm1hZT4nLCAnLW9tYWUnLCAnPG91dGZpbGUubWFlPic=

>  <r_lp_tautomer_probability>  (263) 
1

>  <r_epik_Ionization_Penalty>  (263) 
1.419e-10

>  <r_epik_Ionization_Penalty_Charging>  (263) 
0

>  <r_epik_Ionization_Penalty_Neutral>  (263) 
1.419e-10

>  <r_epik_State_Penalty>  (263) 
-0

>  <r_epik_Charging_Adjusted_Penalty>  (263) 
0

>  <i_epik_Tot_Q>  (263) 
0

>  <i_epik_Tot_abs_Q>  (263) 
0

>  <s_lp_Force_Field>  (263) 
OPLS3e

>  <r_lp_Energy>  (263) 
66.5771

>  <b_lp_Chiralities_Consistent>  (263) 
1

>  <s_lp_Variant>  (263) 
91:0-1

>  <s_i_glide_gridfile>  (263) 
pfpi4k_grid

>  <i_i_glide_lignum>  (263) 
3

>  <i_i_glide_rotatable_bonds>  (263) 
0

>  <r_i_docking_score>  (263) 
-3.74739

>  <r_i_glide_ligand_efficiency>  (263) 
-0.234212

>  <r_i_glide_ligand_efficiency_sa>  (263) 
-0.590177

>  <r_i_glide_ligand_efficiency_ln>  (263) 
-0.99332

>  <r_i_glide_gscore>  (263) 
-3.74739

>  <r_i_glide_lipo>  (263) 
-0.73156

>  <r_i_glide_hbond>  (263) 
0

>  <r_i_glide_metal>  (263) 
-0

>  <r_i_glide_rewards>  (263) 
-1.9067

>  <r_i_glide_evdw>  (263) 
-18.8328

>  <r_i_glide_ecoul>  (263) 
-1.11656

>  <r_i_glide_erotb>  (263) 
0

>  <r_i_glide_esite>  (263) 
0

>  <r_i_glide_emodel>  (263) 
-25.1586

>  <r_i_glide_energy>  (263) 
-19.9494

>  <r_i_glide_einternal>  (263) 
0

>  <r_i_glide_intrahb_reward>  (263) 
-0

>  <i_i_glide_confnum>  (263) 
1

>  <i_i_glide_posenum>  (263) 
12

>  <r_i_glide_eff_state_penalty>  (263) 
0

>  <ligand_id>  (263) 
91

>  <original_smiles>  (263) 
CC1CC2C(C3C1CC1(C)OCC31)C2(C)C

>  <smiles>  (263) 
[H]C([H])([H])C1([H])C([H])([H])C2([H])C([H])(C3([H])C1([H])C([H])([H])C1(C([H])([H])[H])OC([H])([H])C31[H])C2(C([H])([H])[H])C([H])([H])[H]

$$$$
92:0:0
     RDKit          3D

 95102  0  0  1  0  0  0  0  0999 V2000
    0.1968    2.9621    7.1360 C   0  0  0  0  0  0  0  0  0  0  0  0
   -0.0902    1.9892    5.9712 C   0  0  2  0  0  0  0  0  0  0  0  0
   -0.9018    0.7523    6.4230 C   0  0  1  0  0  0  0  0  0  0  0  0
   -1.9734    1.1159    7.2612 O   0  0  0  0  0  0  0  0  0  0  0  0
   -1.4932    0.0665    5.2034 C   0  0  0  0  0  0  0  0  0  0  0  0
   -0.4046   -0.4375    4.2690 C   0  0  0  0  0  0  0  0  0  0  0  0
    0.7493    0.5558    3.9759 C   0  0  2  0  0  0  0  0  0  0  0  0
    1.9935   -0.1290    3.3365 C   0  0  2  0  0  0  0  0  0  0  0  0
    1.8025   -1.1661    2.2204 C   0  0  0  0  0  0  0  0  0  0  0  0
    3.1881   -1.8081    2.1633 C   0  0  0  0  0  0  0  0  0  0  0  0
    3.5546   -2.5945    1.2676 O   0  0  0  0  0  0  0  0  0  0  0  0
    4.0908   -1.3215    3.3107 C   0  0  2  0  0  0  0  0  0  0  0  0
    5.0386   -0.2613    2.6766 C   0  0  0  0  0  0  0  0  0  0  0  0
    5.0120   -2.4101    3.9426 C   0  0  0  0  0  0  0  0  0  0  0  0
    4.5902   -3.2570    5.1672 C   0  0  1  0  0  0  0  0  0  0  0  0
    3.4893   -2.6385    6.0085 C   0  0  2  0  0  0  0  0  0  0  0  0
    2.9467   -3.7976    6.8589 C   0  0  0  0  0  0  0  0  0  0  0  0
    3.2321   -5.1089    6.1050 C   0  0  1  0  0  0  0  0  0  0  0  0
    3.7777   -6.1870    7.0758 C   0  0  0  0  0  0  0  0  0  0  0  0
    2.0005   -5.5766    5.3136 C   0  0  2  0  0  0  0  0  0  0  0  0
    1.0064   -6.5399    5.9586 C   0  0  0  0  0  0  0  0  0  0  0  0
   -0.0627   -6.8831    4.9007 C   0  0  0  0  0  0  0  0  0  0  0  0
    0.5173   -7.2910    3.5103 C   0  0  2  0  0  0  0  0  0  0  0  0
   -0.5719   -7.1361    2.4289 C   0  0  0  0  0  0  0  0  0  0  0  0
   -1.3151   -8.4672    2.3394 C   0  0  0  0  0  0  0  0  0  0  0  0
   -0.4536   -9.4644    3.1061 C   0  0  0  0  0  0  0  0  0  0  0  0
    0.9015   -8.8014    3.3902 C   0  0  0  0  0  0  0  0  0  0  0  0
    1.8445   -9.0463    2.1870 C   0  0  0  0  0  0  0  0  0  0  0  0
    1.5346   -9.4518    4.6397 C   0  0  0  0  0  0  0  0  0  0  0  0
    1.5541   -6.3774    3.1012 O   0  0  0  0  0  0  0  0  0  0  0  0
    2.5948   -6.1953    4.0512 C   0  0  1  0  0  0  0  0  0  0  0  0
    3.6590   -5.1825    3.6449 C   0  0  0  0  0  0  0  0  0  0  0  0
    4.2645   -4.7578    4.9941 C   0  0  1  0  0  0  0  0  0  0  0  0
    2.4443   -1.9508    5.1258 C   0  0  0  0  0  0  0  0  0  0  0  0
    3.0238   -0.7515    4.3044 C   0  0  2  0  0  0  0  0  0  0  0  0
    3.4887    0.3889    5.2360 C   0  0  0  0  0  0  0  0  0  0  0  0
    2.2941    0.9775    6.0268 C   0  0  0  0  0  0  0  0  0  0  0  0
    1.1633    1.5757    5.1235 C   0  0  2  0  0  0  0  0  0  0  0  0
    1.7219    2.8638    4.4626 C   0  0  0  0  0  0  0  0  0  0  0  0
    0.7943    2.5049    7.9245 H   0  0  0  0  0  0  0  0  0  0  0  0
   -0.7295    3.3183    7.5864 H   0  0  0  0  0  0  0  0  0  0  0  0
    0.7093    3.8628    6.7948 H   0  0  0  0  0  0  0  0  0  0  0  0
   -0.7509    2.5451    5.3012 H   0  0  0  0  0  0  0  0  0  0  0  0
   -0.2700    0.0561    6.9759 H   0  0  0  0  0  0  0  0  0  0  0  0
   -1.6344    1.7135    7.9101 H   0  0  0  0  0  0  0  0  0  0  0  0
   -2.1366   -0.7586    5.5037 H   0  0  0  0  0  0  0  0  0  0  0  0
   -2.1378    0.7686    4.6703 H   0  0  0  0  0  0  0  0  0  0  0  0
   -0.0484   -1.3850    4.6569 H   0  0  0  0  0  0  0  0  0  0  0  0
   -0.8697   -0.6618    3.3161 H   0  0  0  0  0  0  0  0  0  0  0  0
    0.3189    1.1841    3.1876 H   0  0  0  0  0  0  0  0  0  0  0  0
    2.4884    0.6972    2.8311 H   0  0  0  0  0  0  0  0  0  0  0  0
    1.0649   -1.9239    2.4630 H   0  0  0  0  0  0  0  0  0  0  0  0
    1.5381   -0.6948    1.2786 H   0  0  0  0  0  0  0  0  0  0  0  0
    5.6242    0.2612    3.4284 H   0  0  0  0  0  0  0  0  0  0  0  0
    4.5139    0.4795    2.0840 H   0  0  0  0  0  0  0  0  0  0  0  0
    5.7618   -0.7385    2.0105 H   0  0  0  0  0  0  0  0  0  0  0  0
    5.4768   -3.0341    3.1872 H   0  0  0  0  0  0  0  0  0  0  0  0
    5.8202   -1.8084    4.3655 H   0  0  0  0  0  0  0  0  0  0  0  0
    5.4634   -3.2834    5.8194 H   0  0  0  0  0  0  0  0  0  0  0  0
    3.9204   -1.9052    6.6905 H   0  0  0  0  0  0  0  0  0  0  0  0
    3.4900   -3.7954    7.8057 H   0  0  0  0  0  0  0  0  0  0  0  0
    1.8926   -3.6728    7.1075 H   0  0  0  0  0  0  0  0  0  0  0  0
    3.9902   -7.1285    6.5644 H   0  0  0  0  0  0  0  0  0  0  0  0
    3.0681   -6.4024    7.8739 H   0  0  0  0  0  0  0  0  0  0  0  0
    4.7031   -5.8661    7.5559 H   0  0  0  0  0  0  0  0  0  0  0  0
    1.4315   -4.6966    5.0144 H   0  0  0  0  0  0  0  0  0  0  0  0
    1.4984   -7.4521    6.2983 H   0  0  0  0  0  0  0  0  0  0  0  0
    0.5422   -6.0812    6.8351 H   0  0  0  0  0  0  0  0  0  0  0  0
   -0.7271   -7.6503    5.2887 H   0  0  0  0  0  0  0  0  0  0  0  0
   -0.6947   -6.0001    4.7976 H   0  0  0  0  0  0  0  0  0  0  0  0
   -1.2663   -6.3270    2.6400 H   0  0  0  0  0  0  0  0  0  0  0  0
   -0.1361   -6.9319    1.4502 H   0  0  0  0  0  0  0  0  0  0  0  0
   -2.3174   -8.3938    2.7751 H   0  0  0  0  0  0  0  0  0  0  0  0
   -1.4415   -8.7703    1.2919 H   0  0  0  0  0  0  0  0  0  0  0  0
   -0.9611   -9.6566    4.0490 H   0  0  0  0  0  0  0  0  0  0  0  0
   -0.3720  -10.4155    2.5810 H   0  0  0  0  0  0  0  0  0  0  0  0
    2.0192  -10.1130    2.0278 H   0  0  0  0  0  0  0  0  0  0  0  0
    2.8231   -8.5858    2.3272 H   0  0  0  0  0  0  0  0  0  0  0  0
    1.4443   -8.6587    1.2526 H   0  0  0  0  0  0  0  0  0  0  0  0
    1.7224  -10.5230    4.4865 H   0  0  0  0  0  0  0  0  0  0  0  0
    0.8876   -9.3703    5.5183 H   0  0  0  0  0  0  0  0  0  0  0  0
    2.4885   -8.9974    4.9133 H   0  0  0  0  0  0  0  0  0  0  0  0
    3.0861   -7.1461    4.2546 H   0  0  0  0  0  0  0  0  0  0  0  0
    4.4039   -5.6176    2.9780 H   0  0  0  0  0  0  0  0  0  0  0  0
    3.2047   -4.3433    3.1338 H   0  0  0  0  0  0  0  0  0  0  0  0
    5.1810   -5.3339    5.1509 H   0  0  0  0  0  0  0  0  0  0  0  0
    2.0141   -2.6868    4.4556 H   0  0  0  0  0  0  0  0  0  0  0  0
    1.6434   -1.6469    5.7885 H   0  0  0  0  0  0  0  0  0  0  0  0
    4.2722    0.0566    5.9186 H   0  0  0  0  0  0  0  0  0  0  0  0
    3.9529    1.1886    4.6596 H   0  0  0  0  0  0  0  0  0  0  0  0
    1.8991    0.2233    6.6974 H   0  0  0  0  0  0  0  0  0  0  0  0
    2.6827    1.7496    6.6890 H   0  0  0  0  0  0  0  0  0  0  0  0
    2.5059    2.6680    3.7352 H   0  0  0  0  0  0  0  0  0  0  0  0
    2.1616    3.5348    5.2005 H   0  0  0  0  0  0  0  0  0  0  0  0
    0.9396    3.4167    3.9426 H   0  0  0  0  0  0  0  0  0  0  0  0
  1  2  1  0
  1 40  1  0
  1 41  1  0
  1 42  1  0
  2 38  1  0
  2  3  1  0
  2 43  1  6
  3  4  1  0
  3  5  1  0
  3 44  1  1
  4 45  1  0
  5  6  1  0
  5 46  1  0
  5 47  1  0
  6  7  1  0
  6 48  1  0
  6 49  1  0
  7 38  1  0
  7  8  1  0
  7 50  1  6
  8 35  1  0
  8  9  1  0
  8 51  1  6
  9 10  1  0
  9 52  1  0
  9 53  1  0
 10 11  2  0
 10 12  1  0
 12 35  1  0
 12 13  1  6
 12 14  1  0
 13 54  1  0
 13 55  1  0
 13 56  1  0
 14 15  1  0
 14 57  1  0
 14 58  1  0
 15 33  1  0
 15 16  1  0
 15 59  1  1
 16 17  1  0
 16 34  1  0
 16 60  1  1
 17 18  1  0
 17 61  1  0
 17 62  1  0
 18 33  1  0
 18 19  1  1
 18 20  1  0
 19 63  1  0
 19 64  1  0
 19 65  1  0
 20 31  1  0
 20 21  1  0
 20 66  1  6
 21 22  1  0
 21 67  1  0
 21 68  1  0
 22 23  1  0
 22 69  1  0
 22 70  1  0
 23 27  1  0
 23 24  1  0
 23 30  1  6
 24 25  1  0
 24 71  1  0
 24 72  1  0
 25 26  1  0
 25 73  1  0
 25 74  1  0
 26 27  1  0
 26 75  1  0
 26 76  1  0
 27 28  1  0
 27 29  1  0
 28 77  1  0
 28 78  1  0
 28 79  1  0
 29 80  1  0
 29 81  1  0
 29 82  1  0
 30 31  1  0
 31 32  1  0
 31 83  1  1
 32 33  1  0
 32 84  1  0
 32 85  1  0
 33 86  1  1
 35 34  1  1
 34 87  1  0
 34 88  1  0
 35 36  1  0
 36 37  1  0
 36 89  1  0
 36 90  1  0
 37 38  1  0
 37 91  1  0
 37 92  1  0
 38 39  1  6
 39 93  1  0
 39 94  1  0
 39 95  1  0
M  END
>  <i_m_ct_stereo_status>  (264) 
1

>  <s_m_source_file>  (264) 
/var/tmp/pbs.5076255.sched01/tmpt85fkz7r/123fjz13bl5.sdf

>  <i_m_source_file_index>  (264) 
4

>  <i_lp_mmshare_version>  (264) 
48012

>  <i_f3d_flags>  (264) 
0

>  <s_epik_input>  (264) 
W0NIMl0xW0NIMl1bQ0BIXShbT0hdKVtDQEBIXShbQ0gzXSlbQ0BAXShbQ0gzXSkoW0NIMl1bQ0gyXTIpW0NASF0xW0NASF0oW0NIMl1DKD1PKVtDQF0zKFtDSDNdKVtDSDJdNClbQ0BdMjNbQ0gyXVtDQEBIXShbQ0gyXTUpW0NASF00W0NASF0oW0NIMl1bQ0BASF02TzcpW0NAXTUoW0NIM10pW0NAQEhdNltDSDJdW0NIMl1bQ0BAXTc4W0NIMl1bQ0gyXVtDSDJdQzgoW0NIM10pW0NIM10=

>  <s_epik_cmdline>  (264) 
J2VwaWtfcHl0aG9uJywgJy1waHQnLCAnMi4wJywgJy1waCcsICc3LjAnLCAnLXRuJywgJzgnLCAnLW1hJywgJzIwMCcsICctaW1hZScsICc8aW5maWxlLm1hZT4nLCAnLW9tYWUnLCAnPG91dGZpbGUubWFlPic=

>  <r_lp_tautomer_probability>  (264) 
1

>  <r_epik_Ionization_Penalty>  (264) 
1.68264e-06

>  <r_epik_Ionization_Penalty_Charging>  (264) 
0

>  <r_epik_Ionization_Penalty_Neutral>  (264) 
1.68264e-06

>  <r_epik_State_Penalty>  (264) 
-0

>  <r_epik_Charging_Adjusted_Penalty>  (264) 
0

>  <i_epik_Tot_Q>  (264) 
0

>  <i_epik_Tot_abs_Q>  (264) 
0

>  <s_lp_Force_Field>  (264) 
OPLS3e

>  <r_lp_Energy>  (264) 
89.1518

>  <b_lp_Chiralities_Consistent>  (264) 
1

>  <s_lp_Variant>  (264) 
92:0-1

>  <s_i_glide_gridfile>  (264) 
pfpi4k_grid

>  <i_i_glide_lignum>  (264) 
4

>  <i_i_glide_rotatable_bonds>  (264) 
1

>  <r_i_docking_score>  (264) 
-2.41141

>  <r_i_glide_ligand_efficiency>  (264) 
-0.061831

>  <r_i_glide_ligand_efficiency_sa>  (264) 
-0.209682

>  <r_i_glide_ligand_efficiency_ln>  (264) 
-0.517074

>  <r_i_glide_gscore>  (264) 
-2.41141

>  <r_i_glide_lipo>  (264) 
-0.248921

>  <r_i_glide_hbond>  (264) 
-0.16

>  <r_i_glide_metal>  (264) 
-0

>  <r_i_glide_rewards>  (264) 
0

>  <r_i_glide_evdw>  (264) 
-30.5778

>  <r_i_glide_ecoul>  (264) 
-3.1114

>  <r_i_glide_erotb>  (264) 
0

>  <r_i_glide_esite>  (264) 
-0.00688937

>  <r_i_glide_emodel>  (264) 
-37.6241

>  <r_i_glide_energy>  (264) 
-33.6892

>  <r_i_glide_einternal>  (264) 
0.705601

>  <r_i_glide_intrahb_reward>  (264) 
-0

>  <i_i_glide_confnum>  (264) 
4

>  <i_i_glide_posenum>  (264) 
31

>  <r_i_glide_eff_state_penalty>  (264) 
0

>  <ligand_id>  (264) 
92

>  <original_smiles>  (264) 
CC1C(O)CCC2C3CC(=O)C4(C)CC5C(CC6(C)C7CCC8(CCCC8(C)C)OC7CC56)CC34CCC12C

>  <smiles>  (264) 
[H]OC1([H])C([H])([H])C([H])([H])C2([H])C3([H])C([H])([H])C(=O)C4(C([H])([H])[H])C([H])([H])C5([H])C([H])(C([H])([H])C6(C([H])([H])[H])C7([H])C([H])([H])C([H])([H])C8(OC7([H])C([H])([H])C56[H])C([H])([H])C([H])([H])C([H])([H])C8(C([H])([H])[H])C([H])([H])[H])C([H])([H])C34C([H])([H])C([H])([H])C2(C([H])([H])[H])C1([H])C([H])([H])[H]

$$$$
92:0:1
     RDKit          3D

 95102  0  0  1  0  0  0  0  0999 V2000
    0.0520    2.9735    7.1835 C   0  0  0  0  0  0  0  0  0  0  0  0
   -0.1789    2.0016    6.0094 C   0  0  2  0  0  0  0  0  0  0  0  0
   -1.0168    0.7615    6.4233 C   0  0  1  0  0  0  0  0  0  0  0  0
   -2.1211    1.0820    7.2437 O   0  0  0  0  0  0  0  0  0  0  0  0
   -1.5443    0.0860    5.1640 C   0  0  0  0  0  0  0  0  0  0  0  0
   -0.4091   -0.4229    4.2847 C   0  0  0  0  0  0  0  0  0  0  0  0
    0.7607    0.5668    4.0527 C   0  0  2  0  0  0  0  0  0  0  0  0
    2.0365   -0.1198    3.4749 C   0  0  2  0  0  0  0  0  0  0  0  0
    1.9068   -1.1591    2.3508 C   0  0  0  0  0  0  0  0  0  0  0  0
    3.2926   -1.8074    2.3675 C   0  0  0  0  0  0  0  0  0  0  0  0
    3.7013   -2.5917    1.4997 O   0  0  0  0  0  0  0  0  0  0  0  0
    4.1294   -1.3178    3.5646 C   0  0  2  0  0  0  0  0  0  0  0  0
    5.1114   -0.2600    2.9793 C   0  0  0  0  0  0  0  0  0  0  0  0
    5.0204   -2.4063    4.2467 C   0  0  0  0  0  0  0  0  0  0  0  0
    4.5298   -3.2548    5.4491 C   0  0  1  0  0  0  0  0  0  0  0  0
    3.3893   -2.6297    6.2287 C   0  0  2  0  0  0  0  0  0  0  0  0
    2.8027   -3.7865    7.0508 C   0  0  0  0  0  0  0  0  0  0  0  0
    3.1239   -5.0996    6.3138 C   0  0  1  0  0  0  0  0  0  0  0  0
    3.6163   -6.1778    7.3136 C   0  0  0  0  0  0  0  0  0  0  0  0
    1.9311   -5.5663    5.4627 C   0  0  2  0  0  0  0  0  0  0  0  0
    0.9040   -6.5255    6.0576 C   0  0  0  0  0  0  0  0  0  0  0  0
   -0.1116   -6.8704    4.9459 C   0  0  0  0  0  0  0  0  0  0  0  0
    0.5359   -7.2820    3.5874 C   0  0  2  0  0  0  0  0  0  0  0  0
   -0.4971   -7.1264    2.4519 C   0  0  0  0  0  0  0  0  0  0  0  0
   -1.2417   -8.4546    2.3291 C   0  0  0  0  0  0  0  0  0  0  0  0
   -0.4153   -9.4587    3.1347 C   0  0  0  0  0  0  0  0  0  0  0  0
    0.9245   -8.7928    3.4863 C   0  0  0  0  0  0  0  0  0  0  0  0
    1.9277   -9.0405    2.3300 C   0  0  0  0  0  0  0  0  0  0  0  0
    1.4918   -9.4435    4.7675 C   0  0  0  0  0  0  0  0  0  0  0  0
    1.5953   -6.3701    3.2308 O   0  0  0  0  0  0  0  0  0  0  0  0
    2.5871   -6.1886    4.2314 C   0  0  1  0  0  0  0  0  0  0  0  0
    3.6729   -5.1772    3.8797 C   0  0  0  0  0  0  0  0  0  0  0  0
    4.2108   -4.7527    5.2576 C   0  0  1  0  0  0  0  0  0  0  0  0
    2.3924   -1.9417    5.2914 C   0  0  0  0  0  0  0  0  0  0  0  0
    3.0141   -0.7441    4.4973 C   0  0  2  0  0  0  0  0  0  0  0  0
    3.4331    0.3956    5.4527 C   0  0  0  0  0  0  0  0  0  0  0  0
    2.2011    0.9856    6.1814 C   0  0  0  0  0  0  0  0  0  0  0  0
    1.1144    1.5857    5.2222 C   0  0  2  0  0  0  0  0  0  0  0  0
    1.7127    2.8712    4.5889 C   0  0  0  0  0  0  0  0  0  0  0  0
    0.6109    2.5170    7.9980 H   0  0  0  0  0  0  0  0  0  0  0  0
   -0.8963    3.3230    7.5896 H   0  0  0  0  0  0  0  0  0  0  0  0
    0.5813    3.8747    6.8678 H   0  0  0  0  0  0  0  0  0  0  0  0
   -0.7997    2.5619    5.3038 H   0  0  0  0  0  0  0  0  0  0  0  0
   -0.4034    0.0547    6.9831 H   0  0  0  0  0  0  0  0  0  0  0  0
   -2.5355    1.8632    6.8936 H   0  0  0  0  0  0  0  0  0  0  0  0
   -2.2033   -0.7413    5.4235 H   0  0  0  0  0  0  0  0  0  0  0  0
   -2.1555    0.7890    4.5912 H   0  0  0  0  0  0  0  0  0  0  0  0
   -0.0734   -1.3697    4.6917 H   0  0  0  0  0  0  0  0  0  0  0  0
   -0.8157   -0.6593    3.3062 H   0  0  0  0  0  0  0  0  0  0  0  0
    0.3749    1.1976    3.2422 H   0  0  0  0  0  0  0  0  0  0  0  0
    2.5592    0.7066    2.9971 H   0  0  0  0  0  0  0  0  0  0  0  0
    1.1537   -1.9113    2.5511 H   0  0  0  0  0  0  0  0  0  0  0  0
    1.6962   -0.7019    1.3843 H   0  0  0  0  0  0  0  0  0  0  0  0
    5.6614    0.2651    3.7574 H   0  0  0  0  0  0  0  0  0  0  0  0
    4.6142    0.4806    2.3629 H   0  0  0  0  0  0  0  0  0  0  0  0
    5.8661   -0.7371    2.3480 H   0  0  0  0  0  0  0  0  0  0  0  0
    5.5109   -3.0383    3.5139 H   0  0  0  0  0  0  0  0  0  0  0  0
    5.8114   -1.8150    4.7097 H   0  0  0  0  0  0  0  0  0  0  0  0
    5.3686   -3.2821    6.1457 H   0  0  0  0  0  0  0  0  0  0  0  0
    3.7871   -1.8970    6.9310 H   0  0  0  0  0  0  0  0  0  0  0  0
    3.2966   -3.7855    8.0242 H   0  0  0  0  0  0  0  0  0  0  0  0
    1.7374   -3.6598    7.2458 H   0  0  0  0  0  0  0  0  0  0  0  0
    3.8517   -7.1209    6.8140 H   0  0  0  0  0  0  0  0  0  0  0  0
    2.8662   -6.3906    8.0737 H   0  0  0  0  0  0  0  0  0  0  0  0
    4.5155   -5.8588    7.8384 H   0  0  0  0  0  0  0  0  0  0  0  0
    1.3807   -4.6860    5.1335 H   0  0  0  0  0  0  0  0  0  0  0  0
    1.3757   -7.4372    6.4246 H   0  0  0  0  0  0  0  0  0  0  0  0
    0.3966   -6.0649    6.9086 H   0  0  0  0  0  0  0  0  0  0  0  0
   -0.7969   -7.6335    5.3004 H   0  0  0  0  0  0  0  0  0  0  0  0
   -0.7352   -5.9839    4.8114 H   0  0  0  0  0  0  0  0  0  0  0  0
   -1.1930   -6.3083    2.6241 H   0  0  0  0  0  0  0  0  0  0  0  0
   -0.0107   -6.9251    1.4973 H   0  0  0  0  0  0  0  0  0  0  0  0
   -2.2590   -8.3772    2.7258 H   0  0  0  0  0  0  0  0  0  0  0  0
   -1.3393   -8.7480    1.2795 H   0  0  0  0  0  0  0  0  0  0  0  0
   -0.9484   -9.6488    4.0634 H   0  0  0  0  0  0  0  0  0  0  0  0
   -0.3096  -10.4085    2.6154 H   0  0  0  0  0  0  0  0  0  0  0  0
    2.1064  -10.1094    2.1832 H   0  0  0  0  0  0  0  0  0  0  0  0
    2.8964   -8.5825    2.5225 H   0  0  0  0  0  0  0  0  0  0  0  0
    1.5752   -8.6559    1.3746 H   0  0  0  0  0  0  0  0  0  0  0  0
    1.6846  -10.5154    4.6276 H   0  0  0  0  0  0  0  0  0  0  0  0
    0.8019   -9.3620    5.6123 H   0  0  0  0  0  0  0  0  0  0  0  0
    2.4306   -8.9933    5.0910 H   0  0  0  0  0  0  0  0  0  0  0  0
    3.0663   -7.1368    4.4624 H   0  0  0  0  0  0  0  0  0  0  0  0
    4.4493   -5.6151    3.2507 H   0  0  0  0  0  0  0  0  0  0  0  0
    3.2467   -4.3382    3.3455 H   0  0  0  0  0  0  0  0  0  0  0  0
    5.1162   -5.3304    5.4596 H   0  0  0  0  0  0  0  0  0  0  0  0
    1.9953   -2.6767    4.6020 H   0  0  0  0  0  0  0  0  0  0  0  0
    1.5594   -1.6346    5.9122 H   0  0  0  0  0  0  0  0  0  0  0  0
    4.1795    0.0625    6.1743 H   0  0  0  0  0  0  0  0  0  0  0  0
    3.9284    1.1932    4.9012 H   0  0  0  0  0  0  0  0  0  0  0  0
    1.7708    0.2360    6.8331 H   0  0  0  0  0  0  0  0  0  0  0  0
    2.5573    1.7595    6.8605 H   0  0  0  0  0  0  0  0  0  0  0  0
    2.5323    2.6741    3.9039 H   0  0  0  0  0  0  0  0  0  0  0  0
    2.1171    3.5423    5.3474 H   0  0  0  0  0  0  0  0  0  0  0  0
    0.9619    3.4266    4.0289 H   0  0  0  0  0  0  0  0  0  0  0  0
  1  2  1  0
  1 40  1  0
  1 41  1  0
  1 42  1  0
  2 38  1  0
  2  3  1  0
  2 43  1  6
  3  4  1  0
  3  5  1  0
  3 44  1  1
  4 45  1  0
  5  6  1  0
  5 46  1  0
  5 47  1  0
  6  7  1  0
  6 48  1  0
  6 49  1  0
  7 38  1  0
  7  8  1  0
  7 50  1  6
  8 35  1  0
  8  9  1  0
  8 51  1  6
  9 10  1  0
  9 52  1  0
  9 53  1  0
 10 11  2  0
 10 12  1  0
 12 35  1  0
 12 13  1  6
 12 14  1  0
 13 54  1  0
 13 55  1  0
 13 56  1  0
 14 15  1  0
 14 57  1  0
 14 58  1  0
 15 33  1  0
 15 16  1  0
 15 59  1  1
 16 17  1  0
 16 34  1  0
 16 60  1  1
 17 18  1  0
 17 61  1  0
 17 62  1  0
 18 33  1  0
 18 19  1  1
 18 20  1  0
 19 63  1  0
 19 64  1  0
 19 65  1  0
 20 31  1  0
 20 21  1  0
 20 66  1  6
 21 22  1  0
 21 67  1  0
 21 68  1  0
 22 23  1  0
 22 69  1  0
 22 70  1  0
 23 27  1  0
 23 24  1  0
 23 30  1  6
 24 25  1  0
 24 71  1  0
 24 72  1  0
 25 26  1  0
 25 73  1  0
 25 74  1  0
 26 27  1  0
 26 75  1  0
 26 76  1  0
 27 28  1  0
 27 29  1  0
 28 77  1  0
 28 78  1  0
 28 79  1  0
 29 80  1  0
 29 81  1  0
 29 82  1  0
 30 31  1  0
 31 32  1  0
 31 83  1  1
 32 33  1  0
 32 84  1  0
 32 85  1  0
 33 86  1  1
 35 34  1  1
 34 87  1  0
 34 88  1  0
 35 36  1  0
 36 37  1  0
 36 89  1  0
 36 90  1  0
 37 38  1  0
 37 91  1  0
 37 92  1  0
 38 39  1  6
 39 93  1  0
 39 94  1  0
 39 95  1  0
M  END
>  <i_m_ct_stereo_status>  (265) 
1

>  <s_m_source_file>  (265) 
/var/tmp/pbs.5076255.sched01/tmpt85fkz7r/123fjz13bl5.sdf

>  <i_m_source_file_index>  (265) 
4

>  <i_lp_mmshare_version>  (265) 
48012

>  <i_f3d_flags>  (265) 
0

>  <s_epik_input>  (265) 
W0NIMl0xW0NIMl1bQ0BIXShbT0hdKVtDQEBIXShbQ0gzXSlbQ0BAXShbQ0gzXSkoW0NIMl1bQ0gyXTIpW0NASF0xW0NASF0oW0NIMl1DKD1PKVtDQF0zKFtDSDNdKVtDSDJdNClbQ0BdMjNbQ0gyXVtDQEBIXShbQ0gyXTUpW0NASF00W0NASF0oW0NIMl1bQ0BASF02TzcpW0NAXTUoW0NIM10pW0NAQEhdNltDSDJdW0NIMl1bQ0BAXTc4W0NIMl1bQ0gyXVtDSDJdQzgoW0NIM10pW0NIM10=

>  <s_epik_cmdline>  (265) 
J2VwaWtfcHl0aG9uJywgJy1waHQnLCAnMi4wJywgJy1waCcsICc3LjAnLCAnLXRuJywgJzgnLCAnLW1hJywgJzIwMCcsICctaW1hZScsICc8aW5maWxlLm1hZT4nLCAnLW9tYWUnLCAnPG91dGZpbGUubWFlPic=

>  <r_lp_tautomer_probability>  (265) 
1

>  <r_epik_Ionization_Penalty>  (265) 
1.68264e-06

>  <r_epik_Ionization_Penalty_Charging>  (265) 
0

>  <r_epik_Ionization_Penalty_Neutral>  (265) 
1.68264e-06

>  <r_epik_State_Penalty>  (265) 
-0

>  <r_epik_Charging_Adjusted_Penalty>  (265) 
0

>  <i_epik_Tot_Q>  (265) 
0

>  <i_epik_Tot_abs_Q>  (265) 
0

>  <s_lp_Force_Field>  (265) 
OPLS3e

>  <r_lp_Energy>  (265) 
89.1518

>  <b_lp_Chiralities_Consistent>  (265) 
1

>  <s_lp_Variant>  (265) 
92:0-1

>  <s_i_glide_gridfile>  (265) 
pfpi4k_grid

>  <i_i_glide_lignum>  (265) 
4

>  <i_i_glide_rotatable_bonds>  (265) 
1

>  <r_i_docking_score>  (265) 
-2.39112

>  <r_i_glide_ligand_efficiency>  (265) 
-0.0613108

>  <r_i_glide_ligand_efficiency_sa>  (265) 
-0.207918

>  <r_i_glide_ligand_efficiency_ln>  (265) 
-0.512724

>  <r_i_glide_gscore>  (265) 
-2.39112

>  <r_i_glide_lipo>  (265) 
-0.220535

>  <r_i_glide_hbond>  (265) 
-0.16

>  <r_i_glide_metal>  (265) 
-0

>  <r_i_glide_rewards>  (265) 
0

>  <r_i_glide_evdw>  (265) 
-30.0226

>  <r_i_glide_ecoul>  (265) 
-3.3834

>  <r_i_glide_erotb>  (265) 
0

>  <r_i_glide_esite>  (265) 
-0.00194387

>  <r_i_glide_emodel>  (265) 
-37.6055

>  <r_i_glide_energy>  (265) 
-33.406

>  <r_i_glide_einternal>  (265) 
0.175421

>  <r_i_glide_intrahb_reward>  (265) 
-0

>  <i_i_glide_confnum>  (265) 
4

>  <i_i_glide_posenum>  (265) 
3

>  <r_i_glide_eff_state_penalty>  (265) 
0

>  <ligand_id>  (265) 
92

>  <original_smiles>  (265) 
CC1C(O)CCC2C3CC(=O)C4(C)CC5C(CC6(C)C7CCC8(CCCC8(C)C)OC7CC56)CC34CCC12C

>  <smiles>  (265) 
[H]OC1([H])C([H])([H])C([H])([H])C2([H])C3([H])C([H])([H])C(=O)C4(C([H])([H])[H])C([H])([H])C5([H])C([H])(C([H])([H])C6(C([H])([H])[H])C7([H])C([H])([H])C([H])([H])C8(OC7([H])C([H])([H])C56[H])C([H])([H])C([H])([H])C([H])([H])C8(C([H])([H])[H])C([H])([H])[H])C([H])([H])C34C([H])([H])C([H])([H])C2(C([H])([H])[H])C1([H])C([H])([H])[H]

$$$$
92:0:2
     RDKit          3D

 95102  0  0  1  0  0  0  0  0999 V2000
    1.5461    0.1731    1.8246 C   0  0  0  0  0  0  0  0  0  0  0  0
    2.7140   -0.6677    2.4015 C   0  0  2  0  0  0  0  0  0  0  0  0
    3.3060   -1.6609    1.3767 C   0  0  1  0  0  0  0  0  0  0  0  0
    3.4432   -1.1072    0.0818 O   0  0  0  0  0  0  0  0  0  0  0  0
    4.6872   -2.0975    1.8570 C   0  0  0  0  0  0  0  0  0  0  0  0
    4.5782   -2.8432    3.1927 C   0  0  0  0  0  0  0  0  0  0  0  0
    3.6777   -2.1837    4.2746 C   0  0  2  0  0  0  0  0  0  0  0  0
    3.3129   -3.1595    5.4415 C   0  0  2  0  0  0  0  0  0  0  0  0
    4.3836   -4.0674    6.0580 C   0  0  0  0  0  0  0  0  0  0  0  0
    3.5436   -5.0659    6.8766 C   0  0  0  0  0  0  0  0  0  0  0  0
    4.0200   -5.8464    7.6700 O   0  0  0  0  0  0  0  0  0  0  0  0
    2.0207   -4.8783    6.5950 C   0  0  2  0  0  0  0  0  0  0  0  0
    1.4897   -4.0798    7.8185 C   0  0  0  0  0  0  0  0  0  0  0  0
    1.1561   -6.1930    6.5483 C   0  0  0  0  0  0  0  0  0  0  0  0
    0.9225   -6.9218    5.1907 C   0  0  1  0  0  0  0  0  0  0  0  0
    1.0885   -6.0720    3.9368 C   0  0  2  0  0  0  0  0  0  0  0  0
    1.2052   -7.0643    2.7732 C   0  0  0  0  0  0  0  0  0  0  0  0
    1.7736   -8.3783    3.3451 C   0  0  1  0  0  0  0  0  0  0  0  0
    1.0129   -9.6111    2.7709 C   0  0  0  0  0  0  0  0  0  0  0  0
    3.3069   -8.4617    3.1270 C   0  0  2  0  0  0  0  0  0  0  0  0
    3.8808   -9.1980    1.8982 C   0  0  0  0  0  0  0  0  0  0  0  0
    5.4198   -9.1627    2.0165 C   0  0  0  0  0  0  0  0  0  0  0  0
    5.9390   -9.6699    3.4037 C   0  0  2  0  0  0  0  0  0  0  0  0
    7.3676   -9.1209    3.6973 C   0  0  0  0  0  0  0  0  0  0  0  0
    8.0321  -10.1145    4.6530 C   0  0  0  0  0  0  0  0  0  0  0  0
    7.1274  -11.3523    4.6976 C   0  0  0  0  0  0  0  0  0  0  0  0
    6.1052  -11.2249    3.5603 C   0  0  0  0  0  0  0  0  0  0  0  0
    4.8150  -11.9622    3.9544 C   0  0  0  0  0  0  0  0  0  0  0  0
    6.6504  -11.8973    2.2804 C   0  0  0  0  0  0  0  0  0  0  0  0
    5.1698   -9.1093    4.4920 O   0  0  0  0  0  0  0  0  0  0  0  0
    3.7648   -9.1763    4.3805 C   0  0  1  0  0  0  0  0  0  0  0  0
    3.0274   -8.4634    5.4988 C   0  0  0  0  0  0  0  0  0  0  0  0
    1.6215   -8.2739    4.8952 C   0  0  1  0  0  0  0  0  0  0  0  0
    2.2665   -5.1115    4.0850 C   0  0  0  0  0  0  0  0  0  0  0  0
    2.0716   -4.0747    5.2414 C   0  0  2  0  0  0  0  0  0  0  0  0
    0.8801   -3.1297    4.9545 C   0  0  0  0  0  0  0  0  0  0  0  0
    1.1429   -2.2817    3.6900 C   0  0  0  0  0  0  0  0  0  0  0  0
    2.4117   -1.3658    3.7767 C   0  0  2  0  0  0  0  0  0  0  0  0
    2.1127   -0.2466    4.8114 C   0  0  0  0  0  0  0  0  0  0  0  0
    0.7076   -0.4479    1.5175 H   0  0  0  0  0  0  0  0  0  0  0  0
    1.8666    0.7363    0.9487 H   0  0  0  0  0  0  0  0  0  0  0  0
    1.1769    0.9185    2.5269 H   0  0  0  0  0  0  0  0  0  0  0  0
    3.4999    0.0685    2.5909 H   0  0  0  0  0  0  0  0  0  0  0  0
    2.6683   -2.5346    1.2613 H   0  0  0  0  0  0  0  0  0  0  0  0
    2.5544   -1.0424   -0.2971 H   0  0  0  0  0  0  0  0  0  0  0  0
    5.1559   -2.7493    1.1219 H   0  0  0  0  0  0  0  0  0  0  0  0
    5.3489   -1.2292    1.9505 H   0  0  0  0  0  0  0  0  0  0  0  0
    4.2798   -3.8630    2.9663 H   0  0  0  0  0  0  0  0  0  0  0  0
    5.5795   -2.9522    3.6007 H   0  0  0  0  0  0  0  0  0  0  0  0
    4.3367   -1.4300    4.7139 H   0  0  0  0  0  0  0  0  0  0  0  0
    3.0627   -2.4788    6.2536 H   0  0  0  0  0  0  0  0  0  0  0  0
    4.9474   -4.6080    5.2990 H   0  0  0  0  0  0  0  0  0  0  0  0
    5.0839   -3.5124    6.6882 H   0  0  0  0  0  0  0  0  0  0  0  0
    0.4593   -3.7575    7.6656 H   0  0  0  0  0  0  0  0  0  0  0  0
    2.0791   -3.1967    8.0615 H   0  0  0  0  0  0  0  0  0  0  0  0
    1.4866   -4.6990    8.7202 H   0  0  0  0  0  0  0  0  0  0  0  0
    1.4660   -6.9056    7.3117 H   0  0  0  0  0  0  0  0  0  0  0  0
    0.1459   -5.8886    6.8485 H   0  0  0  0  0  0  0  0  0  0  0  0
   -0.1280   -7.2067    5.2034 H   0  0  0  0  0  0  0  0  0  0  0  0
    0.1870   -5.4956    3.7732 H   0  0  0  0  0  0  0  0  0  0  0  0
    0.2099   -7.2516    2.3676 H   0  0  0  0  0  0  0  0  0  0  0  0
    1.8055   -6.6840    1.9457 H   0  0  0  0  0  0  0  0  0  0  0  0
    1.3928  -10.5508    3.1670 H   0  0  0  0  0  0  0  0  0  0  0  0
    1.0876   -9.6654    1.6792 H   0  0  0  0  0  0  0  0  0  0  0  0
   -0.0466   -9.5749    3.0181 H   0  0  0  0  0  0  0  0  0  0  0  0
    3.7256   -7.4487    3.0993 H   0  0  0  0  0  0  0  0  0  0  0  0
    3.5189  -10.2310    1.8379 H   0  0  0  0  0  0  0  0  0  0  0  0
    3.5614   -8.7293    0.9595 H   0  0  0  0  0  0  0  0  0  0  0  0
    5.8538   -9.7137    1.1823 H   0  0  0  0  0  0  0  0  0  0  0  0
    5.7495   -8.1317    1.8462 H   0  0  0  0  0  0  0  0  0  0  0  0
    7.9603   -9.0465    2.7842 H   0  0  0  0  0  0  0  0  0  0  0  0
    7.3472   -8.1193    4.1224 H   0  0  0  0  0  0  0  0  0  0  0  0
    9.0364  -10.3774    4.3216 H   0  0  0  0  0  0  0  0  0  0  0  0
    8.1217   -9.6875    5.6520 H   0  0  0  0  0  0  0  0  0  0  0  0
    7.6876  -12.2855    4.6437 H   0  0  0  0  0  0  0  0  0  0  0  0
    6.6092  -11.3560    5.6553 H   0  0  0  0  0  0  0  0  0  0  0  0
    4.9631  -13.0415    4.0367 H   0  0  0  0  0  0  0  0  0  0  0  0
    4.0551  -11.8234    3.1976 H   0  0  0  0  0  0  0  0  0  0  0  0
    4.4287  -11.5667    4.8809 H   0  0  0  0  0  0  0  0  0  0  0  0
    6.8061  -12.9696    2.4303 H   0  0  0  0  0  0  0  0  0  0  0  0
    7.5910  -11.4657    1.9365 H   0  0  0  0  0  0  0  0  0  0  0  0
    5.9381  -11.8177    1.4623 H   0  0  0  0  0  0  0  0  0  0  0  0
    3.3872  -10.1634    4.3770 H   0  0  0  0  0  0  0  0  0  0  0  0
    2.9856   -9.0871    6.3950 H   0  0  0  0  0  0  0  0  0  0  0  0
    3.4892   -7.5213    5.7604 H   0  0  0  0  0  0  0  0  0  0  0  0
    0.9840   -9.0896    5.2491 H   0  0  0  0  0  0  0  0  0  0  0  0
    3.1736   -5.6898    4.2452 H   0  0  0  0  0  0  0  0  0  0  0  0
    2.3953   -4.6319    3.1217 H   0  0  0  0  0  0  0  0  0  0  0  0
   -0.0554   -3.6820    4.8671 H   0  0  0  0  0  0  0  0  0  0  0  0
    0.7208   -2.4585    5.7961 H   0  0  0  0  0  0  0  0  0  0  0  0
    1.1941   -2.9346    2.8270 H   0  0  0  0  0  0  0  0  0  0  0  0
    0.2579   -1.6735    3.5021 H   0  0  0  0  0  0  0  0  0  0  0  0
    2.0365   -0.6132    5.8332 H   0  0  0  0  0  0  0  0  0  0  0  0
    1.1653    0.2618    4.6114 H   0  0  0  0  0  0  0  0  0  0  0  0
    2.8911    0.5178    4.8115 H   0  0  0  0  0  0  0  0  0  0  0  0
  1  2  1  0
  1 40  1  0
  1 41  1  0
  1 42  1  0
  2 38  1  0
  2  3  1  0
  2 43  1  1
  3  4  1  0
  3  5  1  0
  3 44  1  6
  4 45  1  0
  5  6  1  0
  5 46  1  0
  5 47  1  0
  6  7  1  0
  6 48  1  0
  6 49  1  0
  7 38  1  0
  7  8  1  0
  7 50  1  1
  8 35  1  0
  8  9  1  0
  8 51  1  1
  9 10  1  0
  9 52  1  0
  9 53  1  0
 10 11  2  0
 10 12  1  0
 12 35  1  0
 12 13  1  1
 12 14  1  0
 13 54  1  0
 13 55  1  0
 13 56  1  0
 14 15  1  0
 14 57  1  0
 14 58  1  0
 15 33  1  0
 15 16  1  0
 15 59  1  1
 16 17  1  0
 16 34  1  0
 16 60  1  6
 17 18  1  0
 17 61  1  0
 17 62  1  0
 18 33  1  0
 18 19  1  6
 18 20  1  0
 19 63  1  0
 19 64  1  0
 19 65  1  0
 20 31  1  0
 20 21  1  0
 20 66  1  1
 21 22  1  0
 21 67  1  0
 21 68  1  0
 22 23  1  0
 22 69  1  0
 22 70  1  0
 23 27  1  0
 23 24  1  0
 23 30  1  1
 24 25  1  0
 24 71  1  0
 24 72  1  0
 25 26  1  0
 25 73  1  0
 25 74  1  0
 26 27  1  0
 26 75  1  0
 26 76  1  0
 27 28  1  0
 27 29  1  0
 28 77  1  0
 28 78  1  0
 28 79  1  0
 29 80  1  0
 29 81  1  0
 29 82  1  0
 30 31  1  0
 31 32  1  0
 31 83  1  6
 32 33  1  0
 32 84  1  0
 32 85  1  0
 33 86  1  1
 35 34  1  6
 34 87  1  0
 34 88  1  0
 35 36  1  0
 36 37  1  0
 36 89  1  0
 36 90  1  0
 37 38  1  0
 37 91  1  0
 37 92  1  0
 38 39  1  1
 39 93  1  0
 39 94  1  0
 39 95  1  0
M  END
>  <i_m_ct_stereo_status>  (266) 
1

>  <s_m_source_file>  (266) 
/var/tmp/pbs.5076255.sched01/tmpt85fkz7r/123fjz13bl5.sdf

>  <i_m_source_file_index>  (266) 
4

>  <i_lp_mmshare_version>  (266) 
48012

>  <i_f3d_flags>  (266) 
0

>  <s_epik_input>  (266) 
W0NIMl0xW0NIMl1bQ0BIXShbT0hdKVtDQEBIXShbQ0gzXSlbQ0BAXShbQ0gzXSkoW0NIMl1bQ0gyXTIpW0NASF0xW0NASF0oW0NIMl1DKD1PKVtDQF0zKFtDSDNdKVtDSDJdNClbQ0BdMjNbQ0gyXVtDQEBIXShbQ0gyXTUpW0NASF00W0NASF0oW0NIMl1bQ0BASF02TzcpW0NAXTUoW0NIM10pW0NAQEhdNltDSDJdW0NIMl1bQ0BAXTc4W0NIMl1bQ0gyXVtDSDJdQzgoW0NIM10pW0NIM10=

>  <s_epik_cmdline>  (266) 
J2VwaWtfcHl0aG9uJywgJy1waHQnLCAnMi4wJywgJy1waCcsICc3LjAnLCAnLXRuJywgJzgnLCAnLW1hJywgJzIwMCcsICctaW1hZScsICc8aW5maWxlLm1hZT4nLCAnLW9tYWUnLCAnPG91dGZpbGUubWFlPic=

>  <r_lp_tautomer_probability>  (266) 
1

>  <r_epik_Ionization_Penalty>  (266) 
1.68264e-06

>  <r_epik_Ionization_Penalty_Charging>  (266) 
0

>  <r_epik_Ionization_Penalty_Neutral>  (266) 
1.68264e-06

>  <r_epik_State_Penalty>  (266) 
-0

>  <r_epik_Charging_Adjusted_Penalty>  (266) 
0

>  <i_epik_Tot_Q>  (266) 
0

>  <i_epik_Tot_abs_Q>  (266) 
0

>  <s_lp_Force_Field>  (266) 
OPLS3e

>  <r_lp_Energy>  (266) 
89.1518

>  <b_lp_Chiralities_Consistent>  (266) 
1

>  <s_lp_Variant>  (266) 
92:0-1

>  <s_i_glide_gridfile>  (266) 
pfpi4k_grid

>  <i_i_glide_lignum>  (266) 
4

>  <i_i_glide_rotatable_bonds>  (266) 
1

>  <r_i_docking_score>  (266) 
-2.37139

>  <r_i_glide_ligand_efficiency>  (266) 
-0.0608048

>  <r_i_glide_ligand_efficiency_sa>  (266) 
-0.206202

>  <r_i_glide_ligand_efficiency_ln>  (266) 
-0.508493

>  <r_i_glide_gscore>  (266) 
-2.37139

>  <r_i_glide_lipo>  (266) 
-0.210808

>  <r_i_glide_hbond>  (266) 
-0.16

>  <r_i_glide_metal>  (266) 
-0

>  <r_i_glide_rewards>  (266) 
0

>  <r_i_glide_evdw>  (266) 
-29.7611

>  <r_i_glide_ecoul>  (266) 
-3.41683

>  <r_i_glide_erotb>  (266) 
0

>  <r_i_glide_esite>  (266) 
0

>  <r_i_glide_emodel>  (266) 
-36.1742

>  <r_i_glide_energy>  (266) 
-33.1779

>  <r_i_glide_einternal>  (266) 
0.418355

>  <r_i_glide_intrahb_reward>  (266) 
-0

>  <i_i_glide_confnum>  (266) 
6

>  <i_i_glide_posenum>  (266) 
36

>  <r_i_glide_eff_state_penalty>  (266) 
0

>  <ligand_id>  (266) 
92

>  <original_smiles>  (266) 
CC1C(O)CCC2C3CC(=O)C4(C)CC5C(CC6(C)C7CCC8(CCCC8(C)C)OC7CC56)CC34CCC12C

>  <smiles>  (266) 
[H]OC1([H])C([H])([H])C([H])([H])C2([H])C3([H])C([H])([H])C(=O)C4(C([H])([H])[H])C([H])([H])C5([H])C([H])(C([H])([H])C6(C([H])([H])[H])C7([H])C([H])([H])C([H])([H])C8(OC7([H])C([H])([H])C56[H])C([H])([H])C([H])([H])C([H])([H])C8(C([H])([H])[H])C([H])([H])[H])C([H])([H])C34C([H])([H])C([H])([H])C2(C([H])([H])[H])C1([H])C([H])([H])[H]

$$$$
94:0:0
     RDKit          3D

 65 72  0  0  1  0  0  0  0  0999 V2000
    0.8908  -11.4274    3.1585 C   0  0  0  0  0  0  0  0  0  0  0  0
    1.7050  -10.1949    3.5545 C   0  0  0  0  0  0  0  0  0  0  0  0
    2.6140   -9.6556    2.4213 C   0  0  0  0  0  0  0  0  0  0  0  0
    3.4345   -8.4779    2.8308 N   0  0  2  0  0  0  0  0  0  0  0  0
    4.6447   -8.8842    3.7194 C   0  0  0  0  0  0  0  0  0  0  0  0
    5.2223   -7.6910    4.6294 C   0  0  0  0  0  0  0  0  0  0  0  0
    4.4577   -6.4897    4.0399 C   0  0  2  0  0  0  0  0  0  0  0  0
    3.0672   -7.0702    4.6142 C   0  0  0  0  0  0  0  0  0  0  0  0
    2.5882   -7.2680    3.3052 C   0  0  1  0  0  0  0  0  0  0  0  0
    2.9593   -5.7038    3.1609 C   0  0  2  0  0  0  0  0  0  0  0  0
    3.2741   -5.2245    1.7568 C   0  0  2  0  0  0  0  0  0  0  0  0
    4.5180   -6.0036    1.3667 C   0  0  0  0  0  0  0  0  0  0  0  0
    5.3154   -6.3709    2.6418 C   0  0  1  0  0  0  0  0  0  0  0  0
    6.2697   -5.2654    3.0455 C   0  0  0  0  0  0  0  0  0  0  0  0
    5.6097   -4.7510    4.3155 C   0  0  0  0  0  0  0  0  0  0  0  0
    4.0573   -5.0124    4.2790 C   0  0  1  0  0  0  0  0  0  0  0  0
    3.6090   -3.6447    3.5505 C   0  0  1  0  0  0  0  0  0  0  0  0
    4.1417   -2.2252    3.9403 C   0  0  0  0  0  0  0  0  0  0  0  0
    3.3485   -1.1625    3.2259 C   0  0  0  0  0  0  0  0  0  0  0  0
    2.6206   -1.4191    2.0962 C   0  0  0  0  0  0  0  0  0  0  0  0
    1.9857   -0.2616    1.6812 N   0  0  0  0  0  0  0  0  0  0  0  0
    2.3321    0.7935    2.5091 C   0  0  0  0  0  0  0  0  0  0  0  0
    1.9915    2.1551    2.5030 C   0  0  0  0  0  0  0  0  0  0  0  0
    2.5099    3.0096    3.4912 C   0  0  0  0  0  0  0  0  0  0  0  0
    3.3711    2.4920    4.4803 C   0  0  0  0  0  0  0  0  0  0  0  0
    3.7116    1.1246    4.4789 C   0  0  0  0  0  0  0  0  0  0  0  0
    3.2024    0.2415    3.5005 C   0  0  0  0  0  0  0  0  0  0  0  0
    2.4840   -2.7507    1.4351 C   0  0  1  0  0  0  0  0  0  0  0  0
    2.6169   -2.6594    0.0292 O   0  0  0  0  0  0  0  0  0  0  0  0
    3.5307   -3.7478    2.0065 C   0  0  2  0  0  0  0  0  0  0  0  0
    1.4100   -0.2210    0.8382 H   0  0  0  0  0  0  0  0  0  0  0  0
    0.2852  -11.7514    4.0049 H   0  0  0  0  0  0  0  0  0  0  0  0
    1.5384  -12.2557    2.8776 H   0  0  0  0  0  0  0  0  0  0  0  0
    0.2142  -11.2117    2.3300 H   0  0  0  0  0  0  0  0  0  0  0  0
    0.9984   -9.4326    3.8854 H   0  0  0  0  0  0  0  0  0  0  0  0
    2.3043  -10.4524    4.4291 H   0  0  0  0  0  0  0  0  0  0  0  0
    3.2846  -10.4437    2.0707 H   0  0  0  0  0  0  0  0  0  0  0  0
    2.0122   -9.3749    1.5555 H   0  0  0  0  0  0  0  0  0  0  0  0
    4.3700   -9.6998    4.3856 H   0  0  0  0  0  0  0  0  0  0  0  0
    5.4235   -9.3066    3.0820 H   0  0  0  0  0  0  0  0  0  0  0  0
    5.0500   -7.8527    5.6980 H   0  0  0  0  0  0  0  0  0  0  0  0
    6.3064   -7.6238    4.5327 H   0  0  0  0  0  0  0  0  0  0  0  0
    3.0047   -7.9883    5.2152 H   0  0  0  0  0  0  0  0  0  0  0  0
    2.4721   -6.3960    5.2483 H   0  0  0  0  0  0  0  0  0  0  0  0
    1.5118   -7.4290    3.2524 H   0  0  0  0  0  0  0  0  0  0  0  0
    1.9572   -5.3042    3.3544 H   0  0  0  0  0  0  0  0  0  0  0  0
    2.4606   -5.3859    1.0485 H   0  0  0  0  0  0  0  0  0  0  0  0
    4.2052   -6.9121    0.8568 H   0  0  0  0  0  0  0  0  0  0  0  0
    5.1208   -5.4649    0.6369 H   0  0  0  0  0  0  0  0  0  0  0  0
    5.9338   -7.2263    2.3699 H   0  0  0  0  0  0  0  0  0  0  0  0
    7.2644   -5.6489    3.2681 H   0  0  0  0  0  0  0  0  0  0  0  0
    6.3771   -4.4891    2.2905 H   0  0  0  0  0  0  0  0  0  0  0  0
    6.0437   -5.2616    5.1792 H   0  0  0  0  0  0  0  0  0  0  0  0
    5.9303   -3.7460    4.5503 H   0  0  0  0  0  0  0  0  0  0  0  0
    2.5914   -3.4973    3.9235 H   0  0  0  0  0  0  0  0  0  0  0  0
    4.1036   -2.0724    5.0187 H   0  0  0  0  0  0  0  0  0  0  0  0
    5.1772   -2.0904    3.6282 H   0  0  0  0  0  0  0  0  0  0  0  0
    1.3339    2.5456    1.7389 H   0  0  0  0  0  0  0  0  0  0  0  0
    2.2535    4.0602    3.4865 H   0  0  0  0  0  0  0  0  0  0  0  0
    3.7759    3.1454    5.2380 H   0  0  0  0  0  0  0  0  0  0  0  0
    4.3800    0.7376    5.2350 H   0  0  0  0  0  0  0  0  0  0  0  0
    1.4895   -3.1089    1.6910 H   0  0  0  0  0  0  0  0  0  0  0  0
    1.9969   -2.0088   -0.3125 H   0  0  0  0  0  0  0  0  0  0  0  0
    4.4947   -3.4606    1.5926 H   0  0  0  0  0  0  0  0  0  0  0  0
    3.8675   -8.1491    1.9794 H   0  0  0  0  0  0  0  0  0  0  0  0
  1  2  1  0
  1 32  1  0
  1 33  1  0
  1 34  1  0
  2  3  1  0
  2 35  1  0
  2 36  1  0
  3  4  1  0
  3 37  1  0
  3 38  1  0
  4  9  1  0
  4  5  1  0
  4 65  1  6
  5  6  1  0
  5 39  1  0
  5 40  1  0
  7  6  1  1
  6 41  1  0
  6 42  1  0
  7 13  1  0
  7 16  1  0
  7  8  1  0
  8  9  1  0
  8 43  1  0
  8 44  1  0
  9 10  1  0
  9 45  1  1
 10 16  1  0
 10 11  1  0
 10 46  1  1
 11 30  1  0
 11 12  1  0
 11 47  1  6
 12 13  1  0
 12 48  1  0
 12 49  1  0
 13 14  1  0
 13 50  1  6
 14 15  1  0
 14 51  1  0
 14 52  1  0
 16 15  1  6
 15 53  1  0
 15 54  1  0
 16 17  1  0
 17 30  1  0
 17 18  1  0
 17 55  1  1
 18 19  1  0
 18 56  1  0
 18 57  1  0
 19 27  1  0
 19 20  2  0
 20 21  1  0
 20 28  1  0
 21 31  1  0
 21 22  1  0
 22 27  2  0
 22 23  1  0
 23 24  2  0
 23 58  1  0
 24 25  1  0
 24 59  1  0
 25 26  2  0
 25 60  1  0
 26 27  1  0
 26 61  1  0
 28 29  1  0
 28 30  1  0
 28 62  1  6
 29 63  1  0
 30 64  1  6
M  CHG  1   4   1
M  END
>  <i_m_ct_stereo_status>  (267) 
1

>  <s_m_source_file>  (267) 
/var/tmp/pbs.5076255.sched01/tmpt85fkz7r/123fjz13bl5.sdf

>  <i_m_source_file_index>  (267) 
7

>  <i_lp_mmshare_version>  (267) 
48012

>  <i_f3d_flags>  (267) 
0

>  <s_epik_input>  (267) 
W0NIM11bQ0gyXVtDSDJdTihbQ0gyXVtDSDJdMSlbQ0BASF0oW0NIMl0yKVtDQEBIXShbQ0BAXTM0QzEyNSlbQ0BIXShbQ0gyXVtDQEhdNVtDSDJdW0NIMl0zKVtDQEBIXTZbQ0BASF00W0NIMl1jN2MoW0NASF02W09IXSlbbkhdYzhjN1tjSF1bY0hdW2NIXVtjSF04

>  <s_epik_cmdline>  (267) 
J2VwaWtfcHl0aG9uJywgJy1waHQnLCAnMi4wJywgJy1waCcsICc3LjAnLCAnLXRuJywgJzgnLCAnLW1hJywgJzIwMCcsICctaW1hZScsICc8aW5maWxlLm1hZT4nLCAnLW9tYWUnLCAnPG91dGZpbGUubWFlPic=

>  <r_epik_Ionization_Penalty>  (267) 
0.000318552

>  <r_epik_Ionization_Penalty_Charging>  (267) 
0.000318508

>  <r_epik_Ionization_Penalty_Neutral>  (267) 
4.41426e-08

>  <r_epik_State_Penalty>  (267) 
0.000192243

>  <r_epik_Charging_Adjusted_Penalty>  (267) 
0.000510751

>  <i_epik_Tot_Q>  (267) 
1

>  <i_epik_Tot_abs_Q>  (267) 
1

>  <s_lp_Force_Field>  (267) 
OPLS3e

>  <r_lp_Energy>  (267) 
330.933

>  <b_lp_Chiralities_Consistent>  (267) 
1

>  <s_lp_Variant>  (267) 
94:0-1

>  <s_i_glide_gridfile>  (267) 
pfpi4k_grid

>  <i_i_glide_lignum>  (267) 
7

>  <i_i_glide_rotatable_bonds>  (267) 
3

>  <r_i_docking_score>  (267) 
-3.39015

>  <r_i_glide_ligand_efficiency>  (267) 
-0.113005

>  <r_i_glide_ligand_efficiency_sa>  (267) 
-0.351133

>  <r_i_glide_ligand_efficiency_ln>  (267) 
-0.770278

>  <r_i_glide_gscore>  (267) 
-3.39015

>  <r_i_glide_lipo>  (267) 
-0.265971

>  <r_i_glide_hbond>  (267) 
-0.304

>  <r_i_glide_metal>  (267) 
-0

>  <r_i_glide_rewards>  (267) 
-0.657412

>  <r_i_glide_evdw>  (267) 
-18.3619

>  <r_i_glide_ecoul>  (267) 
-8.51541

>  <r_i_glide_erotb>  (267) 
0.12055

>  <r_i_glide_esite>  (267) 
-0.0879094

>  <r_i_glide_emodel>  (267) 
-32.8405

>  <r_i_glide_energy>  (267) 
-26.8773

>  <r_i_glide_einternal>  (267) 
2.23503

>  <r_i_glide_intrahb_reward>  (267) 
-0

>  <i_i_glide_confnum>  (267) 
2

>  <i_i_glide_posenum>  (267) 
1

>  <r_i_glide_eff_state_penalty>  (267) 
0

>  <ligand_id>  (267) 
94

>  <original_smiles>  (267) 
CCCN1CCC23CC1C1C4CC2CCC13C1Cc2c([nH]c3ccccc23)C(O)C41

>  <smiles>  (267) 
[H]OC1([H])c2c(c3c([H])c([H])c([H])c([H])c3n2[H])C([H])([H])C2([H])C1([H])C1([H])C([H])([H])C3([H])C([H])([H])C([H])([H])C24C1([H])C1([H])C([H])([H])C34C([H])([H])C([H])([H])[N+]1([H])C([H])([H])C([H])([H])C([H])([H])[H]

$$$$
95:0:0
     RDKit          3D

 67 74  0  0  1  0  0  0  0  0999 V2000
    5.8895   -0.7161    0.7565 C   0  0  0  0  0  0  0  0  0  0  0  0
    5.7971   -1.9138   -0.0014 O   0  0  0  0  0  0  0  0  0  0  0  0
    5.9403   -3.1299    0.7299 C   0  0  2  0  0  0  0  0  0  0  0  0
    6.0473   -4.2812   -0.2833 C   0  0  0  0  0  0  0  0  0  0  0  0
    4.9223   -5.3014   -0.1133 C   0  0  0  0  0  0  0  0  0  0  0  0
    4.7812   -5.8234    1.3621 C   0  0  2  0  0  0  0  0  0  0  0  0
    4.8816   -4.7175    2.4511 C   0  0  0  0  0  0  0  0  0  0  0  0
    3.8661   -4.8387    3.3434 C   0  0  0  0  0  0  0  0  0  0  0  0
    3.5026   -3.8849    4.4109 C   0  0  0  0  0  0  0  0  0  0  0  0
    2.6091   -2.8998    4.1511 C   0  0  0  0  0  0  0  0  0  0  0  0
    2.1539   -2.7014    2.7814 C   0  0  0  0  0  0  0  0  0  0  0  0
    1.9716   -1.4391    2.3707 O   0  0  0  0  0  0  0  0  0  0  0  0
    2.4599   -3.6899    1.8936 C   0  0  0  0  0  0  0  0  0  0  0  0
    3.4981   -3.2614    1.0898 O   0  0  0  0  0  0  0  0  0  0  0  0
    4.8049   -3.3534    1.7495 C   0  0  2  0  0  0  0  0  0  0  0  0
    2.6893   -5.1466    2.4471 C   0  0  2  0  0  0  0  0  0  0  0  0
    1.3964   -5.6739    3.1300 C   0  0  0  0  0  0  0  0  0  0  0  0
    0.7021   -6.7610    2.2961 C   0  0  0  0  0  0  0  0  0  0  0  0
    1.5884   -8.0239    2.2700 N   0  0  2  0  0  0  0  0  0  0  0  0
    1.1813   -9.0413    3.2992 C   0  0  0  0  0  0  0  0  0  0  0  0
   -0.2847   -9.5116    3.2177 C   0  0  0  0  0  0  0  0  0  0  0  0
   -1.2442   -9.0116    2.1499 C   0  0  0  0  0  0  0  0  0  0  0  0
   -1.4459   -8.6229    3.6124 C   0  0  0  0  0  0  0  0  0  0  0  0
    3.0532   -7.6392    2.3208 C   0  0  1  0  0  0  0  0  0  0  0  0
    4.1031   -8.7410    2.0255 C   0  0  0  0  0  0  0  0  0  0  0  0
    5.4435   -8.1254    2.4681 C   0  0  1  0  0  0  0  0  0  0  0  0
    6.6964   -8.9729    2.4537 C   0  0  0  0  0  0  0  0  0  0  0  0
    7.8236   -7.9248    2.3212 C   0  0  0  0  0  0  0  0  0  0  0  0
    7.1850   -6.6628    1.8609 N   0  0  0  0  0  0  0  0  0  0  0  0
    5.7992   -6.9972    1.5116 C   0  0  2  0  0  0  0  0  0  0  0  0
    3.3046   -6.2709    1.5529 C   0  0  2  0  0  0  0  0  0  0  0  0
    5.8941    0.1414    0.0844 H   0  0  0  0  0  0  0  0  0  0  0  0
    6.8073   -0.6790    1.3437 H   0  0  0  0  0  0  0  0  0  0  0  0
    5.0376   -0.5950    1.4248 H   0  0  0  0  0  0  0  0  0  0  0  0
    6.8845   -3.0778    1.2745 H   0  0  0  0  0  0  0  0  0  0  0  0
    6.0296   -3.8912   -1.3035 H   0  0  0  0  0  0  0  0  0  0  0  0
    7.0126   -4.7697   -0.1599 H   0  0  0  0  0  0  0  0  0  0  0  0
    4.0032   -4.8426   -0.4691 H   0  0  0  0  0  0  0  0  0  0  0  0
    5.0244   -6.1179   -0.8243 H   0  0  0  0  0  0  0  0  0  0  0  0
    3.8865   -4.0361    5.4056 H   0  0  0  0  0  0  0  0  0  0  0  0
    2.3016   -2.2227    4.9448 H   0  0  0  0  0  0  0  0  0  0  0  0
    1.9690   -1.4581    1.4260 H   0  0  0  0  0  0  0  0  0  0  0  0
    4.8811   -2.5864    2.5127 H   0  0  0  0  0  0  0  0  0  0  0  0
    1.6020   -6.0233    4.1368 H   0  0  0  0  0  0  0  0  0  0  0  0
    0.6685   -4.8752    3.2573 H   0  0  0  0  0  0  0  0  0  0  0  0
   -0.2598   -6.8398    2.6875 H   0  0  0  0  0  0  0  0  0  0  0  0
    0.6462   -6.4492    1.2430 H   0  0  0  0  0  0  0  0  0  0  0  0
    1.8081   -9.9475    3.1774 H   0  0  0  0  0  0  0  0  0  0  0  0
    1.4116   -8.7026    4.3179 H   0  0  0  0  0  0  0  0  0  0  0  0
   -0.3843  -10.5366    3.5541 H   0  0  0  0  0  0  0  0  0  0  0  0
   -0.7688   -8.3422    1.4365 H   0  0  0  0  0  0  0  0  0  0  0  0
   -1.9419   -9.7522    1.7638 H   0  0  0  0  0  0  0  0  0  0  0  0
   -2.3234   -9.0623    4.0581 H   0  0  0  0  0  0  0  0  0  0  0  0
   -1.1065   -7.6804    4.0401 H   0  0  0  0  0  0  0  0  0  0  0  0
    3.2247   -7.4517    3.3877 H   0  0  0  0  0  0  0  0  0  0  0  0
    3.9163   -9.6548    2.5972 H   0  0  0  0  0  0  0  0  0  0  0  0
    4.1040   -9.0183    0.9626 H   0  0  0  0  0  0  0  0  0  0  0  0
    5.3421   -7.7231    3.4725 H   0  0  0  0  0  0  0  0  0  0  0  0
    6.8104   -9.5688    3.3536 H   0  0  0  0  0  0  0  0  0  0  0  0
    6.7084   -9.6463    1.6037 H   0  0  0  0  0  0  0  0  0  0  0  0
    8.3342   -7.7436    3.2687 H   0  0  0  0  0  0  0  0  0  0  0  0
    8.5829   -8.2408    1.6038 H   0  0  0  0  0  0  0  0  0  0  0  0
    7.1919   -5.9991    2.6327 H   0  0  0  0  0  0  0  0  0  0  0  0
    5.8567   -7.4940    0.5431 H   0  0  0  0  0  0  0  0  0  0  0  0
    2.8024   -6.3398    0.5875 H   0  0  0  0  0  0  0  0  0  0  0  0
    7.6892   -6.2767    1.0637 H   0  0  0  0  0  0  0  0  0  0  0  0
    1.4389   -8.4846    1.3969 H   0  0  0  0  0  0  0  0  0  0  0  0
  1  2  1  0
  1 32  1  0
  1 33  1  0
  1 34  1  0
  2  3  1  0
  3 15  1  0
  3  4  1  0
  3 35  1  1
  4  5  1  0
  4 36  1  0
  4 37  1  0
  6  5  1  6
  5 38  1  0
  5 39  1  0
  6 30  1  0
  6 31  1  0
  6  7  1  0
  7 15  1  0
  7  8  2  0
  8 16  1  0
  8  9  1  0
  9 10  2  0
  9 40  1  0
 10 11  1  0
 10 41  1  0
 11 12  1  0
 11 13  2  0
 12 42  1  0
 13 14  1  0
 13 16  1  0
 14 15  1  0
 15 43  1  1
 16 31  1  0
 16 17  1  1
 17 18  1  0
 17 44  1  0
 17 45  1  0
 18 19  1  0
 18 46  1  0
 18 47  1  0
 19 20  1  0
 19 24  1  0
 19 67  1  6
 20 21  1  0
 20 48  1  0
 20 49  1  0
 21 23  1  0
 21 22  1  0
 21 50  1  0
 22 23  1  0
 22 51  1  0
 22 52  1  0
 23 53  1  0
 23 54  1  0
 24 25  1  0
 24 31  1  0
 24 55  1  1
 25 26  1  0
 25 56  1  0
 25 57  1  0
 26 30  1  0
 26 27  1  0
 26 58  1  1
 27 28  1  0
 27 59  1  0
 27 60  1  0
 28 29  1  0
 28 61  1  0
 28 62  1  0
 29 30  1  0
 29 63  1  0
 29 66  1  0
 30 64  1  6
 31 65  1  6
M  CHG  2  19   1  29   1
M  END
>  <i_m_ct_stereo_status>  (268) 
1

>  <s_m_source_file>  (268) 
/var/tmp/pbs.5076255.sched01/tmpt85fkz7r/123fjz13bl5.sdf

>  <i_m_source_file_index>  (268) 
8

>  <i_lp_mmshare_version>  (268) 
48012

>  <i_f3d_flags>  (268) 
1

>  <s_epik_input>  (268) 
W0NIM11PW0NASF0oW0NIMl1bQ0gyXTEpW0NASF0yT0MoPUMoW09IXSlbQ0hdPVtDSF0zKVtDQF00KEMzPUMyW0NAQF0xNTYpW0NAQEhdNltDQEBIXShOKFtDSDJdW0NIMl00KVtDSDJdW0NIXTdbQ0gyXVtDSDJdNylbQ0gyXVtDQEBIXThbQ0BASF01W05IXVtDSDJdW0NIMl04

>  <s_epik_cmdline>  (268) 
J2VwaWtfcHl0aG9uJywgJy1waHQnLCAnMi4wJywgJy1waCcsICc3LjAnLCAnLXRuJywgJzgnLCAnLW1hJywgJzIwMCcsICctaW1hZScsICc8aW5maWxlLm1hZT4nLCAnLW9tYWUnLCAnPG91dGZpbGUubWFlPic=

>  <r_epik_Ionization_Penalty>  (268) 
0.440202

>  <r_epik_Ionization_Penalty_Charging>  (268) 
0.439981

>  <r_epik_Ionization_Penalty_Neutral>  (268) 
0.000220782

>  <r_epik_State_Penalty>  (268) 
0.375703

>  <r_epik_Charging_Adjusted_Penalty>  (268) 
0.815684

>  <i_epik_Tot_Q>  (268) 
2

>  <i_epik_Tot_abs_Q>  (268) 
2

>  <s_lp_Force_Field>  (268) 
OPLS3e

>  <r_lp_Energy>  (268) 
200.358

>  <b_lp_Chiralities_Consistent>  (268) 
1

>  <s_lp_Variant>  (268) 
95:0-1

>  <s_i_glide_gridfile>  (268) 
pfpi4k_grid

>  <i_i_glide_lignum>  (268) 
8

>  <i_i_glide_rotatable_bonds>  (268) 
4

>  <r_i_docking_score>  (268) 
-2.64427

>  <r_i_glide_ligand_efficiency>  (268) 
-0.0852992

>  <r_i_glide_ligand_efficiency_sa>  (268) 
-0.267957

>  <r_i_glide_ligand_efficiency_ln>  (268) 
-0.596365

>  <r_i_glide_gscore>  (268) 
-2.64427

>  <r_i_glide_lipo>  (268) 
-0.642416

>  <r_i_glide_hbond>  (268) 
0

>  <r_i_glide_metal>  (268) 
-0

>  <r_i_glide_rewards>  (268) 
-0.514257

>  <r_i_glide_evdw>  (268) 
-22.9235

>  <r_i_glide_ecoul>  (268) 
-3.59035

>  <r_i_glide_erotb>  (268) 
0.220005

>  <r_i_glide_esite>  (268) 
-0.0228789

>  <r_i_glide_emodel>  (268) 
-23.8922

>  <r_i_glide_energy>  (268) 
-26.5139

>  <r_i_glide_einternal>  (268) 
10.3044

>  <r_i_glide_intrahb_reward>  (268) 
-0

>  <i_i_glide_confnum>  (268) 
2

>  <i_i_glide_posenum>  (268) 
19

>  <r_i_glide_eff_state_penalty>  (268) 
0

>  <ligand_id>  (268) 
95

>  <original_smiles>  (268) 
COC1CCC23C4=C5C=CC(O)=C(OC41)C51CCN(CC4CC4)C(CC4CCNC42)C13

>  <smiles>  (268) 
[H]OC1=C2OC3([H])C4=C(C([H])=C1[H])C21C([H])([H])C([H])([H])[N+]([H])(C([H])([H])C2([H])C([H])([H])C2([H])[H])C2([H])C([H])([H])C5([H])C([H])([H])C([H])([H])[N+]([H])([H])C5([H])C4(C([H])([H])C([H])([H])C3([H])OC([H])([H])[H])C12[H]

$$$$
95:0:1
     RDKit          3D

 67 74  0  0  1  0  0  0  0  0999 V2000
    4.7134   -0.2738    0.8028 C   0  0  0  0  0  0  0  0  0  0  0  0
    3.9262   -1.3310    1.3523 O   0  0  0  0  0  0  0  0  0  0  0  0
    4.6464   -2.5227    1.6613 C   0  0  2  0  0  0  0  0  0  0  0  0
    4.9500   -3.3012    0.3691 C   0  0  0  0  0  0  0  0  0  0  0  0
    4.3093   -4.6938    0.3691 C   0  0  0  0  0  0  0  0  0  0  0  0
    4.6626   -5.5369    1.6456 C   0  0  2  0  0  0  0  0  0  0  0  0
    4.5775   -4.7413    2.9790 C   0  0  0  0  0  0  0  0  0  0  0  0
    3.8888   -5.4458    3.9200 C   0  0  0  0  0  0  0  0  0  0  0  0
    3.4502   -4.9704    5.2349 C   0  0  0  0  0  0  0  0  0  0  0  0
    2.2294   -4.3933    5.3526 C   0  0  0  0  0  0  0  0  0  0  0  0
    1.4384   -4.1057    4.1550 C   0  0  0  0  0  0  0  0  0  0  0  0
    0.7535   -2.9501    4.1284 O   0  0  0  0  0  0  0  0  0  0  0  0
    1.9004   -4.6584    2.9967 C   0  0  0  0  0  0  0  0  0  0  0  0
    2.5276   -3.6761    2.2550 O   0  0  0  0  0  0  0  0  0  0  0  0
    3.8909   -3.3851    2.7111 C   0  0  2  0  0  0  0  0  0  0  0  0
    2.7504   -5.9866    3.0918 C   0  0  2  0  0  0  0  0  0  0  0  0
    1.9034   -7.1085    3.7589 C   0  0  0  0  0  0  0  0  0  0  0  0
    1.5651   -8.1595    2.7349 C   0  0  0  0  0  0  0  0  0  0  0  0
    2.7595   -8.9653    2.2631 N   0  0  2  0  0  0  0  0  0  0  0  0
    2.9911  -10.2706    2.9967 C   0  0  0  0  0  0  0  0  0  0  0  0
    1.7390  -11.1688    3.1181 C   0  0  0  0  0  0  0  0  0  0  0  0
    0.4281  -10.7727    2.4863 C   0  0  0  0  0  0  0  0  0  0  0  0
    0.5910  -10.7582    4.0114 C   0  0  0  0  0  0  0  0  0  0  0  0
    3.9625   -8.0443    2.2450 C   0  0  1  0  0  0  0  0  0  0  0  0
    5.2528   -8.5445    1.5452 C   0  0  0  0  0  0  0  0  0  0  0  0
    6.3291   -7.5509    1.9999 C   0  0  1  0  0  0  0  0  0  0  0  0
    7.7877   -7.8001    1.6196 C   0  0  0  0  0  0  0  0  0  0  0  0
    8.4144   -6.3887    1.6562 C   0  0  0  0  0  0  0  0  0  0  0  0
    7.2834   -5.4114    1.6382 N   0  0  0  0  0  0  0  0  0  0  0  0
    6.0577   -6.2045    1.3562 C   0  0  2  0  0  0  0  0  0  0  0  0
    3.5229   -6.5686    1.8561 C   0  0  2  0  0  0  0  0  0  0  0  0
    4.0638    0.5398    0.4817 H   0  0  0  0  0  0  0  0  0  0  0  0
    5.2951   -0.5845   -0.0656 H   0  0  0  0  0  0  0  0  0  0  0  0
    5.4003    0.1330    1.5442 H   0  0  0  0  0  0  0  0  0  0  0  0
    5.5944   -2.2142    2.1051 H   0  0  0  0  0  0  0  0  0  0  0  0
    4.5807   -2.7520   -0.4978 H   0  0  0  0  0  0  0  0  0  0  0  0
    6.0274   -3.3685    0.2260 H   0  0  0  0  0  0  0  0  0  0  0  0
    3.2326   -4.5603    0.2611 H   0  0  0  0  0  0  0  0  0  0  0  0
    4.5643   -5.2129   -0.5542 H   0  0  0  0  0  0  0  0  0  0  0  0
    4.0497   -5.1436    6.1139 H   0  0  0  0  0  0  0  0  0  0  0  0
    1.8771   -4.0792    6.3221 H   0  0  0  0  0  0  0  0  0  0  0  0
    0.6641   -2.6796    3.2248 H   0  0  0  0  0  0  0  0  0  0  0  0
    3.8544   -2.8051    3.6368 H   0  0  0  0  0  0  0  0  0  0  0  0
    2.4176   -7.5862    4.5982 H   0  0  0  0  0  0  0  0  0  0  0  0
    0.9713   -6.7402    4.1837 H   0  0  0  0  0  0  0  0  0  0  0  0
    0.7844   -8.6488    3.2367 H   0  0  0  0  0  0  0  0  0  0  0  0
    1.0151   -7.7935    1.8504 H   0  0  0  0  0  0  0  0  0  0  0  0
    3.7505  -10.8588    2.4770 H   0  0  0  0  0  0  0  0  0  0  0  0
    3.3978  -10.0602    3.9879 H   0  0  0  0  0  0  0  0  0  0  0  0
    1.9517  -12.2358    3.1172 H   0  0  0  0  0  0  0  0  0  0  0  0
    0.4518   -9.8996    1.8357 H   0  0  0  0  0  0  0  0  0  0  0  0
   -0.1691  -11.5330    2.0307 H   0  0  0  0  0  0  0  0  0  0  0  0
    0.0108  -11.4911    4.5442 H   0  0  0  0  0  0  0  0  0  0  0  0
    0.7579   -9.8553    4.6162 H   0  0  0  0  0  0  0  0  0  0  0  0
    4.2390   -8.0489    3.3016 H   0  0  0  0  0  0  0  0  0  0  0  0
    5.5178   -9.5602    1.8389 H   0  0  0  0  0  0  0  0  0  0  0  0
    5.1370   -8.5665    0.4624 H   0  0  0  0  0  0  0  0  0  0  0  0
    6.3150   -7.4519    3.0879 H   0  0  0  0  0  0  0  0  0  0  0  0
    8.2801   -8.4815    2.3096 H   0  0  0  0  0  0  0  0  0  0  0  0
    7.8639   -8.2329    0.6226 H   0  0  0  0  0  0  0  0  0  0  0  0
    9.0001   -6.2235    2.5616 H   0  0  0  0  0  0  0  0  0  0  0  0
    9.0685   -6.2165    0.7996 H   0  0  0  0  0  0  0  0  0  0  0  0
    7.2035   -4.9697    2.5498 H   0  0  0  0  0  0  0  0  0  0  0  0
    6.1303   -6.3810    0.2822 H   0  0  0  0  0  0  0  0  0  0  0  0
    2.8750   -6.6462    0.9831 H   0  0  0  0  0  0  0  0  0  0  0  0
    7.4300   -4.6866    0.9404 H   0  0  0  0  0  0  0  0  0  0  0  0
    2.5631   -9.2613    1.2979 H   0  0  0  0  0  0  0  0  0  0  0  0
  1  2  1  0
  1 32  1  0
  1 33  1  0
  1 34  1  0
  2  3  1  0
  3 15  1  0
  3  4  1  0
  3 35  1  1
  4  5  1  0
  4 36  1  0
  4 37  1  0
  6  5  1  6
  5 38  1  0
  5 39  1  0
  6 30  1  0
  6 31  1  0
  6  7  1  0
  7 15  1  0
  7  8  2  0
  8 16  1  0
  8  9  1  0
  9 10  2  0
  9 40  1  0
 10 11  1  0
 10 41  1  0
 11 12  1  0
 11 13  2  0
 12 42  1  0
 13 14  1  0
 13 16  1  0
 14 15  1  0
 15 43  1  1
 16 31  1  0
 16 17  1  1
 17 18  1  0
 17 44  1  0
 17 45  1  0
 18 19  1  0
 18 46  1  0
 18 47  1  0
 19 20  1  0
 19 24  1  0
 19 67  1  6
 20 21  1  0
 20 48  1  0
 20 49  1  0
 21 23  1  0
 21 22  1  0
 21 50  1  0
 22 23  1  0
 22 51  1  0
 22 52  1  0
 23 53  1  0
 23 54  1  0
 24 25  1  0
 24 31  1  0
 24 55  1  1
 25 26  1  0
 25 56  1  0
 25 57  1  0
 26 30  1  0
 26 27  1  0
 26 58  1  1
 27 28  1  0
 27 59  1  0
 27 60  1  0
 28 29  1  0
 28 61  1  0
 28 62  1  0
 29 30  1  0
 29 63  1  0
 29 66  1  0
 30 64  1  6
 31 65  1  6
M  CHG  2  19   1  29   1
M  END
>  <i_m_ct_stereo_status>  (269) 
1

>  <s_m_source_file>  (269) 
/var/tmp/pbs.5076255.sched01/tmpt85fkz7r/123fjz13bl5.sdf

>  <i_m_source_file_index>  (269) 
8

>  <i_lp_mmshare_version>  (269) 
48012

>  <i_f3d_flags>  (269) 
1

>  <s_epik_input>  (269) 
W0NIM11PW0NASF0oW0NIMl1bQ0gyXTEpW0NASF0yT0MoPUMoW09IXSlbQ0hdPVtDSF0zKVtDQF00KEMzPUMyW0NAQF0xNTYpW0NAQEhdNltDQEBIXShOKFtDSDJdW0NIMl00KVtDSDJdW0NIXTdbQ0gyXVtDSDJdNylbQ0gyXVtDQEBIXThbQ0BASF01W05IXVtDSDJdW0NIMl04

>  <s_epik_cmdline>  (269) 
J2VwaWtfcHl0aG9uJywgJy1waHQnLCAnMi4wJywgJy1waCcsICc3LjAnLCAnLXRuJywgJzgnLCAnLW1hJywgJzIwMCcsICctaW1hZScsICc8aW5maWxlLm1hZT4nLCAnLW9tYWUnLCAnPG91dGZpbGUubWFlPic=

>  <r_epik_Ionization_Penalty>  (269) 
0.440202

>  <r_epik_Ionization_Penalty_Charging>  (269) 
0.439981

>  <r_epik_Ionization_Penalty_Neutral>  (269) 
0.000220782

>  <r_epik_State_Penalty>  (269) 
0.375703

>  <r_epik_Charging_Adjusted_Penalty>  (269) 
0.815684

>  <i_epik_Tot_Q>  (269) 
2

>  <i_epik_Tot_abs_Q>  (269) 
2

>  <s_lp_Force_Field>  (269) 
OPLS3e

>  <r_lp_Energy>  (269) 
200.358

>  <b_lp_Chiralities_Consistent>  (269) 
1

>  <s_lp_Variant>  (269) 
95:0-1

>  <s_i_glide_gridfile>  (269) 
pfpi4k_grid

>  <i_i_glide_lignum>  (269) 
8

>  <i_i_glide_rotatable_bonds>  (269) 
4

>  <r_i_docking_score>  (269) 
-2.63189

>  <r_i_glide_ligand_efficiency>  (269) 
-0.0848997

>  <r_i_glide_ligand_efficiency_sa>  (269) 
-0.266702

>  <r_i_glide_ligand_efficiency_ln>  (269) 
-0.593572

>  <r_i_glide_gscore>  (269) 
-2.63189

>  <r_i_glide_lipo>  (269) 
-0.761469

>  <r_i_glide_hbond>  (269) 
0

>  <r_i_glide_metal>  (269) 
-0

>  <r_i_glide_rewards>  (269) 
-0.514257

>  <r_i_glide_evdw>  (269) 
-21.3707

>  <r_i_glide_ecoul>  (269) 
-4.60934

>  <r_i_glide_erotb>  (269) 
0.220005

>  <r_i_glide_esite>  (269) 
-0.0112217

>  <r_i_glide_emodel>  (269) 
-21.554

>  <r_i_glide_energy>  (269) 
-25.98

>  <r_i_glide_einternal>  (269) 
11.9829

>  <r_i_glide_intrahb_reward>  (269) 
-0

>  <i_i_glide_confnum>  (269) 
2

>  <i_i_glide_posenum>  (269) 
24

>  <r_i_glide_eff_state_penalty>  (269) 
0

>  <ligand_id>  (269) 
95

>  <original_smiles>  (269) 
COC1CCC23C4=C5C=CC(O)=C(OC41)C51CCN(CC4CC4)C(CC4CCNC42)C13

>  <smiles>  (269) 
[H]OC1=C2OC3([H])C4=C(C([H])=C1[H])C21C([H])([H])C([H])([H])[N+]([H])(C([H])([H])C2([H])C([H])([H])C2([H])[H])C2([H])C([H])([H])C5([H])C([H])([H])C([H])([H])[N+]([H])([H])C5([H])C4(C([H])([H])C([H])([H])C3([H])OC([H])([H])[H])C12[H]

$$$$
95:0:2
     RDKit          3D

 67 74  0  0  1  0  0  0  0  0999 V2000
    5.8966   -0.7979    1.1009 C   0  0  0  0  0  0  0  0  0  0  0  0
    5.9194   -1.9981    0.3385 O   0  0  0  0  0  0  0  0  0  0  0  0
    6.0572   -3.2099    1.0791 C   0  0  2  0  0  0  0  0  0  0  0  0
    6.2462   -4.3618    0.0784 C   0  0  0  0  0  0  0  0  0  0  0  0
    5.1364   -5.4100    0.1930 C   0  0  0  0  0  0  0  0  0  0  0  0
    4.9340   -5.9324    1.6605 C   0  0  2  0  0  0  0  0  0  0  0  0
    4.9620   -4.8278    2.7434 C   0  0  0  0  0  0  0  0  0  0  0  0
    3.8957   -4.9673    3.6102 C   0  0  0  0  0  0  0  0  0  0  0  0
    3.4736   -4.0337    4.6461 C   0  0  0  0  0  0  0  0  0  0  0  0
    2.5588   -3.0632    4.3391 C   0  0  0  0  0  0  0  0  0  0  0  0
    2.1565   -2.8718    2.9550 C   0  0  0  0  0  0  0  0  0  0  0  0
    1.9756   -1.6352    2.5062 O   0  0  0  0  0  0  0  0  0  0  0  0
    2.5452   -3.8713    2.0681 C   0  0  0  0  0  0  0  0  0  0  0  0
    3.6022   -3.4030    1.3321 O   0  0  0  0  0  0  0  0  0  0  0  0
    4.8789   -3.4640    2.0510 C   0  0  2  0  0  0  0  0  0  0  0  0
    2.7877   -5.3115    2.6444 C   0  0  2  0  0  0  0  0  0  0  0  0
    1.4693   -5.8610    3.2728 C   0  0  0  0  0  0  0  0  0  0  0  0
    0.9049   -6.9659    2.4054 C   0  0  0  0  0  0  0  0  0  0  0  0
    1.7599   -8.1973    2.4331 N   0  0  2  0  0  0  0  0  0  0  0  0
    1.3465   -9.2550    3.4378 C   0  0  0  0  0  0  0  0  0  0  0  0
   -0.1334   -9.7024    3.3341 C   0  0  0  0  0  0  0  0  0  0  0  0
   -1.0640   -9.1943    2.2560 C   0  0  0  0  0  0  0  0  0  0  0  0
   -1.2615   -8.7656    3.7081 C   0  0  0  0  0  0  0  0  0  0  0  0
    3.2251   -7.7916    2.5413 C   0  0  1  0  0  0  0  0  0  0  0  0
    4.3192   -8.8725    2.2996 C   0  0  0  0  0  0  0  0  0  0  0  0
    5.6071   -8.2142    2.8009 C   0  0  1  0  0  0  0  0  0  0  0  0
    6.8876   -9.0297    2.8564 C   0  0  0  0  0  0  0  0  0  0  0  0
    7.9893   -7.9559    2.7747 C   0  0  0  0  0  0  0  0  0  0  0  0
    7.3463   -6.7060    2.2790 N   0  0  0  0  0  0  0  0  0  0  0  0
    5.9810   -7.0865    1.8584 C   0  0  2  0  0  0  0  0  0  0  0  0
    3.4662   -6.4209    1.7768 C   0  0  2  0  0  0  0  0  0  0  0  0
    5.9123    0.0621    0.4304 H   0  0  0  0  0  0  0  0  0  0  0  0
    6.7603   -0.7197    1.7612 H   0  0  0  0  0  0  0  0  0  0  0  0
    4.9891   -0.7179    1.6985 H   0  0  0  0  0  0  0  0  0  0  0  0
    6.9728   -3.1288    1.6659 H   0  0  0  0  0  0  0  0  0  0  0  0
    6.2627   -3.9745   -0.9427 H   0  0  0  0  0  0  0  0  0  0  0  0
    7.2169   -4.8290    0.2339 H   0  0  0  0  0  0  0  0  0  0  0  0
    4.2246   -4.9724   -0.2066 H   0  0  0  0  0  0  0  0  0  0  0  0
    5.3083   -6.2203   -0.5095 H   0  0  0  0  0  0  0  0  0  0  0  0
    3.8096   -4.1631    5.6604 H   0  0  0  0  0  0  0  0  0  0  0  0
    2.2016   -2.4011    5.1271 H   0  0  0  0  0  0  0  0  0  0  0  0
    2.0966   -1.0409    3.2455 H   0  0  0  0  0  0  0  0  0  0  0  0
    4.9058   -2.6879    2.8126 H   0  0  0  0  0  0  0  0  0  0  0  0
    1.6355   -6.2176    4.2891 H   0  0  0  0  0  0  0  0  0  0  0  0
    0.7167   -5.0915    3.3636 H   0  0  0  0  0  0  0  0  0  0  0  0
   -0.1129   -7.0440    2.7370 H   0  0  0  0  0  0  0  0  0  0  0  0
    0.8069   -6.6679    1.3436 H   0  0  0  0  0  0  0  0  0  0  0  0
    1.9623  -10.1562    3.3088 H   0  0  0  0  0  0  0  0  0  0  0  0
    1.5662   -8.9175    4.4586 H   0  0  0  0  0  0  0  0  0  0  0  0
   -0.2550  -10.7266    3.6711 H   0  0  0  0  0  0  0  0  0  0  0  0
   -0.5709   -8.5564    1.5191 H   0  0  0  0  0  0  0  0  0  0  0  0
   -1.7751   -9.9004    1.8430 H   0  0  0  0  0  0  0  0  0  0  0  0
   -2.1908   -9.0480    4.1530 H   0  0  0  0  0  0  0  0  0  0  0  0
   -0.9289   -7.8416    4.1686 H   0  0  0  0  0  0  0  0  0  0  0  0
    3.3250   -7.6021    3.6150 H   0  0  0  0  0  0  0  0  0  0  0  0
    4.1168   -9.7886    2.8594 H   0  0  0  0  0  0  0  0  0  0  0  0
    4.3702   -9.1487    1.2423 H   0  0  0  0  0  0  0  0  0  0  0  0
    5.4527   -7.8157    3.8030 H   0  0  0  0  0  0  0  0  0  0  0  0
    6.9711   -9.6218    3.7599 H   0  0  0  0  0  0  0  0  0  0  0  0
    6.9556   -9.7057    2.0099 H   0  0  0  0  0  0  0  0  0  0  0  0
    8.4489   -7.7532    3.7446 H   0  0  0  0  0  0  0  0  0  0  0  0
    8.7837   -8.2532    2.0957 H   0  0  0  0  0  0  0  0  0  0  0  0
    7.2947   -6.0350    3.0450 H   0  0  0  0  0  0  0  0  0  0  0  0
    6.1335   -7.5746    0.8939 H   0  0  0  0  0  0  0  0  0  0  0  0
    3.0055   -6.5091    0.7998 H   0  0  0  0  0  0  0  0  0  0  0  0
    7.8787   -6.3056    1.5054 H   0  0  0  0  0  0  0  0  0  0  0  0
    1.6583   -8.6836    1.5366 H   0  0  0  0  0  0  0  0  0  0  0  0
  1  2  1  0
  1 32  1  0
  1 33  1  0
  1 34  1  0
  2  3  1  0
  3 15  1  0
  3  4  1  0
  3 35  1  1
  4  5  1  0
  4 36  1  0
  4 37  1  0
  6  5  1  6
  5 38  1  0
  5 39  1  0
  6 30  1  0
  6 31  1  0
  6  7  1  0
  7 15  1  0
  7  8  2  0
  8 16  1  0
  8  9  1  0
  9 10  2  0
  9 40  1  0
 10 11  1  0
 10 41  1  0
 11 12  1  0
 11 13  2  0
 12 42  1  0
 13 14  1  0
 13 16  1  0
 14 15  1  0
 15 43  1  1
 16 31  1  0
 16 17  1  1
 17 18  1  0
 17 44  1  0
 17 45  1  0
 18 19  1  0
 18 46  1  0
 18 47  1  0
 19 20  1  0
 19 24  1  0
 19 67  1  6
 20 21  1  0
 20 48  1  0
 20 49  1  0
 21 23  1  0
 21 22  1  0
 21 50  1  0
 22 23  1  0
 22 51  1  0
 22 52  1  0
 23 53  1  0
 23 54  1  0
 24 25  1  0
 24 31  1  0
 24 55  1  1
 25 26  1  0
 25 56  1  0
 25 57  1  0
 26 30  1  0
 26 27  1  0
 26 58  1  1
 27 28  1  0
 27 59  1  0
 27 60  1  0
 28 29  1  0
 28 61  1  0
 28 62  1  0
 29 30  1  0
 29 63  1  0
 29 66  1  0
 30 64  1  6
 31 65  1  6
M  CHG  2  19   1  29   1
M  END
>  <i_m_ct_stereo_status>  (270) 
1

>  <s_m_source_file>  (270) 
/var/tmp/pbs.5076255.sched01/tmpt85fkz7r/123fjz13bl5.sdf

>  <i_m_source_file_index>  (270) 
8

>  <i_lp_mmshare_version>  (270) 
48012

>  <i_f3d_flags>  (270) 
1

>  <s_epik_input>  (270) 
W0NIM11PW0NASF0oW0NIMl1bQ0gyXTEpW0NASF0yT0MoPUMoW09IXSlbQ0hdPVtDSF0zKVtDQF00KEMzPUMyW0NAQF0xNTYpW0NAQEhdNltDQEBIXShOKFtDSDJdW0NIMl00KVtDSDJdW0NIXTdbQ0gyXVtDSDJdNylbQ0gyXVtDQEBIXThbQ0BASF01W05IXVtDSDJdW0NIMl04

>  <s_epik_cmdline>  (270) 
J2VwaWtfcHl0aG9uJywgJy1waHQnLCAnMi4wJywgJy1waCcsICc3LjAnLCAnLXRuJywgJzgnLCAnLW1hJywgJzIwMCcsICctaW1hZScsICc8aW5maWxlLm1hZT4nLCAnLW9tYWUnLCAnPG91dGZpbGUubWFlPic=

>  <r_epik_Ionization_Penalty>  (270) 
0.440202

>  <r_epik_Ionization_Penalty_Charging>  (270) 
0.439981

>  <r_epik_Ionization_Penalty_Neutral>  (270) 
0.000220782

>  <r_epik_State_Penalty>  (270) 
0.375703

>  <r_epik_Charging_Adjusted_Penalty>  (270) 
0.815684

>  <i_epik_Tot_Q>  (270) 
2

>  <i_epik_Tot_abs_Q>  (270) 
2

>  <s_lp_Force_Field>  (270) 
OPLS3e

>  <r_lp_Energy>  (270) 
200.358

>  <b_lp_Chiralities_Consistent>  (270) 
1

>  <s_lp_Variant>  (270) 
95:0-1

>  <s_i_glide_gridfile>  (270) 
pfpi4k_grid

>  <i_i_glide_lignum>  (270) 
8

>  <i_i_glide_rotatable_bonds>  (270) 
4

>  <r_i_docking_score>  (270) 
-2.53303

>  <r_i_glide_ligand_efficiency>  (270) 
-0.0817105

>  <r_i_glide_ligand_efficiency_sa>  (270) 
-0.256684

>  <r_i_glide_ligand_efficiency_ln>  (270) 
-0.571275

>  <r_i_glide_gscore>  (270) 
-2.53303

>  <r_i_glide_lipo>  (270) 
-0.771757

>  <r_i_glide_hbond>  (270) 
0

>  <r_i_glide_metal>  (270) 
-0

>  <r_i_glide_rewards>  (270) 
-0.514257

>  <r_i_glide_evdw>  (270) 
-21.985

>  <r_i_glide_ecoul>  (270) 
-2.32774

>  <r_i_glide_erotb>  (270) 
0.220005

>  <r_i_glide_esite>  (270) 
-0.0186029

>  <r_i_glide_emodel>  (270) 
-20.9141

>  <r_i_glide_energy>  (270) 
-24.3128

>  <r_i_glide_einternal>  (270) 
10.6742

>  <r_i_glide_intrahb_reward>  (270) 
-0

>  <i_i_glide_confnum>  (270) 
2

>  <i_i_glide_posenum>  (270) 
31

>  <r_i_glide_eff_state_penalty>  (270) 
0

>  <ligand_id>  (270) 
95

>  <original_smiles>  (270) 
COC1CCC23C4=C5C=CC(O)=C(OC41)C51CCN(CC4CC4)C(CC4CCNC42)C13

>  <smiles>  (270) 
[H]OC1=C2OC3([H])C4=C(C([H])=C1[H])C21C([H])([H])C([H])([H])[N+]([H])(C([H])([H])C2([H])C([H])([H])C2([H])[H])C2([H])C([H])([H])C5([H])C([H])([H])C([H])([H])[N+]([H])([H])C5([H])C4(C([H])([H])C([H])([H])C3([H])OC([H])([H])[H])C12[H]

$$$$
95:1:0
     RDKit          3D

 66 73  0  0  1  0  0  0  0  0999 V2000
    4.3413   -0.7679   -1.9353 C   0  0  0  0  0  0  0  0  0  0  0  0
    5.4360   -0.7564   -0.9995 O   0  0  0  0  0  0  0  0  0  0  0  0
    5.7745   -1.9472   -0.2832 C   0  0  2  0  0  0  0  0  0  0  0  0
    6.0567   -3.1586   -1.1927 C   0  0  0  0  0  0  0  0  0  0  0  0
    5.0281   -4.2461   -0.8835 C   0  0  0  0  0  0  0  0  0  0  0  0
    5.0367   -4.6838    0.6285 C   0  0  2  0  0  0  0  0  0  0  0  0
    5.0967   -3.5325    1.6588 C   0  0  0  0  0  0  0  0  0  0  0  0
    4.1769   -3.7134    2.6545 C   0  0  0  0  0  0  0  0  0  0  0  0
    3.8366   -2.7338    3.6879 C   0  0  0  0  0  0  0  0  0  0  0  0
    2.8156   -1.8677    3.4796 C   0  0  0  0  0  0  0  0  0  0  0  0
    2.1945   -1.8190    2.1686 C   0  0  0  0  0  0  0  0  0  0  0  0
    1.8231   -0.6299    1.6739 O   0  0  0  0  0  0  0  0  0  0  0  0
    2.5317   -2.8271    1.3075 C   0  0  0  0  0  0  0  0  0  0  0  0
    3.4321   -2.3802    0.3702 O   0  0  0  0  0  0  0  0  0  0  0  0
    4.7947   -2.2374    0.8890 C   0  0  2  0  0  0  0  0  0  0  0  0
    2.9787   -4.2075    1.8987 C   0  0  2  0  0  0  0  0  0  0  0  0
    1.8372   -4.8593    2.7334 C   0  0  0  0  0  0  0  0  0  0  0  0
    1.2567   -6.0987    2.0070 C   0  0  0  0  0  0  0  0  0  0  0  0
    2.2365   -7.1709    1.7554 N   0  0  0  0  0  0  0  0  0  0  0  0
    2.0323   -8.2905    2.6935 C   0  0  0  0  0  0  0  0  0  0  0  0
    0.6981   -8.9996    2.4949 C   0  0  0  0  0  0  0  0  0  0  0  0
   -0.0522   -9.5281    3.6936 C   0  0  0  0  0  0  0  0  0  0  0  0
    0.5745  -10.4926    2.7242 C   0  0  0  0  0  0  0  0  0  0  0  0
    3.6003   -6.6166    1.7827 C   0  0  1  0  0  0  0  0  0  0  0  0
    4.7419   -7.5963    1.4492 C   0  0  0  0  0  0  0  0  0  0  0  0
    6.0158   -6.8175    1.7540 C   0  0  1  0  0  0  0  0  0  0  0  0
    7.3684   -7.5259    1.6970 C   0  0  0  0  0  0  0  0  0  0  0  0
    8.3417   -6.3679    1.4496 C   0  0  0  0  0  0  0  0  0  0  0  0
    7.5465   -5.2135    0.9762 N   0  0  0  0  0  0  0  0  0  0  0  0
    6.1867   -5.7250    0.7362 C   0  0  2  0  0  0  0  0  0  0  0  0
    3.6291   -5.2757    0.9589 C   0  0  2  0  0  0  0  0  0  0  0  0
    4.2238    0.2297   -2.3547 H   0  0  0  0  0  0  0  0  0  0  0  0
    3.3804   -1.0296   -1.5053 H   0  0  0  0  0  0  0  0  0  0  0  0
    4.4997   -1.4309   -2.7845 H   0  0  0  0  0  0  0  0  0  0  0  0
    6.7263   -1.7060    0.2006 H   0  0  0  0  0  0  0  0  0  0  0  0
    6.0362   -2.9164   -2.2610 H   0  0  0  0  0  0  0  0  0  0  0  0
    7.0712   -3.5256   -1.0359 H   0  0  0  0  0  0  0  0  0  0  0  0
    4.0497   -3.8903   -1.1949 H   0  0  0  0  0  0  0  0  0  0  0  0
    5.1593   -5.0800   -1.5664 H   0  0  0  0  0  0  0  0  0  0  0  0
    4.3286   -2.7935    4.6405 H   0  0  0  0  0  0  0  0  0  0  0  0
    2.5006   -1.1854    4.2597 H   0  0  0  0  0  0  0  0  0  0  0  0
    1.6104   -0.7351    0.7590 H   0  0  0  0  0  0  0  0  0  0  0  0
    4.8564   -1.3911    1.5777 H   0  0  0  0  0  0  0  0  0  0  0  0
    2.1912   -5.1309    3.7276 H   0  0  0  0  0  0  0  0  0  0  0  0
    1.0296   -4.1455    2.9075 H   0  0  0  0  0  0  0  0  0  0  0  0
    0.4199   -6.4657    2.5994 H   0  0  0  0  0  0  0  0  0  0  0  0
    0.8499   -5.8239    1.0337 H   0  0  0  0  0  0  0  0  0  0  0  0
    2.7749   -9.0657    2.5295 H   0  0  0  0  0  0  0  0  0  0  0  0
    2.1331   -7.9499    3.7265 H   0  0  0  0  0  0  0  0  0  0  0  0
    0.0846   -8.6245    1.6769 H   0  0  0  0  0  0  0  0  0  0  0  0
    0.4137   -9.4318    4.6707 H   0  0  0  0  0  0  0  0  0  0  0  0
   -1.1366   -9.4536    3.6811 H   0  0  0  0  0  0  0  0  0  0  0  0
   -0.0981  -11.0445    2.0680 H   0  0  0  0  0  0  0  0  0  0  0  0
    1.4615  -11.0382    3.0412 H   0  0  0  0  0  0  0  0  0  0  0  0
    3.7763   -6.3778    2.8342 H   0  0  0  0  0  0  0  0  0  0  0  0
    4.7261   -8.4915    2.0675 H   0  0  0  0  0  0  0  0  0  0  0  0
    4.6926   -7.9122    0.4031 H   0  0  0  0  0  0  0  0  0  0  0  0
    5.9467   -6.3749    2.7446 H   0  0  0  0  0  0  0  0  0  0  0  0
    7.6001   -8.0719    2.6068 H   0  0  0  0  0  0  0  0  0  0  0  0
    7.4096   -8.2372    0.8696 H   0  0  0  0  0  0  0  0  0  0  0  0
    8.8924   -6.1033    2.3529 H   0  0  0  0  0  0  0  0  0  0  0  0
    9.0572   -6.6493    0.6846 H   0  0  0  0  0  0  0  0  0  0  0  0
    7.5197   -4.5256    1.7153 H   0  0  0  0  0  0  0  0  0  0  0  0
    6.2396   -6.2453   -0.2138 H   0  0  0  0  0  0  0  0  0  0  0  0
    3.0477   -5.4142    0.0493 H   0  0  0  0  0  0  0  0  0  0  0  0
    7.9418   -4.8348    0.1271 H   0  0  0  0  0  0  0  0  0  0  0  0
  1  2  1  0
  1 32  1  0
  1 33  1  0
  1 34  1  0
  2  3  1  0
  3 15  1  0
  3  4  1  0
  3 35  1  1
  4  5  1  0
  4 36  1  0
  4 37  1  0
  6  5  1  6
  5 38  1  0
  5 39  1  0
  6 30  1  0
  6 31  1  0
  6  7  1  0
  7 15  1  0
  7  8  2  0
  8 16  1  0
  8  9  1  0
  9 10  2  0
  9 40  1  0
 10 11  1  0
 10 41  1  0
 11 12  1  0
 11 13  2  0
 12 42  1  0
 13 14  1  0
 13 16  1  0
 14 15  1  0
 15 43  1  1
 16 31  1  0
 16 17  1  1
 17 18  1  0
 17 44  1  0
 17 45  1  0
 18 19  1  0
 18 46  1  0
 18 47  1  0
 19 20  1  0
 19 24  1  0
 20 21  1  0
 20 48  1  0
 20 49  1  0
 21 23  1  0
 21 22  1  0
 21 50  1  0
 22 23  1  0
 22 51  1  0
 22 52  1  0
 23 53  1  0
 23 54  1  0
 24 25  1  0
 24 31  1  0
 24 55  1  1
 25 26  1  0
 25 56  1  0
 25 57  1  0
 26 30  1  0
 26 27  1  0
 26 58  1  1
 27 28  1  0
 27 59  1  0
 27 60  1  0
 28 29  1  0
 28 61  1  0
 28 62  1  0
 29 30  1  0
 29 63  1  0
 29 66  1  0
 30 64  1  6
 31 65  1  6
M  CHG  1  29   1
M  END
>  <i_m_ct_stereo_status>  (271) 
1

>  <s_m_source_file>  (271) 
/var/tmp/pbs.5076255.sched01/tmpt85fkz7r/123fjz13bl5.sdf

>  <i_m_source_file_index>  (271) 
9

>  <i_lp_mmshare_version>  (271) 
48012

>  <i_f3d_flags>  (271) 
1

>  <s_epik_input>  (271) 
W0NIM11PW0NASF0oW0NIMl1bQ0gyXTEpW0NASF0yT0MoPUMoW09IXSlbQ0hdPVtDSF0zKVtDQF00KEMzPUMyW0NAQF0xNTYpW0NAQEhdNltDQEBIXShOKFtDSDJdW0NIMl00KVtDSDJdW0NIXTdbQ0gyXVtDSDJdNylbQ0gyXVtDQEBIXThbQ0BASF01W05IXVtDSDJdW0NIMl04

>  <s_epik_cmdline>  (271) 
J2VwaWtfcHl0aG9uJywgJy1waHQnLCAnMi4wJywgJy1waCcsICc3LjAnLCAnLXRuJywgJzgnLCAnLW1hJywgJzIwMCcsICctaW1hZScsICc8aW5maWxlLm1hZT4nLCAnLW9tYWUnLCAnPG91dGZpbGUubWFlPic=

>  <r_epik_Ionization_Penalty>  (271) 
0.392589

>  <r_epik_Ionization_Penalty_Charging>  (271) 
0.00265704

>  <r_epik_Ionization_Penalty_Neutral>  (271) 
0.389932

>  <r_epik_State_Penalty>  (271) 
0.457589

>  <r_epik_Charging_Adjusted_Penalty>  (271) 
0.460246

>  <i_epik_Tot_Q>  (271) 
1

>  <i_epik_Tot_abs_Q>  (271) 
1

>  <s_lp_Force_Field>  (271) 
OPLS3e

>  <r_lp_Energy>  (271) 
203.25

>  <b_lp_Chiralities_Consistent>  (271) 
1

>  <s_lp_Variant>  (271) 
95:0-2

>  <s_i_glide_gridfile>  (271) 
pfpi4k_grid

>  <i_i_glide_lignum>  (271) 
9

>  <i_i_glide_rotatable_bonds>  (271) 
4

>  <r_i_docking_score>  (271) 
-2.76166

>  <r_i_glide_ligand_efficiency>  (271) 
-0.0890857

>  <r_i_glide_ligand_efficiency_sa>  (271) 
-0.279852

>  <r_i_glide_ligand_efficiency_ln>  (271) 
-0.622839

>  <r_i_glide_gscore>  (271) 
-2.76166

>  <r_i_glide_lipo>  (271) 
-0.628195

>  <r_i_glide_hbond>  (271) 
-0.00288247

>  <r_i_glide_metal>  (271) 
-0

>  <r_i_glide_rewards>  (271) 
-0.521129

>  <r_i_glide_evdw>  (271) 
-25.4033

>  <r_i_glide_ecoul>  (271) 
-3.73493

>  <r_i_glide_erotb>  (271) 
0.220953

>  <r_i_glide_esite>  (271) 
0

>  <r_i_glide_emodel>  (271) 
-30.3476

>  <r_i_glide_energy>  (271) 
-29.1382

>  <r_i_glide_einternal>  (271) 
7.70308

>  <r_i_glide_intrahb_reward>  (271) 
-0

>  <i_i_glide_confnum>  (271) 
2

>  <i_i_glide_posenum>  (271) 
13

>  <r_i_glide_eff_state_penalty>  (271) 
0

>  <ligand_id>  (271) 
95

>  <original_smiles>  (271) 
COC1CCC23C4=C5C=CC(O)=C(OC41)C51CCN(CC4CC4)C(CC4CCNC42)C13

>  <smiles>  (271) 
[H]OC1=C2OC3([H])C4=C(C([H])=C1[H])C21C([H])([H])C([H])([H])N(C([H])([H])C2([H])C([H])([H])C2([H])[H])C2([H])C([H])([H])C5([H])C([H])([H])C([H])([H])[N+]([H])([H])C5([H])C4(C([H])([H])C([H])([H])C3([H])OC([H])([H])[H])C12[H]

$$$$
95:1:1
     RDKit          3D

 66 73  0  0  1  0  0  0  0  0999 V2000
    4.5185   -1.0892   -1.7126 C   0  0  0  0  0  0  0  0  0  0  0  0
    5.7562   -1.2370   -0.9869 O   0  0  0  0  0  0  0  0  0  0  0  0
    5.9592   -2.3989   -0.1677 C   0  0  2  0  0  0  0  0  0  0  0  0
    5.8080   -3.7291   -0.9146 C   0  0  0  0  0  0  0  0  0  0  0  0
    4.6774   -4.5357   -0.2834 C   0  0  0  0  0  0  0  0  0  0  0  0
    4.8808   -4.8023    1.2577 C   0  0  2  0  0  0  0  0  0  0  0  0
    5.3775   -3.5784    2.0742 C   0  0  0  0  0  0  0  0  0  0  0  0
    4.6598   -3.4336    3.2360 C   0  0  0  0  0  0  0  0  0  0  0  0
    4.7372   -2.3056    4.1558 C   0  0  0  0  0  0  0  0  0  0  0  0
    3.8884   -1.2474    4.0011 C   0  0  0  0  0  0  0  0  0  0  0  0
    3.0492   -1.2052    2.8068 C   0  0  0  0  0  0  0  0  0  0  0  0
    2.8961   -0.0300    2.1937 O   0  0  0  0  0  0  0  0  0  0  0  0
    2.9872   -2.3537    2.0680 C   0  0  0  0  0  0  0  0  0  0  0  0
    3.7497   -2.2278    0.9290 O   0  0  0  0  0  0  0  0  0  0  0  0
    5.1859   -2.3397    1.1838 C   0  0  2  0  0  0  0  0  0  0  0  0
    3.2585   -3.7207    2.7708 C   0  0  2  0  0  0  0  0  0  0  0  0
    2.1939   -3.9888    3.8676 C   0  0  0  0  0  0  0  0  0  0  0  0
    1.2324   -5.1142    3.4265 C   0  0  0  0  0  0  0  0  0  0  0  0
    1.8917   -6.4195    3.1908 N   0  0  0  0  0  0  0  0  0  0  0  0
    1.6387   -7.3494    4.3045 C   0  0  0  0  0  0  0  0  0  0  0  0
    0.1882   -7.8259    4.3578 C   0  0  0  0  0  0  0  0  0  0  0  0
   -0.1688   -9.0373    5.1855 C   0  0  0  0  0  0  0  0  0  0  0  0
   -0.2402   -9.1092    3.6839 C   0  0  0  0  0  0  0  0  0  0  0  0
    3.3239   -6.2032    2.9159 C   0  0  1  0  0  0  0  0  0  0  0  0
    4.1510   -7.4449    2.5384 C   0  0  0  0  0  0  0  0  0  0  0  0
    5.5987   -6.9627    2.5074 C   0  0  1  0  0  0  0  0  0  0  0  0
    6.7328   -7.9698    2.3218 C   0  0  0  0  0  0  0  0  0  0  0  0
    7.8750   -7.1074    1.7524 C   0  0  0  0  0  0  0  0  0  0  0  0
    7.2429   -5.8686    1.2551 N   0  0  0  0  0  0  0  0  0  0  0  0
    5.7941   -6.0610    1.3130 C   0  0  2  0  0  0  0  0  0  0  0  0
    3.4799   -5.0023    1.9041 C   0  0  2  0  0  0  0  0  0  0  0  0
    4.5326   -0.1373   -2.2500 H   0  0  0  0  0  0  0  0  0  0  0  0
    3.6280   -1.0695   -1.0916 H   0  0  0  0  0  0  0  0  0  0  0  0
    4.3719   -1.8658   -2.4645 H   0  0  0  0  0  0  0  0  0  0  0  0
    7.0136   -2.3452    0.1150 H   0  0  0  0  0  0  0  0  0  0  0  0
    5.6528   -3.6306   -1.9961 H   0  0  0  0  0  0  0  0  0  0  0  0
    6.7581   -4.2620   -0.8160 H   0  0  0  0  0  0  0  0  0  0  0  0
    3.7441   -4.0096   -0.4811 H   0  0  0  0  0  0  0  0  0  0  0  0
    4.5252   -5.4529   -0.8444 H   0  0  0  0  0  0  0  0  0  0  0  0
    5.3895   -2.3725    5.0076 H   0  0  0  0  0  0  0  0  0  0  0  0
    3.8934   -0.4347    4.7171 H   0  0  0  0  0  0  0  0  0  0  0  0
    3.2957    0.6257    2.7479 H   0  0  0  0  0  0  0  0  0  0  0  0
    5.5654   -1.4696    1.7247 H   0  0  0  0  0  0  0  0  0  0  0  0
    2.6613   -4.2359    4.8201 H   0  0  0  0  0  0  0  0  0  0  0  0
    1.5933   -3.0983    4.0633 H   0  0  0  0  0  0  0  0  0  0  0  0
    0.4900   -5.1884    4.2106 H   0  0  0  0  0  0  0  0  0  0  0  0
    0.7106   -4.8287    2.5101 H   0  0  0  0  0  0  0  0  0  0  0  0
    2.2138   -8.2652    4.1944 H   0  0  0  0  0  0  0  0  0  0  0  0
    1.9385   -6.9051    5.2584 H   0  0  0  0  0  0  0  0  0  0  0  0
   -0.5635   -7.0413    4.3953 H   0  0  0  0  0  0  0  0  0  0  0  0
    0.6295   -9.5845    5.6859 H   0  0  0  0  0  0  0  0  0  0  0  0
   -1.1223   -9.0302    5.7077 H   0  0  0  0  0  0  0  0  0  0  0  0
   -1.2351   -9.1241    3.2390 H   0  0  0  0  0  0  0  0  0  0  0  0
    0.5106   -9.7004    3.1580 H   0  0  0  0  0  0  0  0  0  0  0  0
    3.7488   -5.8950    3.8729 H   0  0  0  0  0  0  0  0  0  0  0  0
    4.0766   -8.2416    3.2771 H   0  0  0  0  0  0  0  0  0  0  0  0
    3.8368   -7.8501    1.5748 H   0  0  0  0  0  0  0  0  0  0  0  0
    5.8174   -6.4016    3.4135 H   0  0  0  0  0  0  0  0  0  0  0  0
    7.0170   -8.4508    3.2577 H   0  0  0  0  0  0  0  0  0  0  0  0
    6.4558   -8.7461    1.6062 H   0  0  0  0  0  0  0  0  0  0  0  0
    8.6140   -6.8689    2.5157 H   0  0  0  0  0  0  0  0  0  0  0  0
    8.3944   -7.6348    0.9553 H   0  0  0  0  0  0  0  0  0  0  0  0
    7.5023   -5.1102    1.8786 H   0  0  0  0  0  0  0  0  0  0  0  0
    5.5497   -6.6910    0.4547 H   0  0  0  0  0  0  0  0  0  0  0  0
    2.7131   -5.0858    1.1331 H   0  0  0  0  0  0  0  0  0  0  0  0
    7.5422   -5.6740    0.3027 H   0  0  0  0  0  0  0  0  0  0  0  0
  1  2  1  0
  1 32  1  0
  1 33  1  0
  1 34  1  0
  2  3  1  0
  3 15  1  0
  3  4  1  0
  3 35  1  1
  4  5  1  0
  4 36  1  0
  4 37  1  0
  6  5  1  6
  5 38  1  0
  5 39  1  0
  6 30  1  0
  6 31  1  0
  6  7  1  0
  7 15  1  0
  7  8  2  0
  8 16  1  0
  8  9  1  0
  9 10  2  0
  9 40  1  0
 10 11  1  0
 10 41  1  0
 11 12  1  0
 11 13  2  0
 12 42  1  0
 13 14  1  0
 13 16  1  0
 14 15  1  0
 15 43  1  1
 16 31  1  0
 16 17  1  1
 17 18  1  0
 17 44  1  0
 17 45  1  0
 18 19  1  0
 18 46  1  0
 18 47  1  0
 19 20  1  0
 19 24  1  0
 20 21  1  0
 20 48  1  0
 20 49  1  0
 21 23  1  0
 21 22  1  0
 21 50  1  0
 22 23  1  0
 22 51  1  0
 22 52  1  0
 23 53  1  0
 23 54  1  0
 24 25  1  0
 24 31  1  0
 24 55  1  1
 25 26  1  0
 25 56  1  0
 25 57  1  0
 26 30  1  0
 26 27  1  0
 26 58  1  1
 27 28  1  0
 27 59  1  0
 27 60  1  0
 28 29  1  0
 28 61  1  0
 28 62  1  0
 29 30  1  0
 29 63  1  0
 29 66  1  0
 30 64  1  6
 31 65  1  6
M  CHG  1  29   1
M  END
>  <i_m_ct_stereo_status>  (272) 
1

>  <s_m_source_file>  (272) 
/var/tmp/pbs.5076255.sched01/tmpt85fkz7r/123fjz13bl5.sdf

>  <i_m_source_file_index>  (272) 
9

>  <i_lp_mmshare_version>  (272) 
48012

>  <i_f3d_flags>  (272) 
1

>  <s_epik_input>  (272) 
W0NIM11PW0NASF0oW0NIMl1bQ0gyXTEpW0NASF0yT0MoPUMoW09IXSlbQ0hdPVtDSF0zKVtDQF00KEMzPUMyW0NAQF0xNTYpW0NAQEhdNltDQEBIXShOKFtDSDJdW0NIMl00KVtDSDJdW0NIXTdbQ0gyXVtDSDJdNylbQ0gyXVtDQEBIXThbQ0BASF01W05IXVtDSDJdW0NIMl04

>  <s_epik_cmdline>  (272) 
J2VwaWtfcHl0aG9uJywgJy1waHQnLCAnMi4wJywgJy1waCcsICc3LjAnLCAnLXRuJywgJzgnLCAnLW1hJywgJzIwMCcsICctaW1hZScsICc8aW5maWxlLm1hZT4nLCAnLW9tYWUnLCAnPG91dGZpbGUubWFlPic=

>  <r_epik_Ionization_Penalty>  (272) 
0.392589

>  <r_epik_Ionization_Penalty_Charging>  (272) 
0.00265704

>  <r_epik_Ionization_Penalty_Neutral>  (272) 
0.389932

>  <r_epik_State_Penalty>  (272) 
0.457589

>  <r_epik_Charging_Adjusted_Penalty>  (272) 
0.460246

>  <i_epik_Tot_Q>  (272) 
1

>  <i_epik_Tot_abs_Q>  (272) 
1

>  <s_lp_Force_Field>  (272) 
OPLS3e

>  <r_lp_Energy>  (272) 
203.25

>  <b_lp_Chiralities_Consistent>  (272) 
1

>  <s_lp_Variant>  (272) 
95:0-2

>  <s_i_glide_gridfile>  (272) 
pfpi4k_grid

>  <i_i_glide_lignum>  (272) 
9

>  <i_i_glide_rotatable_bonds>  (272) 
4

>  <r_i_docking_score>  (272) 
-2.20601

>  <r_i_glide_ligand_efficiency>  (272) 
-0.0711615

>  <r_i_glide_ligand_efficiency_sa>  (272) 
-0.223545

>  <r_i_glide_ligand_efficiency_ln>  (272) 
-0.497522

>  <r_i_glide_gscore>  (272) 
-2.20601

>  <r_i_glide_lipo>  (272) 
-0.399176

>  <r_i_glide_hbond>  (272) 
-0.0484767

>  <r_i_glide_metal>  (272) 
-0

>  <r_i_glide_rewards>  (272) 
-0.521129

>  <r_i_glide_evdw>  (272) 
-22.639

>  <r_i_glide_ecoul>  (272) 
-2.17484

>  <r_i_glide_erotb>  (272) 
0.220953

>  <r_i_glide_esite>  (272) 
0

>  <r_i_glide_emodel>  (272) 
-25.5331

>  <r_i_glide_energy>  (272) 
-24.8139

>  <r_i_glide_einternal>  (272) 
6.71333

>  <r_i_glide_intrahb_reward>  (272) 
-0

>  <i_i_glide_confnum>  (272) 
2

>  <i_i_glide_posenum>  (272) 
39

>  <r_i_glide_eff_state_penalty>  (272) 
0

>  <ligand_id>  (272) 
95

>  <original_smiles>  (272) 
COC1CCC23C4=C5C=CC(O)=C(OC41)C51CCN(CC4CC4)C(CC4CCNC42)C13

>  <smiles>  (272) 
[H]OC1=C2OC3([H])C4=C(C([H])=C1[H])C21C([H])([H])C([H])([H])N(C([H])([H])C2([H])C([H])([H])C2([H])[H])C2([H])C([H])([H])C5([H])C([H])([H])C([H])([H])[N+]([H])([H])C5([H])C4(C([H])([H])C([H])([H])C3([H])OC([H])([H])[H])C12[H]

$$$$
95:1:2
     RDKit          3D

 66 73  0  0  1  0  0  0  0  0999 V2000
   -0.1773   -9.2499    7.8653 C   0  0  0  0  0  0  0  0  0  0  0  0
    0.8526   -8.2674    7.7597 O   0  0  0  0  0  0  0  0  0  0  0  0
    1.8856   -8.5753    6.8336 C   0  0  2  0  0  0  0  0  0  0  0  0
    3.1008   -7.6933    7.1690 C   0  0  0  0  0  0  0  0  0  0  0  0
    3.4527   -6.7528    6.0084 C   0  0  0  0  0  0  0  0  0  0  0  0
    3.6315   -7.5002    4.6427 C   0  0  2  0  0  0  0  0  0  0  0  0
    2.5511   -8.5739    4.3404 C   0  0  0  0  0  0  0  0  0  0  0  0
    2.0725   -8.4480    3.0820 C   0  0  0  0  0  0  0  0  0  0  0  0
    0.9360   -9.1941    2.5315 C   0  0  0  0  0  0  0  0  0  0  0  0
   -0.3087   -8.6553    2.6004 C   0  0  0  0  0  0  0  0  0  0  0  0
   -0.5153   -7.4428    3.3873 C   0  0  0  0  0  0  0  0  0  0  0  0
   -1.6260   -7.3815    4.1259 O   0  0  0  0  0  0  0  0  0  0  0  0
    0.6052   -6.8107    3.8092 C   0  0  0  0  0  0  0  0  0  0  0  0
    0.8384   -7.0752    5.1509 O   0  0  0  0  0  0  0  0  0  0  0  0
    1.4148   -8.4028    5.3717 C   0  0  2  0  0  0  0  0  0  0  0  0
    1.9210   -6.9649    2.9509 C   0  0  2  0  0  0  0  0  0  0  0  0
    1.7141   -6.4075    1.5115 C   0  0  0  0  0  0  0  0  0  0  0  0
    2.5187   -5.1026    1.2954 C   0  0  0  0  0  0  0  0  0  0  0  0
    3.9895   -5.2651    1.4307 N   0  0  0  0  0  0  0  0  0  0  0  0
    4.6489   -5.2605    0.1158 C   0  0  0  0  0  0  0  0  0  0  0  0
    4.6692   -3.8749   -0.5089 C   0  0  0  0  0  0  0  0  0  0  0  0
    3.5681   -3.3923   -1.4300 C   0  0  0  0  0  0  0  0  0  0  0  0
    4.9194   -3.7238   -1.9963 C   0  0  0  0  0  0  0  0  0  0  0  0
    4.2693   -6.4578    2.2498 C   0  0  1  0  0  0  0  0  0  0  0  0
    5.7547   -6.7065    2.5999 C   0  0  0  0  0  0  0  0  0  0  0  0
    5.7622   -8.0816    3.2552 C   0  0  1  0  0  0  0  0  0  0  0  0
    7.1086   -8.7477    3.5923 C   0  0  0  0  0  0  0  0  0  0  0  0
    6.7129   -9.7323    4.7198 C   0  0  0  0  0  0  0  0  0  0  0  0
    5.4102   -9.2950    5.2210 N   0  0  0  0  0  0  0  0  0  0  0  0
    5.1146   -8.0124    4.6210 C   0  0  2  0  0  0  0  0  0  0  0  0
    3.3036   -6.4769    3.4978 C   0  0  2  0  0  0  0  0  0  0  0  0
   -0.8311   -8.9829    8.6923 H   0  0  0  0  0  0  0  0  0  0  0  0
    0.2270  -10.2407    8.0697 H   0  0  0  0  0  0  0  0  0  0  0  0
   -0.7806   -9.2957    6.9620 H   0  0  0  0  0  0  0  0  0  0  0  0
    2.1938   -9.6134    6.9910 H   0  0  0  0  0  0  0  0  0  0  0  0
    2.9057   -7.1050    8.0693 H   0  0  0  0  0  0  0  0  0  0  0  0
    3.9580   -8.3221    7.4030 H   0  0  0  0  0  0  0  0  0  0  0  0
    2.6737   -5.9911    5.9598 H   0  0  0  0  0  0  0  0  0  0  0  0
    4.3279   -6.1576    6.2707 H   0  0  0  0  0  0  0  0  0  0  0  0
    1.1081  -10.0948    1.9623 H   0  0  0  0  0  0  0  0  0  0  0  0
   -1.1365   -9.1632    2.1308 H   0  0  0  0  0  0  0  0  0  0  0  0
   -2.0708   -8.2063    4.0309 H   0  0  0  0  0  0  0  0  0  0  0  0
    0.6691   -9.1791    5.1819 H   0  0  0  0  0  0  0  0  0  0  0  0
    2.0014   -7.1545    0.7762 H   0  0  0  0  0  0  0  0  0  0  0  0
    0.6608   -6.2178    1.3036 H   0  0  0  0  0  0  0  0  0  0  0  0
    2.2461   -4.7146    0.3208 H   0  0  0  0  0  0  0  0  0  0  0  0
    2.1940   -4.3566    2.0130 H   0  0  0  0  0  0  0  0  0  0  0  0
    5.6939   -5.5372    0.1910 H   0  0  0  0  0  0  0  0  0  0  0  0
    4.1907   -5.9780   -0.5619 H   0  0  0  0  0  0  0  0  0  0  0  0
    5.1610   -3.1194    0.1100 H   0  0  0  0  0  0  0  0  0  0  0  0
    2.7592   -4.0809   -1.6521 H   0  0  0  0  0  0  0  0  0  0  0  0
    3.2799   -2.3482   -1.3393 H   0  0  0  0  0  0  0  0  0  0  0  0
    5.5038   -2.8814   -2.3676 H   0  0  0  0  0  0  0  0  0  0  0  0
    5.0051   -4.6377   -2.5858 H   0  0  0  0  0  0  0  0  0  0  0  0
    4.0256   -7.3082    1.6060 H   0  0  0  0  0  0  0  0  0  0  0  0
    6.3999   -6.7374    1.7337 H   0  0  0  0  0  0  0  0  0  0  0  0
    6.1418   -5.9277    3.2707 H   0  0  0  0  0  0  0  0  0  0  0  0
    5.2195   -8.7948    2.6283 H   0  0  0  0  0  0  0  0  0  0  0  0
    7.5465   -9.2441    2.7293 H   0  0  0  0  0  0  0  0  0  0  0  0
    7.8244   -8.0039    3.9582 H   0  0  0  0  0  0  0  0  0  0  0  0
    6.6504  -10.7533    4.3318 H   0  0  0  0  0  0  0  0  0  0  0  0
    7.4745   -9.7238    5.5040 H   0  0  0  0  0  0  0  0  0  0  0  0
    4.7060   -9.9753    4.9398 H   0  0  0  0  0  0  0  0  0  0  0  0
    5.7174   -7.2846    5.1732 H   0  0  0  0  0  0  0  0  0  0  0  0
    3.2346   -5.4653    3.8973 H   0  0  0  0  0  0  0  0  0  0  0  0
    5.4133   -9.2340    6.2388 H   0  0  0  0  0  0  0  0  0  0  0  0
  1  2  1  0
  1 32  1  0
  1 33  1  0
  1 34  1  0
  2  3  1  0
  3 15  1  0
  3  4  1  0
  3 35  1  6
  4  5  1  0
  4 36  1  0
  4 37  1  0
  6  5  1  1
  5 38  1  0
  5 39  1  0
  6 30  1  0
  6 31  1  0
  6  7  1  0
  7 15  1  0
  7  8  2  0
  8 16  1  0
  8  9  1  0
  9 10  2  0
  9 40  1  0
 10 11  1  0
 10 41  1  0
 11 12  1  0
 11 13  2  0
 12 42  1  0
 13 14  1  0
 13 16  1  0
 14 15  1  0
 15 43  1  6
 16 31  1  0
 16 17  1  6
 17 18  1  0
 17 44  1  0
 17 45  1  0
 18 19  1  0
 18 46  1  0
 18 47  1  0
 19 20  1  0
 19 24  1  0
 20 21  1  0
 20 48  1  0
 20 49  1  0
 21 23  1  0
 21 22  1  0
 21 50  1  0
 22 23  1  0
 22 51  1  0
 22 52  1  0
 23 53  1  0
 23 54  1  0
 24 25  1  0
 24 31  1  0
 24 55  1  6
 25 26  1  0
 25 56  1  0
 25 57  1  0
 26 30  1  0
 26 27  1  0
 26 58  1  6
 27 28  1  0
 27 59  1  0
 27 60  1  0
 28 29  1  0
 28 61  1  0
 28 62  1  0
 29 30  1  0
 29 63  1  0
 29 66  1  0
 30 64  1  1
 31 65  1  1
M  CHG  1  29   1
M  END
>  <i_m_ct_stereo_status>  (273) 
1

>  <s_m_source_file>  (273) 
/var/tmp/pbs.5076255.sched01/tmpt85fkz7r/123fjz13bl5.sdf

>  <i_m_source_file_index>  (273) 
9

>  <i_lp_mmshare_version>  (273) 
48012

>  <i_f3d_flags>  (273) 
1

>  <s_epik_input>  (273) 
W0NIM11PW0NASF0oW0NIMl1bQ0gyXTEpW0NASF0yT0MoPUMoW09IXSlbQ0hdPVtDSF0zKVtDQF00KEMzPUMyW0NAQF0xNTYpW0NAQEhdNltDQEBIXShOKFtDSDJdW0NIMl00KVtDSDJdW0NIXTdbQ0gyXVtDSDJdNylbQ0gyXVtDQEBIXThbQ0BASF01W05IXVtDSDJdW0NIMl04

>  <s_epik_cmdline>  (273) 
J2VwaWtfcHl0aG9uJywgJy1waHQnLCAnMi4wJywgJy1waCcsICc3LjAnLCAnLXRuJywgJzgnLCAnLW1hJywgJzIwMCcsICctaW1hZScsICc8aW5maWxlLm1hZT4nLCAnLW9tYWUnLCAnPG91dGZpbGUubWFlPic=

>  <r_epik_Ionization_Penalty>  (273) 
0.392589

>  <r_epik_Ionization_Penalty_Charging>  (273) 
0.00265704

>  <r_epik_Ionization_Penalty_Neutral>  (273) 
0.389932

>  <r_epik_State_Penalty>  (273) 
0.457589

>  <r_epik_Charging_Adjusted_Penalty>  (273) 
0.460246

>  <i_epik_Tot_Q>  (273) 
1

>  <i_epik_Tot_abs_Q>  (273) 
1

>  <s_lp_Force_Field>  (273) 
OPLS3e

>  <r_lp_Energy>  (273) 
203.25

>  <b_lp_Chiralities_Consistent>  (273) 
1

>  <s_lp_Variant>  (273) 
95:0-2

>  <s_i_glide_gridfile>  (273) 
pfpi4k_grid

>  <i_i_glide_lignum>  (273) 
9

>  <i_i_glide_rotatable_bonds>  (273) 
4

>  <r_i_docking_score>  (273) 
-2.0628

>  <r_i_glide_ligand_efficiency>  (273) 
-0.0665421

>  <r_i_glide_ligand_efficiency_sa>  (273) 
-0.209034

>  <r_i_glide_ligand_efficiency_ln>  (273) 
-0.465226

>  <r_i_glide_gscore>  (273) 
-2.0628

>  <r_i_glide_lipo>  (273) 
-0.141826

>  <r_i_glide_hbond>  (273) 
0

>  <r_i_glide_metal>  (273) 
-0

>  <r_i_glide_rewards>  (273) 
-0.521129

>  <r_i_glide_evdw>  (273) 
-22.686

>  <r_i_glide_ecoul>  (273) 
-3.24334

>  <r_i_glide_erotb>  (273) 
0.220953

>  <r_i_glide_esite>  (273) 
0

>  <r_i_glide_emodel>  (273) 
-29.3054

>  <r_i_glide_energy>  (273) 
-25.9294

>  <r_i_glide_einternal>  (273) 
0.758011

>  <r_i_glide_intrahb_reward>  (273) 
-0

>  <i_i_glide_confnum>  (273) 
2

>  <i_i_glide_posenum>  (273) 
2

>  <r_i_glide_eff_state_penalty>  (273) 
0

>  <ligand_id>  (273) 
95

>  <original_smiles>  (273) 
COC1CCC23C4=C5C=CC(O)=C(OC41)C51CCN(CC4CC4)C(CC4CCNC42)C13

>  <smiles>  (273) 
[H]OC1=C2OC3([H])C4=C(C([H])=C1[H])C21C([H])([H])C([H])([H])N(C([H])([H])C2([H])C([H])([H])C2([H])[H])C2([H])C([H])([H])C5([H])C([H])([H])C([H])([H])[N+]([H])([H])C5([H])C4(C([H])([H])C([H])([H])C3([H])OC([H])([H])[H])C12[H]

$$$$
97:0:0
     RDKit          3D

 45 50  0  0  1  0  0  0  0  0999 V2000
    5.6822   -7.4912    1.1181 C   0  0  0  0  0  0  0  0  0  0  0  0
    5.2132   -6.1629    0.5065 C   0  0  0  0  0  0  0  0  0  0  0  0
    5.6692   -4.9186    1.2651 C   0  0  2  0  0  0  0  0  0  0  0  0
    7.1924   -4.6496    1.1161 C   0  0  0  0  0  0  0  0  0  0  0  0
    7.3376   -3.4306    0.1359 C   0  0  0  0  0  0  0  0  0  0  0  0
    6.0494   -2.5681    0.2619 C   0  0  2  0  0  0  0  0  0  0  0  0
    6.1608   -1.3269    1.2167 C   0  0  0  0  0  0  0  0  0  0  0  0
    4.7315   -1.0050    1.7890 C   0  0  2  0  0  0  0  0  0  0  0  0
    4.1217   -2.2027    2.6579 C   0  0  1  0  0  0  0  0  0  0  0  0
    2.7911   -2.5207    2.3008 O   0  0  0  0  0  0  0  0  0  0  0  0
    5.0229   -3.3841    2.3763 C   0  0  1  0  0  0  0  0  0  0  0  0
    4.9521   -4.8021    2.5613 O   0  0  0  0  0  0  0  0  0  0  0  0
    5.1136   -3.5788    0.8933 C   0  0  2  0  0  0  0  0  0  0  0  0
    3.9064   -0.4714    0.5603 C   0  0  0  0  0  0  0  0  0  0  0  0
    2.6022   -0.4331    0.7759 F   0  0  0  0  0  0  0  0  0  0  0  0
    4.2621    0.8069    0.4976 F   0  0  0  0  0  0  0  0  0  0  0  0
    4.2703   -1.0311   -0.8508 C   0  0  2  0  0  0  0  0  0  0  0  0
    3.3930   -2.0661   -1.5861 C   0  0  1  0  0  0  0  0  0  0  0  0
    3.0510   -1.6677   -2.9406 O   0  0  0  0  0  0  0  0  0  0  0  0
    4.2860   -2.2279   -3.4369 C   0  0  0  0  0  0  0  0  0  0  0  0
    4.6520   -2.7818   -2.0629 C   0  0  2  0  0  0  0  0  0  0  0  0
    4.7009   -4.1838   -1.9788 O   0  0  0  0  0  0  0  0  0  0  0  0
    5.4794   -1.9772   -1.0444 C   0  0  2  0  0  0  0  0  0  0  0  0
    5.3234   -8.3209    0.5075 H   0  0  0  0  0  0  0  0  0  0  0  0
    5.2979   -7.6342    2.1286 H   0  0  0  0  0  0  0  0  0  0  0  0
    6.7703   -7.5699    1.1537 H   0  0  0  0  0  0  0  0  0  0  0  0
    5.5794   -6.1038   -0.5128 H   0  0  0  0  0  0  0  0  0  0  0  0
    4.1281   -6.1632    0.4309 H   0  0  0  0  0  0  0  0  0  0  0  0
    7.6447   -4.3881    2.0753 H   0  0  0  0  0  0  0  0  0  0  0  0
    7.7508   -5.5119    0.7546 H   0  0  0  0  0  0  0  0  0  0  0  0
    8.2623   -2.8639    0.2841 H   0  0  0  0  0  0  0  0  0  0  0  0
    7.3702   -3.8392   -0.8775 H   0  0  0  0  0  0  0  0  0  0  0  0
    6.8687   -1.4861    2.0282 H   0  0  0  0  0  0  0  0  0  0  0  0
    6.5731   -0.4701    0.6788 H   0  0  0  0  0  0  0  0  0  0  0  0
    4.8367   -0.1730    2.4893 H   0  0  0  0  0  0  0  0  0  0  0  0
    4.1446   -1.9523    3.7174 H   0  0  0  0  0  0  0  0  0  0  0  0
    2.2795   -1.7213    2.2610 H   0  0  0  0  0  0  0  0  0  0  0  0
    5.9642   -3.1321    2.8622 H   0  0  0  0  0  0  0  0  0  0  0  0
    4.1220   -3.6646    0.4518 H   0  0  0  0  0  0  0  0  0  0  0  0
    4.4382   -0.2051   -1.5493 H   0  0  0  0  0  0  0  0  0  0  0  0
    2.6643   -2.6580   -1.0133 H   0  0  0  0  0  0  0  0  0  0  0  0
    4.1125   -2.9932   -4.1933 H   0  0  0  0  0  0  0  0  0  0  0  0
    4.9700   -1.4537   -3.7882 H   0  0  0  0  0  0  0  0  0  0  0  0
    3.8634   -4.5186   -2.2609 H   0  0  0  0  0  0  0  0  0  0  0  0
    6.2596   -1.4556   -1.6005 H   0  0  0  0  0  0  0  0  0  0  0  0
  1  2  1  0
  1 24  1  0
  1 25  1  0
  1 26  1  0
  3  2  1  6
  2 27  1  0
  2 28  1  0
  3 12  1  0
  3 13  1  0
  3  4  1  0
  4  5  1  0
  4 29  1  0
  4 30  1  0
  6  5  1  6
  5 31  1  0
  5 32  1  0
  6 13  1  0
  6 23  1  0
  6  7  1  0
  7  8  1  0
  7 33  1  0
  7 34  1  0
  8  9  1  0
  8 14  1  0
  8 35  1  1
  9 10  1  0
  9 11  1  0
  9 36  1  1
 10 37  1  0
 11 12  1  0
 11 13  1  0
 11 38  1  1
 13 39  1  6
 14 15  1  0
 14 16  1  0
 14 17  1  0
 17 23  1  0
 17 18  1  0
 17 40  1  6
 18 21  1  0
 18 19  1  0
 18 41  1  1
 19 20  1  0
 20 21  1  0
 20 42  1  0
 20 43  1  0
 21 22  1  6
 21 23  1  0
 22 44  1  0
 23 45  1  6
M  END
>  <i_m_ct_stereo_status>  (274) 
1

>  <s_m_source_file>  (274) 
/var/tmp/pbs.5076255.sched01/tmpt85fkz7r/123fjz13bl5.sdf

>  <i_m_source_file_index>  (274) 
11

>  <i_lp_mmshare_version>  (274) 
48012

>  <i_f3d_flags>  (274) 
0

>  <s_epik_input>  (274) 
W0NIM11bQ0gyXVtDQF0oW0NAQEhdMVtDQF0yMzQpKFtDSDJdW0NIMl0yKU9bQ0BASF0xW0NASF0oW09IXSlbQ0hdKFtDSDJdMylDKEYpKEYpW0NAQEhdNVtDQEBIXTZbQ0BdKFtDSDJdTzYpKFtPSF0pW0NASF00NQ==

>  <s_epik_cmdline>  (274) 
J2VwaWtfcHl0aG9uJywgJy1waHQnLCAnMi4wJywgJy1waCcsICc3LjAnLCAnLXRuJywgJzgnLCAnLW1hJywgJzIwMCcsICctaW1hZScsICc8aW5maWxlLm1hZT4nLCAnLW9tYWUnLCAnPG91dGZpbGUubWFlPic=

>  <r_lp_tautomer_probability>  (274) 
1

>  <r_epik_Ionization_Penalty>  (274) 
1.64384e-07

>  <r_epik_Ionization_Penalty_Charging>  (274) 
0

>  <r_epik_Ionization_Penalty_Neutral>  (274) 
1.64384e-07

>  <r_epik_State_Penalty>  (274) 
-0

>  <r_epik_Charging_Adjusted_Penalty>  (274) 
0

>  <i_epik_Tot_Q>  (274) 
0

>  <i_epik_Tot_abs_Q>  (274) 
0

>  <s_lp_Force_Field>  (274) 
OPLS3e

>  <r_lp_Energy>  (274) 
89.8602

>  <b_lp_Chiralities_Consistent>  (274) 
1

>  <s_lp_Variant>  (274) 
97:0-1

>  <s_i_glide_gridfile>  (274) 
pfpi4k_grid

>  <i_i_glide_lignum>  (274) 
11

>  <i_i_glide_rotatable_bonds>  (274) 
3

>  <r_i_docking_score>  (274) 
-3.4157

>  <r_i_glide_ligand_efficiency>  (274) 
-0.148509

>  <r_i_glide_ligand_efficiency_sa>  (274) 
-0.422339

>  <r_i_glide_ligand_efficiency_ln>  (274) 
-0.825947

>  <r_i_glide_gscore>  (274) 
-3.4157

>  <r_i_glide_lipo>  (274) 
-1.17133

>  <r_i_glide_hbond>  (274) 
0

>  <r_i_glide_metal>  (274) 
-0

>  <r_i_glide_rewards>  (274) 
-1.17033

>  <r_i_glide_evdw>  (274) 
-16.9798

>  <r_i_glide_ecoul>  (274) 
-1.0454

>  <r_i_glide_erotb>  (274) 
0

>  <r_i_glide_esite>  (274) 
-0.068237

>  <r_i_glide_emodel>  (274) 
-21.3836

>  <r_i_glide_energy>  (274) 
-18.0252

>  <r_i_glide_einternal>  (274) 
1.03776

>  <r_i_glide_intrahb_reward>  (274) 
-0

>  <i_i_glide_confnum>  (274) 
1

>  <i_i_glide_posenum>  (274) 
38

>  <r_i_glide_eff_state_penalty>  (274) 
0

>  <ligand_id>  (274) 
97

>  <original_smiles>  (274) 
CCC12CCC34CC(C(O)C(O1)C23)C(F)(F)C1C2OCC2(O)C14

>  <smiles>  (274) 
[H]OC1([H])C2([H])OC3(C([H])([H])C([H])([H])[H])C([H])([H])C([H])([H])C4(C([H])([H])C1([H])C(F)(F)C1([H])C5([H])OC([H])([H])C5(O[H])C14[H])C23[H]

$$$$
97:0:1
     RDKit          3D

 45 50  0  0  1  0  0  0  0  0999 V2000
    1.3365   -4.4038    3.6908 C   0  0  0  0  0  0  0  0  0  0  0  0
    2.0153   -3.9998    2.3734 C   0  0  0  0  0  0  0  0  0  0  0  0
    3.5387   -4.0276    2.3942 C   0  0  2  0  0  0  0  0  0  0  0  0
    4.1137   -5.4625    2.3628 C   0  0  0  0  0  0  0  0  0  0  0  0
    4.6598   -5.6784    0.9047 C   0  0  0  0  0  0  0  0  0  0  0  0
    5.0834   -4.2935    0.3534 C   0  0  2  0  0  0  0  0  0  0  0  0
    6.6064   -3.9473    0.4991 C   0  0  0  0  0  0  0  0  0  0  0  0
    6.7506   -2.3810    0.5719 C   0  0  2  0  0  0  0  0  0  0  0  0
    6.0074   -1.7381    1.8343 C   0  0  1  0  0  0  0  0  0  0  0  0
    5.2304   -0.6021    1.5453 O   0  0  0  0  0  0  0  0  0  0  0  0
    5.1626   -2.8597    2.3864 C   0  0  1  0  0  0  0  0  0  0  0  0
    4.0544   -2.9582    3.2841 O   0  0  0  0  0  0  0  0  0  0  0  0
    4.3056   -3.3925    1.2797 C   0  0  2  0  0  0  0  0  0  0  0  0
    6.3737   -1.8769   -0.8584 C   0  0  0  0  0  0  0  0  0  0  0  0
    6.0680   -0.5916   -0.9044 F   0  0  0  0  0  0  0  0  0  0  0  0
    7.4965   -2.0335   -1.5608 F   0  0  0  0  0  0  0  0  0  0  0  0
    5.3254   -2.6732   -1.6633 C   0  0  2  0  0  0  0  0  0  0  0  0
    3.8884   -2.1628   -1.8450 C   0  0  1  0  0  0  0  0  0  0  0  0
    3.4769   -2.0988   -3.2353 O   0  0  0  0  0  0  0  0  0  0  0  0
    3.0830   -3.4893   -3.1783 C   0  0  0  0  0  0  0  0  0  0  0  0
    3.3763   -3.5870   -1.6746 C   0  0  2  0  0  0  0  0  0  0  0  0
    2.2607   -3.8156   -0.8582 O   0  0  0  0  0  0  0  0  0  0  0  0
    4.7657   -4.0088   -1.1306 C   0  0  2  0  0  0  0  0  0  0  0  0
    0.2501   -4.3598    3.5949 H   0  0  0  0  0  0  0  0  0  0  0  0
    1.6173   -3.7309    4.5027 H   0  0  0  0  0  0  0  0  0  0  0  0
    1.5936   -5.4239    3.9846 H   0  0  0  0  0  0  0  0  0  0  0  0
    1.6678   -4.6814    1.6011 H   0  0  0  0  0  0  0  0  0  0  0  0
    1.6723   -3.0042    2.0929 H   0  0  0  0  0  0  0  0  0  0  0  0
    4.9287   -5.5816    3.0765 H   0  0  0  0  0  0  0  0  0  0  0  0
    3.3758   -6.2255    2.6092 H   0  0  0  0  0  0  0  0  0  0  0  0
    5.4558   -6.4242    0.8405 H   0  0  0  0  0  0  0  0  0  0  0  0
    3.8377   -6.0405    0.2841 H   0  0  0  0  0  0  0  0  0  0  0  0
    7.0561   -4.4250    1.3686 H   0  0  0  0  0  0  0  0  0  0  0  0
    7.1787   -4.3561   -0.3338 H   0  0  0  0  0  0  0  0  0  0  0  0
    7.8081   -2.1569    0.7122 H   0  0  0  0  0  0  0  0  0  0  0  0
    6.7415   -1.3919    2.5480 H   0  0  0  0  0  0  0  0  0  0  0  0
    4.4926   -0.8614    1.0044 H   0  0  0  0  0  0  0  0  0  0  0  0
    5.8614   -3.5789    2.8108 H   0  0  0  0  0  0  0  0  0  0  0  0
    3.7369   -2.5861    0.8279 H   0  0  0  0  0  0  0  0  0  0  0  0
    5.7043   -2.8731   -2.6710 H   0  0  0  0  0  0  0  0  0  0  0  0
    3.4650   -1.4300   -1.1615 H   0  0  0  0  0  0  0  0  0  0  0  0
    2.0311   -3.6532   -3.4081 H   0  0  0  0  0  0  0  0  0  0  0  0
    3.7273   -4.1413   -3.7657 H   0  0  0  0  0  0  0  0  0  0  0  0
    1.9971   -4.6997   -1.0840 H   0  0  0  0  0  0  0  0  0  0  0  0
    5.1328   -4.8197   -1.7585 H   0  0  0  0  0  0  0  0  0  0  0  0
  1  2  1  0
  1 24  1  0
  1 25  1  0
  1 26  1  0
  3  2  1  6
  2 27  1  0
  2 28  1  0
  3 12  1  0
  3 13  1  0
  3  4  1  0
  4  5  1  0
  4 29  1  0
  4 30  1  0
  6  5  1  1
  5 31  1  0
  5 32  1  0
  6 13  1  0
  6 23  1  0
  6  7  1  0
  7  8  1  0
  7 33  1  0
  7 34  1  0
  8  9  1  0
  8 14  1  0
  8 35  1  1
  9 10  1  0
  9 11  1  0
  9 36  1  1
 10 37  1  0
 11 12  1  0
 11 13  1  0
 11 38  1  1
 13 39  1  6
 14 15  1  0
 14 16  1  0
 14 17  1  0
 17 23  1  0
 17 18  1  0
 17 40  1  6
 18 21  1  0
 18 19  1  0
 18 41  1  1
 19 20  1  0
 20 21  1  0
 20 42  1  0
 20 43  1  0
 21 22  1  1
 21 23  1  0
 22 44  1  0
 23 45  1  6
M  END
>  <i_m_ct_stereo_status>  (275) 
1

>  <s_m_source_file>  (275) 
/var/tmp/pbs.5076255.sched01/tmpt85fkz7r/123fjz13bl5.sdf

>  <i_m_source_file_index>  (275) 
11

>  <i_lp_mmshare_version>  (275) 
48012

>  <i_f3d_flags>  (275) 
0

>  <s_epik_input>  (275) 
W0NIM11bQ0gyXVtDQF0oW0NAQEhdMVtDQF0yMzQpKFtDSDJdW0NIMl0yKU9bQ0BASF0xW0NASF0oW09IXSlbQ0hdKFtDSDJdMylDKEYpKEYpW0NAQEhdNVtDQEBIXTZbQ0BdKFtDSDJdTzYpKFtPSF0pW0NASF00NQ==

>  <s_epik_cmdline>  (275) 
J2VwaWtfcHl0aG9uJywgJy1waHQnLCAnMi4wJywgJy1waCcsICc3LjAnLCAnLXRuJywgJzgnLCAnLW1hJywgJzIwMCcsICctaW1hZScsICc8aW5maWxlLm1hZT4nLCAnLW9tYWUnLCAnPG91dGZpbGUubWFlPic=

>  <r_lp_tautomer_probability>  (275) 
1

>  <r_epik_Ionization_Penalty>  (275) 
1.64384e-07

>  <r_epik_Ionization_Penalty_Charging>  (275) 
0

>  <r_epik_Ionization_Penalty_Neutral>  (275) 
1.64384e-07

>  <r_epik_State_Penalty>  (275) 
-0

>  <r_epik_Charging_Adjusted_Penalty>  (275) 
0

>  <i_epik_Tot_Q>  (275) 
0

>  <i_epik_Tot_abs_Q>  (275) 
0

>  <s_lp_Force_Field>  (275) 
OPLS3e

>  <r_lp_Energy>  (275) 
89.8602

>  <b_lp_Chiralities_Consistent>  (275) 
1

>  <s_lp_Variant>  (275) 
97:0-1

>  <s_i_glide_gridfile>  (275) 
pfpi4k_grid

>  <i_i_glide_lignum>  (275) 
11

>  <i_i_glide_rotatable_bonds>  (275) 
3

>  <r_i_docking_score>  (275) 
-3.36178

>  <r_i_glide_ligand_efficiency>  (275) 
-0.146164

>  <r_i_glide_ligand_efficiency_sa>  (275) 
-0.415672

>  <r_i_glide_ligand_efficiency_ln>  (275) 
-0.812909

>  <r_i_glide_gscore>  (275) 
-3.36178

>  <r_i_glide_lipo>  (275) 
-0.619729

>  <r_i_glide_hbond>  (275) 
0

>  <r_i_glide_metal>  (275) 
-0

>  <r_i_glide_rewards>  (275) 
-1.17033

>  <r_i_glide_evdw>  (275) 
-15.3723

>  <r_i_glide_ecoul>  (275) 
-4.37047

>  <r_i_glide_erotb>  (275) 
0

>  <r_i_glide_esite>  (275) 
-0.14753

>  <r_i_glide_emodel>  (275) 
-23.5842

>  <r_i_glide_energy>  (275) 
-19.7428

>  <r_i_glide_einternal>  (275) 
0.125307

>  <r_i_glide_intrahb_reward>  (275) 
-0

>  <i_i_glide_confnum>  (275) 
2

>  <i_i_glide_posenum>  (275) 
11

>  <r_i_glide_eff_state_penalty>  (275) 
0

>  <ligand_id>  (275) 
97

>  <original_smiles>  (275) 
CCC12CCC34CC(C(O)C(O1)C23)C(F)(F)C1C2OCC2(O)C14

>  <smiles>  (275) 
[H]OC1([H])C2([H])OC3(C([H])([H])C([H])([H])[H])C([H])([H])C([H])([H])C4(C([H])([H])C1([H])C(F)(F)C1([H])C5([H])OC([H])([H])C5(O[H])C14[H])C23[H]

$$$$
97:0:2
     RDKit          3D

 45 50  0  0  1  0  0  0  0  0999 V2000
    1.2667   -5.9598    3.4694 C   0  0  0  0  0  0  0  0  0  0  0  0
    1.8574   -5.0535    2.3816 C   0  0  0  0  0  0  0  0  0  0  0  0
    3.3727   -4.8643    2.4317 C   0  0  2  0  0  0  0  0  0  0  0  0
    4.1605   -6.1607    2.1308 C   0  0  0  0  0  0  0  0  0  0  0  0
    4.7270   -5.9940    0.6784 C   0  0  0  0  0  0  0  0  0  0  0  0
    4.9406   -4.4771    0.4273 C   0  0  2  0  0  0  0  0  0  0  0  0
    6.3946   -3.9452    0.6744 C   0  0  0  0  0  0  0  0  0  0  0  0
    6.3061   -2.4199    1.0681 C   0  0  2  0  0  0  0  0  0  0  0  0
    5.4963   -2.1737    2.4246 C   0  0  1  0  0  0  0  0  0  0  0  0
    4.5639   -1.1198    2.3349 O   0  0  0  0  0  0  0  0  0  0  0  0
    4.8101   -3.4909    2.7067 C   0  0  1  0  0  0  0  0  0  0  0  0
    3.7318   -3.9369    3.5352 O   0  0  0  0  0  0  0  0  0  0  0  0
    4.0378   -3.9066    1.4918 C   0  0  2  0  0  0  0  0  0  0  0  0
    5.8602   -1.6837   -0.2439 C   0  0  0  0  0  0  0  0  0  0  0  0
    5.4249   -0.4361   -0.0670 F   0  0  0  0  0  0  0  0  0  0  0  0
    7.0018   -1.5783   -0.9261 F   0  0  0  0  0  0  0  0  0  0  0  0
    4.9405   -2.4642   -1.2208 C   0  0  2  0  0  0  0  0  0  0  0  0
    3.4449   -2.1624   -1.3522 C   0  0  1  0  0  0  0  0  0  0  0  0
    3.0294   -1.9121   -2.7196 O   0  0  0  0  0  0  0  0  0  0  0  0
    2.8400   -3.3321   -2.9288 C   0  0  0  0  0  0  0  0  0  0  0  0
    3.1558   -3.6555   -1.4642 C   0  0  2  0  0  0  0  0  0  0  0  0
    2.1019   -4.2073   -0.7304 O   0  0  0  0  0  0  0  0  0  0  0  0
    4.5931   -3.9498   -0.9781 C   0  0  2  0  0  0  0  0  0  0  0  0
    0.1867   -6.0446    3.3437 H   0  0  0  0  0  0  0  0  0  0  0  0
    1.4580   -5.5653    4.4676 H   0  0  0  0  0  0  0  0  0  0  0  0
    1.6643   -6.9747    3.4189 H   0  0  0  0  0  0  0  0  0  0  0  0
    1.5784   -5.4864    1.4253 H   0  0  0  0  0  0  0  0  0  0  0  0
    1.3811   -4.0775    2.4451 H   0  0  0  0  0  0  0  0  0  0  0  0
    4.9834   -6.2965    2.8326 H   0  0  0  0  0  0  0  0  0  0  0  0
    3.5535   -7.0603    2.1946 H   0  0  0  0  0  0  0  0  0  0  0  0
    5.6206   -6.5912    0.4941 H   0  0  0  0  0  0  0  0  0  0  0  0
    3.9630   -6.3405   -0.0200 H   0  0  0  0  0  0  0  0  0  0  0  0
    6.9095   -4.5197    1.4421 H   0  0  0  0  0  0  0  0  0  0  0  0
    7.0099   -4.0984   -0.2138 H   0  0  0  0  0  0  0  0  0  0  0  0
    7.3185   -2.0823    1.2767 H   0  0  0  0  0  0  0  0  0  0  0  0
    6.1910   -1.9232    3.2231 H   0  0  0  0  0  0  0  0  0  0  0  0
    3.9084   -1.3411    1.6847 H   0  0  0  0  0  0  0  0  0  0  0  0
    5.6099   -4.1703    2.9970 H   0  0  0  0  0  0  0  0  0  0  0  0
    3.3558   -3.1154    1.1967 H   0  0  0  0  0  0  0  0  0  0  0  0
    5.3411   -2.4010   -2.2359 H   0  0  0  0  0  0  0  0  0  0  0  0
    2.9280   -1.6337   -0.5540 H   0  0  0  0  0  0  0  0  0  0  0  0
    1.8171   -3.5795   -3.2141 H   0  0  0  0  0  0  0  0  0  0  0  0
    3.5627   -3.7605   -3.6165 H   0  0  0  0  0  0  0  0  0  0  0  0
    2.0065   -5.0780   -1.1027 H   0  0  0  0  0  0  0  0  0  0  0  0
    5.0730   -4.5584   -1.7384 H   0  0  0  0  0  0  0  0  0  0  0  0
  1  2  1  0
  1 24  1  0
  1 25  1  0
  1 26  1  0
  3  2  1  6
  2 27  1  0
  2 28  1  0
  3 12  1  0
  3 13  1  0
  3  4  1  0
  4  5  1  0
  4 29  1  0
  4 30  1  0
  6  5  1  6
  5 31  1  0
  5 32  1  0
  6 13  1  0
  6 23  1  0
  6  7  1  0
  7  8  1  0
  7 33  1  0
  7 34  1  0
  8  9  1  0
  8 14  1  0
  8 35  1  1
  9 10  1  0
  9 11  1  0
  9 36  1  1
 10 37  1  0
 11 12  1  0
 11 13  1  0
 11 38  1  1
 13 39  1  6
 14 15  1  0
 14 16  1  0
 14 17  1  0
 17 23  1  0
 17 18  1  0
 17 40  1  6
 18 21  1  0
 18 19  1  0
 18 41  1  1
 19 20  1  0
 20 21  1  0
 20 42  1  0
 20 43  1  0
 21 22  1  1
 21 23  1  0
 22 44  1  0
 23 45  1  6
M  END
>  <i_m_ct_stereo_status>  (276) 
1

>  <s_m_source_file>  (276) 
/var/tmp/pbs.5076255.sched01/tmpt85fkz7r/123fjz13bl5.sdf

>  <i_m_source_file_index>  (276) 
11

>  <i_lp_mmshare_version>  (276) 
48012

>  <i_f3d_flags>  (276) 
0

>  <s_epik_input>  (276) 
W0NIM11bQ0gyXVtDQF0oW0NAQEhdMVtDQF0yMzQpKFtDSDJdW0NIMl0yKU9bQ0BASF0xW0NASF0oW09IXSlbQ0hdKFtDSDJdMylDKEYpKEYpW0NAQEhdNVtDQEBIXTZbQ0BdKFtDSDJdTzYpKFtPSF0pW0NASF00NQ==

>  <s_epik_cmdline>  (276) 
J2VwaWtfcHl0aG9uJywgJy1waHQnLCAnMi4wJywgJy1waCcsICc3LjAnLCAnLXRuJywgJzgnLCAnLW1hJywgJzIwMCcsICctaW1hZScsICc8aW5maWxlLm1hZT4nLCAnLW9tYWUnLCAnPG91dGZpbGUubWFlPic=

>  <r_lp_tautomer_probability>  (276) 
1

>  <r_epik_Ionization_Penalty>  (276) 
1.64384e-07

>  <r_epik_Ionization_Penalty_Charging>  (276) 
0

>  <r_epik_Ionization_Penalty_Neutral>  (276) 
1.64384e-07

>  <r_epik_State_Penalty>  (276) 
-0

>  <r_epik_Charging_Adjusted_Penalty>  (276) 
0

>  <i_epik_Tot_Q>  (276) 
0

>  <i_epik_Tot_abs_Q>  (276) 
0

>  <s_lp_Force_Field>  (276) 
OPLS3e

>  <r_lp_Energy>  (276) 
89.8602

>  <b_lp_Chiralities_Consistent>  (276) 
1

>  <s_lp_Variant>  (276) 
97:0-1

>  <s_i_glide_gridfile>  (276) 
pfpi4k_grid

>  <i_i_glide_lignum>  (276) 
11

>  <i_i_glide_rotatable_bonds>  (276) 
3

>  <r_i_docking_score>  (276) 
-3.23352

>  <r_i_glide_ligand_efficiency>  (276) 
-0.140588

>  <r_i_glide_ligand_efficiency_sa>  (276) 
-0.399813

>  <r_i_glide_ligand_efficiency_ln>  (276) 
-0.781894

>  <r_i_glide_gscore>  (276) 
-3.23352

>  <r_i_glide_lipo>  (276) 
-0.572271

>  <r_i_glide_hbond>  (276) 
0

>  <r_i_glide_metal>  (276) 
-0

>  <r_i_glide_rewards>  (276) 
-1.1758

>  <r_i_glide_evdw>  (276) 
-15.6263

>  <r_i_glide_ecoul>  (276) 
-4.08361

>  <r_i_glide_erotb>  (276) 
0

>  <r_i_glide_esite>  (276) 
-0.0915936

>  <r_i_glide_emodel>  (276) 
-23.4008

>  <r_i_glide_energy>  (276) 
-19.7099

>  <r_i_glide_einternal>  (276) 
0.0602426

>  <r_i_glide_intrahb_reward>  (276) 
-0

>  <i_i_glide_confnum>  (276) 
1

>  <i_i_glide_posenum>  (276) 
22

>  <r_i_glide_eff_state_penalty>  (276) 
0

>  <ligand_id>  (276) 
97

>  <original_smiles>  (276) 
CCC12CCC34CC(C(O)C(O1)C23)C(F)(F)C1C2OCC2(O)C14

>  <smiles>  (276) 
[H]OC1([H])C2([H])OC3(C([H])([H])C([H])([H])[H])C([H])([H])C([H])([H])C4(C([H])([H])C1([H])C(F)(F)C1([H])C5([H])OC([H])([H])C5(O[H])C14[H])C23[H]

$$$$
98:0:0
     RDKit          3D

 79 84  0  0  1  0  0  0  0  0999 V2000
    3.2107   -3.4612   -0.7145 C   0  0  0  0  0  0  0  0  0  0  0  0
    3.5649   -3.3470    0.7966 C   0  0  2  0  0  0  0  0  0  0  0  0
    4.7743   -2.4223    0.9517 C   0  0  0  0  0  0  0  0  0  0  0  0
    5.9865   -3.0777    0.3080 C   0  0  0  0  0  0  0  0  0  0  0  0
    6.3616   -4.3390    1.0745 C   0  0  0  0  0  0  0  0  0  0  0  0
    5.2267   -5.3021    1.5909 C   0  0  1  0  0  0  0  0  0  0  0  0
    5.7312   -6.0158    2.9293 C   0  0  1  0  0  0  0  0  0  0  0  0
    7.2323   -6.4074    2.8887 C   0  0  0  0  0  0  0  0  0  0  0  0
    5.4730   -4.8894    3.9751 C   0  0  0  0  0  0  0  0  0  0  0  0
    3.9663   -4.8509    4.3853 C   0  0  2  0  0  0  0  0  0  0  0  0
    3.9037   -3.7828    5.5095 C   0  0  0  0  0  0  0  0  0  0  0  0
    3.4646   -6.2365    5.0044 C   0  0  2  0  0  0  0  0  0  0  0  0
    4.6510   -7.1688    5.0176 C   0  0  0  0  0  0  0  0  0  0  0  0
    4.9587   -7.2785    3.5061 C   0  0  2  0  0  0  0  0  0  0  0  0
    4.2688   -8.5622    2.9694 C   0  0  1  0  0  0  0  0  0  0  0  0
    4.4439   -8.7462    1.4327 C   0  0  0  0  0  0  0  0  0  0  0  0
    4.9433   -9.8483    3.5494 C   0  0  0  0  0  0  0  0  0  0  0  0
    4.1326  -11.1488    3.3582 C   0  0  0  0  0  0  0  0  0  0  0  0
    2.6176  -10.9294    3.2097 C   0  0  0  0  0  0  0  0  0  0  0  0
    2.0767   -9.7378    4.0239 C   0  0  0  0  0  0  0  0  0  0  0  0
    0.5456   -9.7059    3.8141 C   0  0  0  0  0  0  0  0  0  0  0  0
    2.3273  -10.0265    5.5289 C   0  0  0  0  0  0  0  0  0  0  0  0
    2.7210   -8.4105    3.4632 C   0  0  1  0  0  0  0  0  0  0  0  0
    2.2990   -7.0680    4.3092 C   0  0  2  0  0  0  0  0  0  0  0  0
    1.2289   -6.1632    3.6141 C   0  0  1  0  0  0  0  0  0  0  0  0
   -0.0130   -6.2160    4.2998 O   0  0  0  0  0  0  0  0  0  0  0  0
    1.6287   -4.6763    3.3458 C   0  0  1  0  0  0  0  0  0  0  0  0
    1.0870   -3.8378    4.3506 O   0  0  0  0  0  0  0  0  0  0  0  0
    3.1509   -4.3900    3.1266 C   0  0  2  0  0  0  0  0  0  0  0  0
    3.7236   -4.6870    1.6360 C   0  0  1  0  0  0  0  0  0  0  0  0
    2.8023   -5.6933    0.8957 C   0  0  0  0  0  0  0  0  0  0  0  0
    3.8664   -4.1523   -1.2487 H   0  0  0  0  0  0  0  0  0  0  0  0
    3.2884   -2.4891   -1.2038 H   0  0  0  0  0  0  0  0  0  0  0  0
    2.1850   -3.7941   -0.8772 H   0  0  0  0  0  0  0  0  0  0  0  0
    2.7101   -2.8010    1.1998 H   0  0  0  0  0  0  0  0  0  0  0  0
    4.5760   -1.4550    0.4894 H   0  0  0  0  0  0  0  0  0  0  0  0
    4.9762   -2.2248    2.0061 H   0  0  0  0  0  0  0  0  0  0  0  0
    5.8259   -3.3058   -0.7437 H   0  0  0  0  0  0  0  0  0  0  0  0
    6.8280   -2.3855    0.3286 H   0  0  0  0  0  0  0  0  0  0  0  0
    7.0662   -4.9122    0.4713 H   0  0  0  0  0  0  0  0  0  0  0  0
    6.9552   -3.9583    1.8991 H   0  0  0  0  0  0  0  0  0  0  0  0
    5.2300   -6.0788    0.8292 H   0  0  0  0  0  0  0  0  0  0  0  0
    7.5160   -6.9832    3.7694 H   0  0  0  0  0  0  0  0  0  0  0  0
    7.9075   -5.5526    2.8863 H   0  0  0  0  0  0  0  0  0  0  0  0
    7.4641   -7.0108    2.0107 H   0  0  0  0  0  0  0  0  0  0  0  0
    6.1158   -5.0223    4.8442 H   0  0  0  0  0  0  0  0  0  0  0  0
    5.7674   -3.9008    3.6242 H   0  0  0  0  0  0  0  0  0  0  0  0
    2.9195   -3.7045    5.9635 H   0  0  0  0  0  0  0  0  0  0  0  0
    4.1767   -2.7913    5.1436 H   0  0  0  0  0  0  0  0  0  0  0  0
    4.5880   -4.0231    6.3224 H   0  0  0  0  0  0  0  0  0  0  0  0
    3.1622   -6.0621    6.0388 H   0  0  0  0  0  0  0  0  0  0  0  0
    5.4893   -6.8307    5.6228 H   0  0  0  0  0  0  0  0  0  0  0  0
    4.3550   -8.0891    5.5051 H   0  0  0  0  0  0  0  0  0  0  0  0
    4.1829   -6.8108    2.9449 H   0  0  0  0  0  0  0  0  0  0  0  0
    3.9967   -9.6751    1.0842 H   0  0  0  0  0  0  0  0  0  0  0  0
    5.4998   -8.7882    1.1642 H   0  0  0  0  0  0  0  0  0  0  0  0
    4.0122   -7.9745    0.8171 H   0  0  0  0  0  0  0  0  0  0  0  0
    5.9298   -9.9828    3.1047 H   0  0  0  0  0  0  0  0  0  0  0  0
    5.1746   -9.7565    4.6055 H   0  0  0  0  0  0  0  0  0  0  0  0
    4.4944  -11.6840    2.4788 H   0  0  0  0  0  0  0  0  0  0  0  0
    4.3233  -11.8100    4.2033 H   0  0  0  0  0  0  0  0  0  0  0  0
    2.3804  -10.7633    2.1591 H   0  0  0  0  0  0  0  0  0  0  0  0
    2.0968  -11.8514    3.4744 H   0  0  0  0  0  0  0  0  0  0  0  0
    0.0697   -8.9355    4.4188 H   0  0  0  0  0  0  0  0  0  0  0  0
    0.0930  -10.6577    4.0990 H   0  0  0  0  0  0  0  0  0  0  0  0
    0.2837   -9.5241    2.7700 H   0  0  0  0  0  0  0  0  0  0  0  0
    1.8608   -9.3032    6.1929 H   0  0  0  0  0  0  0  0  0  0  0  0
    3.3799  -10.0763    5.7909 H   0  0  0  0  0  0  0  0  0  0  0  0
    1.9031  -10.9963    5.7930 H   0  0  0  0  0  0  0  0  0  0  0  0
    2.2005   -8.3252    2.5129 H   0  0  0  0  0  0  0  0  0  0  0  0
    1.7786   -7.4613    5.1786 H   0  0  0  0  0  0  0  0  0  0  0  0
    0.9580   -6.6067    2.6583 H   0  0  0  0  0  0  0  0  0  0  0  0
    0.1565   -6.0273    5.2129 H   0  0  0  0  0  0  0  0  0  0  0  0
    1.0771   -4.3306    2.4770 H   0  0  0  0  0  0  0  0  0  0  0  0
    0.1490   -3.9074    4.2908 H   0  0  0  0  0  0  0  0  0  0  0  0
    3.2255   -3.3052    3.1972 H   0  0  0  0  0  0  0  0  0  0  0  0
    2.6570   -6.5948    1.4530 H   0  0  0  0  0  0  0  0  0  0  0  0
    3.2127   -5.9972   -0.0677 H   0  0  0  0  0  0  0  0  0  0  0  0
    1.8081   -5.2998    0.6996 H   0  0  0  0  0  0  0  0  0  0  0  0
  1  2  1  0
  1 32  1  0
  1 33  1  0
  1 34  1  0
  2 30  1  0
  2  3  1  0
  2 35  1  1
  3  4  1  0
  3 36  1  0
  3 37  1  0
  4  5  1  0
  4 38  1  0
  4 39  1  0
  5  6  1  0
  5 40  1  0
  5 41  1  0
  6 30  1  0
  6  7  1  0
  6 42  1  6
  7 14  1  0
  7  8  1  6
  7  9  1  0
  8 43  1  0
  8 44  1  0
  8 45  1  0
  9 10  1  0
  9 46  1  0
  9 47  1  0
 10 29  1  0
 10 11  1  1
 10 12  1  0
 11 48  1  0
 11 49  1  0
 11 50  1  0
 12 24  1  0
 12 13  1  0
 12 51  1  1
 13 14  1  0
 13 52  1  0
 13 53  1  0
 14 15  1  0
 14 54  1  1
 15 23  1  0
 15 16  1  6
 15 17  1  0
 16 55  1  0
 16 56  1  0
 16 57  1  0
 17 18  1  0
 17 58  1  0
 17 59  1  0
 18 19  1  0
 18 60  1  0
 18 61  1  0
 19 20  1  0
 19 62  1  0
 19 63  1  0
 20 21  1  0
 20 22  1  0
 20 23  1  0
 21 64  1  0
 21 65  1  0
 21 66  1  0
 22 67  1  0
 22 68  1  0
 22 69  1  0
 23 24  1  0
 23 70  1  6
 24 25  1  0
 24 71  1  1
 25 26  1  0
 25 27  1  0
 25 72  1  6
 26 73  1  0
 27 28  1  0
 27 29  1  0
 27 74  1  6
 28 75  1  0
 29 30  1  0
 29 76  1  1
 30 31  1  6
 31 77  1  0
 31 78  1  0
 31 79  1  0
M  END
>  <i_m_ct_stereo_status>  (277) 
1

>  <s_m_source_file>  (277) 
/var/tmp/pbs.5076255.sched01/tmpt85fkz7r/123fjz13bl5.sdf

>  <i_m_source_file_index>  (277) 
12

>  <i_lp_mmshare_version>  (277) 
48012

>  <i_f3d_flags>  (277) 
0

>  <s_epik_input>  (277) 
W0NIMl0xW0NIMl1bQ0gyXVtDQEBIXShbQ0gzXSlbQ0BAXShbQ0gzXSkoW0NAQEhdMVtDQEBdMjNbQ0gzXSlbQ0BASF00W0NAQF0oW0NIMl0yKShbQ0gzXSlbQ0BIXTVbQ0BASF0oW0NAQEhdKFtPSF0pW0NASF00W09IXSlbQ0BIXTZbQ0BAXShbQ0gzXSkoW0NASF0zW0NIMl01KVtDSDJdW0NIMl1bQ0gyXUM2KFtDSDNdKVtDSDNd

>  <s_epik_cmdline>  (277) 
J2VwaWtfcHl0aG9uJywgJy1waHQnLCAnMi4wJywgJy1waCcsICc3LjAnLCAnLXRuJywgJzgnLCAnLW1hJywgJzIwMCcsICctaW1hZScsICc8aW5maWxlLm1hZT4nLCAnLW9tYWUnLCAnPG91dGZpbGUubWFlPic=

>  <r_lp_tautomer_probability>  (277) 
1

>  <r_epik_Ionization_Penalty>  (277) 
1.82009e-06

>  <r_epik_Ionization_Penalty_Charging>  (277) 
0

>  <r_epik_Ionization_Penalty_Neutral>  (277) 
1.82009e-06

>  <r_epik_State_Penalty>  (277) 
-0

>  <r_epik_Charging_Adjusted_Penalty>  (277) 
0

>  <i_epik_Tot_Q>  (277) 
0

>  <i_epik_Tot_abs_Q>  (277) 
0

>  <s_lp_Force_Field>  (277) 
OPLS3e

>  <r_lp_Energy>  (277) 
213.547

>  <b_lp_Chiralities_Consistent>  (277) 
1

>  <s_lp_Variant>  (277) 
98:0-1

>  <s_i_glide_gridfile>  (277) 
pfpi4k_grid

>  <i_i_glide_lignum>  (277) 
12

>  <i_i_glide_rotatable_bonds>  (277) 
2

>  <r_i_docking_score>  (277) 
-2.45665

>  <r_i_glide_ligand_efficiency>  (277) 
-0.0792468

>  <r_i_glide_ligand_efficiency_sa>  (277) 
-0.248944

>  <r_i_glide_ligand_efficiency_ln>  (277) 
-0.55405

>  <r_i_glide_gscore>  (277) 
-2.45665

>  <r_i_glide_lipo>  (277) 
-0.300042

>  <r_i_glide_hbond>  (277) 
0

>  <r_i_glide_metal>  (277) 
-0

>  <r_i_glide_rewards>  (277) 
-0.486203

>  <r_i_glide_evdw>  (277) 
-27.323

>  <r_i_glide_ecoul>  (277) 
-2.02837

>  <r_i_glide_erotb>  (277) 
0

>  <r_i_glide_esite>  (277) 
0

>  <r_i_glide_emodel>  (277) 
-33.433

>  <r_i_glide_energy>  (277) 
-29.3514

>  <r_i_glide_einternal>  (277) 
0.458834

>  <r_i_glide_intrahb_reward>  (277) 
-0

>  <i_i_glide_confnum>  (277) 
1

>  <i_i_glide_posenum>  (277) 
38

>  <r_i_glide_eff_state_penalty>  (277) 
0

>  <ligand_id>  (277) 
98

>  <original_smiles>  (277) 
CC1CCCC2C3(C)CC4(C)C5CC3C3(C)CCCC(C)(C)C3C5C(O)C(O)C4C12C

>  <smiles>  (277) 
[H]OC1([H])C([H])(O[H])C2([H])C3(C([H])([H])[H])C([H])([H])C(C([H])([H])[H])(C4([H])C([H])([H])C3([H])C1([H])C1([H])C(C([H])([H])[H])(C([H])([H])[H])C([H])([H])C([H])([H])C([H])([H])C14C([H])([H])[H])C1([H])C([H])([H])C([H])([H])C([H])([H])C([H])(C([H])([H])[H])C12C([H])([H])[H]

$$$$
98:0:1
     RDKit          3D

 79 84  0  0  1  0  0  0  0  0999 V2000
    5.7429   -4.6479   -0.1430 C   0  0  0  0  0  0  0  0  0  0  0  0
    5.9488   -4.8443    1.3841 C   0  0  2  0  0  0  0  0  0  0  0  0
    7.4397   -5.0320    1.6725 C   0  0  0  0  0  0  0  0  0  0  0  0
    7.9194   -6.3342    1.0622 C   0  0  0  0  0  0  0  0  0  0  0  0
    7.2405   -7.5098    1.7462 C   0  0  0  0  0  0  0  0  0  0  0  0
    5.7118   -7.4157    2.1187 C   0  0  1  0  0  0  0  0  0  0  0  0
    5.4502   -8.2947    3.4247 C   0  0  1  0  0  0  0  0  0  0  0  0
    6.2489   -9.6235    3.4413 C   0  0  0  0  0  0  0  0  0  0  0  0
    5.9514   -7.3223    4.5360 C   0  0  0  0  0  0  0  0  0  0  0  0
    4.8617   -6.2489    4.8587 C   0  0  2  0  0  0  0  0  0  0  0  0
    5.4517   -5.4570    6.0560 C   0  0  0  0  0  0  0  0  0  0  0  0
    3.4863   -6.9015    5.3472 C   0  0  2  0  0  0  0  0  0  0  0  0
    3.6859   -8.3965    5.3568 C   0  0  0  0  0  0  0  0  0  0  0  0
    3.9698   -8.6692    3.8645 C   0  0  2  0  0  0  0  0  0  0  0  0
    2.6377   -9.1026    3.1984 C   0  0  1  0  0  0  0  0  0  0  0  0
    2.7795   -9.3331    1.6721 C   0  0  0  0  0  0  0  0  0  0  0  0
    2.1704  -10.5040    3.7117 C   0  0  0  0  0  0  0  0  0  0  0  0
    0.7060  -10.8611    3.3686 C   0  0  0  0  0  0  0  0  0  0  0  0
   -0.2014   -9.6395    3.1360 C   0  0  0  0  0  0  0  0  0  0  0  0
    0.1567   -8.4289    4.0247 C   0  0  0  0  0  0  0  0  0  0  0  0
   -0.8997   -7.3392    3.7393 C   0  0  0  0  0  0  0  0  0  0  0  0
    0.0052   -8.8248    5.5192 C   0  0  0  0  0  0  0  0  0  0  0  0
    1.5900   -7.9216    3.6078 C   0  0  1  0  0  0  0  0  0  0  0  0
    2.1437   -6.6784    4.5236 C   0  0  2  0  0  0  0  0  0  0  0  0
    2.0642   -5.2785    3.8332 C   0  0  1  0  0  0  0  0  0  0  0  0
    1.0718   -4.4858    4.4593 O   0  0  0  0  0  0  0  0  0  0  0  0
    3.4019   -4.4799    3.6891 C   0  0  1  0  0  0  0  0  0  0  0  0
    3.5093   -3.5312    4.7353 O   0  0  0  0  0  0  0  0  0  0  0  0
    4.7119   -5.3359    3.5901 C   0  0  2  0  0  0  0  0  0  0  0  0
    5.0565   -5.9290    2.1194 C   0  0  1  0  0  0  0  0  0  0  0  0
    3.7674   -5.9970    1.2545 C   0  0  0  0  0  0  0  0  0  0  0  0
    5.7712   -5.5946   -0.6839 H   0  0  0  0  0  0  0  0  0  0  0  0
    6.5230   -4.0086   -0.5564 H   0  0  0  0  0  0  0  0  0  0  0  0
    4.7952   -4.1629   -0.3827 H   0  0  0  0  0  0  0  0  0  0  0  0
    5.6807   -3.8645    1.7837 H   0  0  0  0  0  0  0  0  0  0  0  0
    8.0125   -4.1965    1.2719 H   0  0  0  0  0  0  0  0  0  0  0  0
    7.6222   -5.0522    2.7474 H   0  0  0  0  0  0  0  0  0  0  0  0
    7.7510   -6.3703   -0.0076 H   0  0  0  0  0  0  0  0  0  0  0  0
    8.9995   -6.4212    1.1876 H   0  0  0  0  0  0  0  0  0  0  0  0
    7.4043   -8.4007    1.1413 H   0  0  0  0  0  0  0  0  0  0  0  0
    7.8523   -7.6664    2.6317 H   0  0  0  0  0  0  0  0  0  0  0  0
    5.2491   -7.9652    1.3016 H   0  0  0  0  0  0  0  0  0  0  0  0
    5.9677  -10.2443    4.2917 H   0  0  0  0  0  0  0  0  0  0  0  0
    7.3242   -9.4848    3.5418 H   0  0  0  0  0  0  0  0  0  0  0  0
    6.0735  -10.2037    2.5348 H   0  0  0  0  0  0  0  0  0  0  0  0
    6.2350   -7.8778    5.4272 H   0  0  0  0  0  0  0  0  0  0  0  0
    6.8815   -6.8153    4.2789 H   0  0  0  0  0  0  0  0  0  0  0  0
    4.7588   -4.7257    6.4622 H   0  0  0  0  0  0  0  0  0  0  0  0
    6.3694   -4.9329    5.7845 H   0  0  0  0  0  0  0  0  0  0  0  0
    5.6965   -6.1222    6.8833 H   0  0  0  0  0  0  0  0  0  0  0  0
    3.2950   -6.5794    6.3715 H   0  0  0  0  0  0  0  0  0  0  0  0
    4.4632   -8.7504    6.0308 H   0  0  0  0  0  0  0  0  0  0  0  0
    2.7913   -8.8587    5.7537 H   0  0  0  0  0  0  0  0  0  0  0  0
    3.7929   -7.7848    3.2931 H   0  0  0  0  0  0  0  0  0  0  0  0
    1.8487   -9.6819    1.2339 H   0  0  0  0  0  0  0  0  0  0  0  0
    3.5301  -10.0959    1.4663 H   0  0  0  0  0  0  0  0  0  0  0  0
    3.0660   -8.4717    1.0916 H   0  0  0  0  0  0  0  0  0  0  0  0
    2.8219  -11.2813    3.3131 H   0  0  0  0  0  0  0  0  0  0  0  0
    2.3001  -10.6216    4.7829 H   0  0  0  0  0  0  0  0  0  0  0  0
    0.6737  -11.4937    2.4833 H   0  0  0  0  0  0  0  0  0  0  0  0
    0.3011  -11.4718    4.1777 H   0  0  0  0  0  0  0  0  0  0  0  0
   -0.1543   -9.3407    2.0891 H   0  0  0  0  0  0  0  0  0  0  0  0
   -1.2419   -9.9329    3.2780 H   0  0  0  0  0  0  0  0  0  0  0  0
   -0.7558   -6.4638    4.3718 H   0  0  0  0  0  0  0  0  0  0  0  0
   -1.9068   -7.7140    3.9320 H   0  0  0  0  0  0  0  0  0  0  0  0
   -0.8623   -7.0199    2.6967 H   0  0  0  0  0  0  0  0  0  0  0  0
    0.1227   -7.9919    6.2071 H   0  0  0  0  0  0  0  0  0  0  0  0
    0.6872   -9.6071    5.8347 H   0  0  0  0  0  0  0  0  0  0  0  0
   -0.9951   -9.2104    5.7029 H   0  0  0  0  0  0  0  0  0  0  0  0
    1.3692   -7.4832    2.6382 H   0  0  0  0  0  0  0  0  0  0  0  0
    1.4235   -6.6115    5.3350 H   0  0  0  0  0  0  0  0  0  0  0  0
    1.6451   -5.3971    2.8362 H   0  0  0  0  0  0  0  0  0  0  0  0
    1.4369   -4.1929    5.2882 H   0  0  0  0  0  0  0  0  0  0  0  0
    3.3226   -3.8395    2.8117 H   0  0  0  0  0  0  0  0  0  0  0  0
    4.2396   -2.9614    4.5406 H   0  0  0  0  0  0  0  0  0  0  0  0
    5.5196   -4.6208    3.7467 H   0  0  0  0  0  0  0  0  0  0  0  0
    2.9881   -6.5470    1.7368 H   0  0  0  0  0  0  0  0  0  0  0  0
    3.9356   -6.4861    0.2941 H   0  0  0  0  0  0  0  0  0  0  0  0
    3.3441   -5.0179    1.0334 H   0  0  0  0  0  0  0  0  0  0  0  0
  1  2  1  0
  1 32  1  0
  1 33  1  0
  1 34  1  0
  2 30  1  0
  2  3  1  0
  2 35  1  1
  3  4  1  0
  3 36  1  0
  3 37  1  0
  4  5  1  0
  4 38  1  0
  4 39  1  0
  5  6  1  0
  5 40  1  0
  5 41  1  0
  6 30  1  0
  6  7  1  0
  6 42  1  6
  7 14  1  0
  7  8  1  6
  7  9  1  0
  8 43  1  0
  8 44  1  0
  8 45  1  0
  9 10  1  0
  9 46  1  0
  9 47  1  0
 10 29  1  0
 10 11  1  1
 10 12  1  0
 11 48  1  0
 11 49  1  0
 11 50  1  0
 12 24  1  0
 12 13  1  0
 12 51  1  1
 13 14  1  0
 13 52  1  0
 13 53  1  0
 14 15  1  0
 14 54  1  1
 15 23  1  0
 15 16  1  6
 15 17  1  0
 16 55  1  0
 16 56  1  0
 16 57  1  0
 17 18  1  0
 17 58  1  0
 17 59  1  0
 18 19  1  0
 18 60  1  0
 18 61  1  0
 19 20  1  0
 19 62  1  0
 19 63  1  0
 20 21  1  0
 20 22  1  0
 20 23  1  0
 21 64  1  0
 21 65  1  0
 21 66  1  0
 22 67  1  0
 22 68  1  0
 22 69  1  0
 23 24  1  0
 23 70  1  6
 24 25  1  0
 24 71  1  1
 25 26  1  0
 25 27  1  0
 25 72  1  6
 26 73  1  0
 27 28  1  0
 27 29  1  0
 27 74  1  6
 28 75  1  0
 29 30  1  0
 29 76  1  1
 30 31  1  6
 31 77  1  0
 31 78  1  0
 31 79  1  0
M  END
>  <i_m_ct_stereo_status>  (278) 
1

>  <s_m_source_file>  (278) 
/var/tmp/pbs.5076255.sched01/tmpt85fkz7r/123fjz13bl5.sdf

>  <i_m_source_file_index>  (278) 
12

>  <i_lp_mmshare_version>  (278) 
48012

>  <i_f3d_flags>  (278) 
0

>  <s_epik_input>  (278) 
W0NIMl0xW0NIMl1bQ0gyXVtDQEBIXShbQ0gzXSlbQ0BAXShbQ0gzXSkoW0NAQEhdMVtDQEBdMjNbQ0gzXSlbQ0BASF00W0NAQF0oW0NIMl0yKShbQ0gzXSlbQ0BIXTVbQ0BASF0oW0NAQEhdKFtPSF0pW0NASF00W09IXSlbQ0BIXTZbQ0BAXShbQ0gzXSkoW0NASF0zW0NIMl01KVtDSDJdW0NIMl1bQ0gyXUM2KFtDSDNdKVtDSDNd

>  <s_epik_cmdline>  (278) 
J2VwaWtfcHl0aG9uJywgJy1waHQnLCAnMi4wJywgJy1waCcsICc3LjAnLCAnLXRuJywgJzgnLCAnLW1hJywgJzIwMCcsICctaW1hZScsICc8aW5maWxlLm1hZT4nLCAnLW9tYWUnLCAnPG91dGZpbGUubWFlPic=

>  <r_lp_tautomer_probability>  (278) 
1

>  <r_epik_Ionization_Penalty>  (278) 
1.82009e-06

>  <r_epik_Ionization_Penalty_Charging>  (278) 
0

>  <r_epik_Ionization_Penalty_Neutral>  (278) 
1.82009e-06

>  <r_epik_State_Penalty>  (278) 
-0

>  <r_epik_Charging_Adjusted_Penalty>  (278) 
0

>  <i_epik_Tot_Q>  (278) 
0

>  <i_epik_Tot_abs_Q>  (278) 
0

>  <s_lp_Force_Field>  (278) 
OPLS3e

>  <r_lp_Energy>  (278) 
213.547

>  <b_lp_Chiralities_Consistent>  (278) 
1

>  <s_lp_Variant>  (278) 
98:0-1

>  <s_i_glide_gridfile>  (278) 
pfpi4k_grid

>  <i_i_glide_lignum>  (278) 
12

>  <i_i_glide_rotatable_bonds>  (278) 
2

>  <r_i_docking_score>  (278) 
-2.27771

>  <r_i_glide_ligand_efficiency>  (278) 
-0.0734745

>  <r_i_glide_ligand_efficiency_sa>  (278) 
-0.230811

>  <r_i_glide_ligand_efficiency_ln>  (278) 
-0.513693

>  <r_i_glide_gscore>  (278) 
-2.27771

>  <r_i_glide_lipo>  (278) 
-0.450533

>  <r_i_glide_hbond>  (278) 
0

>  <r_i_glide_metal>  (278) 
-0

>  <r_i_glide_rewards>  (278) 
-0.486203

>  <r_i_glide_evdw>  (278) 
-28.3231

>  <r_i_glide_ecoul>  (278) 
0.501219

>  <r_i_glide_erotb>  (278) 
0

>  <r_i_glide_esite>  (278) 
0

>  <r_i_glide_emodel>  (278) 
-31.6123

>  <r_i_glide_energy>  (278) 
-27.8219

>  <r_i_glide_einternal>  (278) 
0.338608

>  <r_i_glide_intrahb_reward>  (278) 
-0

>  <i_i_glide_confnum>  (278) 
1

>  <i_i_glide_posenum>  (278) 
23

>  <r_i_glide_eff_state_penalty>  (278) 
0

>  <ligand_id>  (278) 
98

>  <original_smiles>  (278) 
CC1CCCC2C3(C)CC4(C)C5CC3C3(C)CCCC(C)(C)C3C5C(O)C(O)C4C12C

>  <smiles>  (278) 
[H]OC1([H])C([H])(O[H])C2([H])C3(C([H])([H])[H])C([H])([H])C(C([H])([H])[H])(C4([H])C([H])([H])C3([H])C1([H])C1([H])C(C([H])([H])[H])(C([H])([H])[H])C([H])([H])C([H])([H])C([H])([H])C14C([H])([H])[H])C1([H])C([H])([H])C([H])([H])C([H])([H])C([H])(C([H])([H])[H])C12C([H])([H])[H]

$$$$
98:0:2
     RDKit          3D

 79 84  0  0  1  0  0  0  0  0999 V2000
    2.6405   -2.4567   -2.5688 C   0  0  0  0  0  0  0  0  0  0  0  0
    3.5130   -1.8807   -1.4123 C   0  0  2  0  0  0  0  0  0  0  0  0
    4.8592   -1.4731   -1.9815 C   0  0  0  0  0  0  0  0  0  0  0  0
    5.5453   -2.7429   -2.4459 C   0  0  0  0  0  0  0  0  0  0  0  0
    5.8506   -3.6142   -1.2419 C   0  0  0  0  0  0  0  0  0  0  0  0
    4.8107   -3.8218   -0.1198 C   0  0  1  0  0  0  0  0  0  0  0  0
    5.5894   -4.0975    1.2299 C   0  0  1  0  0  0  0  0  0  0  0  0
    6.8541   -4.9909    1.0610 C   0  0  0  0  0  0  0  0  0  0  0  0
    5.9772   -2.6399    1.5964 C   0  0  0  0  0  0  0  0  0  0  0  0
    4.7985   -1.8936    2.2757 C   0  0  2  0  0  0  0  0  0  0  0  0
    5.3955   -0.5380    2.7247 C   0  0  0  0  0  0  0  0  0  0  0  0
    4.2619   -2.6415    3.5854 C   0  0  2  0  0  0  0  0  0  0  0  0
    5.1163   -3.8612    3.7897 C   0  0  0  0  0  0  0  0  0  0  0  0
    4.8145   -4.6460    2.4972 C   0  0  2  0  0  0  0  0  0  0  0  0
    3.7233   -5.6887    2.8209 C   0  0  1  0  0  0  0  0  0  0  0  0
    3.2827   -6.5057    1.5734 C   0  0  0  0  0  0  0  0  0  0  0  0
    4.2461   -6.7997    3.7914 C   0  0  0  0  0  0  0  0  0  0  0  0
    3.1384   -7.6744    4.4240 C   0  0  0  0  0  0  0  0  0  0  0  0
    1.7680   -6.9866    4.5369 C   0  0  0  0  0  0  0  0  0  0  0  0
    1.8563   -5.4631    4.7688 C   0  0  0  0  0  0  0  0  0  0  0  0
    0.4140   -4.9461    4.9182 C   0  0  0  0  0  0  0  0  0  0  0  0
    2.5615   -5.2070    6.1255 C   0  0  0  0  0  0  0  0  0  0  0  0
    2.5370   -4.7987    3.5089 C   0  0  1  0  0  0  0  0  0  0  0  0
    2.7806   -3.1830    3.6753 C   0  0  2  0  0  0  0  0  0  0  0  0
    1.7775   -2.2883    2.8921 C   0  0  1  0  0  0  0  0  0  0  0  0
    0.9061   -1.6081    3.7802 O   0  0  0  0  0  0  0  0  0  0  0  0
    2.3719   -1.2968    1.8476 C   0  0  1  0  0  0  0  0  0  0  0  0
    2.4144    0.0096    2.3954 O   0  0  0  0  0  0  0  0  0  0  0  0
    3.7199   -1.6862    1.1706 C   0  0  2  0  0  0  0  0  0  0  0  0
    3.6414   -2.7213   -0.0730 C   0  0  1  0  0  0  0  0  0  0  0  0
    2.3474   -3.5509   -0.0254 C   0  0  0  0  0  0  0  0  0  0  0  0
    2.8827   -3.4902   -2.8311 H   0  0  0  0  0  0  0  0  0  0  0  0
    2.7492   -1.8521   -3.4684 H   0  0  0  0  0  0  0  0  0  0  0  0
    1.5808   -2.4445   -2.3320 H   0  0  0  0  0  0  0  0  0  0  0  0
    3.0191   -0.9483   -1.1498 H   0  0  0  0  0  0  0  0  0  0  0  0
    4.7339   -0.7673   -2.7972 H   0  0  0  0  0  0  0  0  0  0  0  0
    5.4570   -0.9658   -1.2298 H   0  0  0  0  0  0  0  0  0  0  0  0
    4.9717   -3.2988   -3.1872 H   0  0  0  0  0  0  0  0  0  0  0  0
    6.4944   -2.5523   -2.9286 H   0  0  0  0  0  0  0  0  0  0  0  0
    6.0071   -4.6319   -1.5811 H   0  0  0  0  0  0  0  0  0  0  0  0
    6.8113   -3.2315   -0.8832 H   0  0  0  0  0  0  0  0  0  0  0  0
    4.3690   -4.7823   -0.4045 H   0  0  0  0  0  0  0  0  0  0  0  0
    7.3026   -5.2387    2.0256 H   0  0  0  0  0  0  0  0  0  0  0  0
    7.6596   -4.5230    0.4972 H   0  0  0  0  0  0  0  0  0  0  0  0
    6.6114   -5.9309    0.5616 H   0  0  0  0  0  0  0  0  0  0  0  0
    6.8381   -2.6619    2.2301 H   0  0  0  0  0  0  0  0  0  0  0  0
    6.3389   -2.0372    0.7585 H   0  0  0  0  0  0  0  0  0  0  0  0
    4.6913    0.0752    3.2794 H   0  0  0  0  0  0  0  0  0  0  0  0
    5.7434    0.0499    1.8745 H   0  0  0  0  0  0  0  0  0  0  0  0
    6.2524   -0.6714    3.3799 H   0  0  0  0  0  0  0  0  0  0  0  0
    4.4100   -1.9808    4.4344 H   0  0  0  0  0  0  0  0  0  0  0  0
    6.1645   -3.6620    3.9558 H   0  0  0  0  0  0  0  0  0  0  0  0
    4.8068   -4.3353    4.7108 H   0  0  0  0  0  0  0  0  0  0  0  0
    4.0091   -4.1803    1.9649 H   0  0  0  0  0  0  0  0  0  0  0  0
    2.5410   -7.2569    1.8234 H   0  0  0  0  0  0  0  0  0  0  0  0
    4.1322   -7.0331    1.1368 H   0  0  0  0  0  0  0  0  0  0  0  0
    2.8464   -5.9370    0.7690 H   0  0  0  0  0  0  0  0  0  0  0  0
    4.9424   -7.4486    3.2643 H   0  0  0  0  0  0  0  0  0  0  0  0
    4.8584   -6.3982    4.5934 H   0  0  0  0  0  0  0  0  0  0  0  0
    3.0230   -8.5966    3.8558 H   0  0  0  0  0  0  0  0  0  0  0  0
    3.4700   -7.9761    5.4114 H   0  0  0  0  0  0  0  0  0  0  0  0
    1.2026   -7.1700    3.6277 H   0  0  0  0  0  0  0  0  0  0  0  0
    1.1885   -7.4663    5.3289 H   0  0  0  0  0  0  0  0  0  0  0  0
    0.3835   -3.8798    5.1465 H   0  0  0  0  0  0  0  0  0  0  0  0
   -0.1092   -5.4657    5.7206 H   0  0  0  0  0  0  0  0  0  0  0  0
   -0.1619   -5.1080    4.0121 H   0  0  0  0  0  0  0  0  0  0  0  0
    2.5521   -4.1653    6.4308 H   0  0  0  0  0  0  0  0  0  0  0  0
    3.5924   -5.5369    6.1374 H   0  0  0  0  0  0  0  0  0  0  0  0
    2.0564   -5.7587    6.9201 H   0  0  0  0  0  0  0  0  0  0  0  0
    1.7436   -4.8896    2.7724 H   0  0  0  0  0  0  0  0  0  0  0  0
    2.5439   -2.9816    4.7166 H   0  0  0  0  0  0  0  0  0  0  0  0
    1.0825   -2.9328    2.3743 H   0  0  0  0  0  0  0  0  0  0  0  0
    1.3811   -0.8470    4.0923 H   0  0  0  0  0  0  0  0  0  0  0  0
    1.6358   -1.1859    1.0678 H   0  0  0  0  0  0  0  0  0  0  0  0
    1.8468    0.5566    1.8718 H   0  0  0  0  0  0  0  0  0  0  0  0
    4.0624   -0.7681    0.6880 H   0  0  0  0  0  0  0  0  0  0  0  0
    2.2121   -4.0144    0.9282 H   0  0  0  0  0  0  0  0  0  0  0  0
    2.3078   -4.3402   -0.7787 H   0  0  0  0  0  0  0  0  0  0  0  0
    1.4561   -2.9589   -0.1876 H   0  0  0  0  0  0  0  0  0  0  0  0
  1  2  1  0
  1 32  1  0
  1 33  1  0
  1 34  1  0
  2 30  1  0
  2  3  1  0
  2 35  1  1
  3  4  1  0
  3 36  1  0
  3 37  1  0
  4  5  1  0
  4 38  1  0
  4 39  1  0
  5  6  1  0
  5 40  1  0
  5 41  1  0
  6 30  1  0
  6  7  1  0
  6 42  1  6
  7 14  1  0
  7  8  1  6
  7  9  1  0
  8 43  1  0
  8 44  1  0
  8 45  1  0
  9 10  1  0
  9 46  1  0
  9 47  1  0
 10 29  1  0
 10 11  1  1
 10 12  1  0
 11 48  1  0
 11 49  1  0
 11 50  1  0
 12 24  1  0
 12 13  1  0
 12 51  1  1
 13 14  1  0
 13 52  1  0
 13 53  1  0
 14 15  1  0
 14 54  1  1
 15 23  1  0
 15 16  1  6
 15 17  1  0
 16 55  1  0
 16 56  1  0
 16 57  1  0
 17 18  1  0
 17 58  1  0
 17 59  1  0
 18 19  1  0
 18 60  1  0
 18 61  1  0
 19 20  1  0
 19 62  1  0
 19 63  1  0
 20 21  1  0
 20 22  1  0
 20 23  1  0
 21 64  1  0
 21 65  1  0
 21 66  1  0
 22 67  1  0
 22 68  1  0
 22 69  1  0
 23 24  1  0
 23 70  1  6
 24 25  1  0
 24 71  1  1
 25 26  1  0
 25 27  1  0
 25 72  1  6
 26 73  1  0
 27 28  1  0
 27 29  1  0
 27 74  1  6
 28 75  1  0
 29 30  1  0
 29 76  1  6
 30 31  1  1
 31 77  1  0
 31 78  1  0
 31 79  1  0
M  END
>  <i_m_ct_stereo_status>  (279) 
1

>  <s_m_source_file>  (279) 
/var/tmp/pbs.5076255.sched01/tmpt85fkz7r/123fjz13bl5.sdf

>  <i_m_source_file_index>  (279) 
12

>  <i_lp_mmshare_version>  (279) 
48012

>  <i_f3d_flags>  (279) 
0

>  <s_epik_input>  (279) 
W0NIMl0xW0NIMl1bQ0gyXVtDQEBIXShbQ0gzXSlbQ0BAXShbQ0gzXSkoW0NAQEhdMVtDQEBdMjNbQ0gzXSlbQ0BASF00W0NAQF0oW0NIMl0yKShbQ0gzXSlbQ0BIXTVbQ0BASF0oW0NAQEhdKFtPSF0pW0NASF00W09IXSlbQ0BIXTZbQ0BAXShbQ0gzXSkoW0NASF0zW0NIMl01KVtDSDJdW0NIMl1bQ0gyXUM2KFtDSDNdKVtDSDNd

>  <s_epik_cmdline>  (279) 
J2VwaWtfcHl0aG9uJywgJy1waHQnLCAnMi4wJywgJy1waCcsICc3LjAnLCAnLXRuJywgJzgnLCAnLW1hJywgJzIwMCcsICctaW1hZScsICc8aW5maWxlLm1hZT4nLCAnLW9tYWUnLCAnPG91dGZpbGUubWFlPic=

>  <r_lp_tautomer_probability>  (279) 
1

>  <r_epik_Ionization_Penalty>  (279) 
1.82009e-06

>  <r_epik_Ionization_Penalty_Charging>  (279) 
0

>  <r_epik_Ionization_Penalty_Neutral>  (279) 
1.82009e-06

>  <r_epik_State_Penalty>  (279) 
-0

>  <r_epik_Charging_Adjusted_Penalty>  (279) 
0

>  <i_epik_Tot_Q>  (279) 
0

>  <i_epik_Tot_abs_Q>  (279) 
0

>  <s_lp_Force_Field>  (279) 
OPLS3e

>  <r_lp_Energy>  (279) 
213.547

>  <b_lp_Chiralities_Consistent>  (279) 
1

>  <s_lp_Variant>  (279) 
98:0-1

>  <s_i_glide_gridfile>  (279) 
pfpi4k_grid

>  <i_i_glide_lignum>  (279) 
12

>  <i_i_glide_rotatable_bonds>  (279) 
2

>  <r_i_docking_score>  (279) 
-2.19719

>  <r_i_glide_ligand_efficiency>  (279) 
-0.070877

>  <r_i_glide_ligand_efficiency_sa>  (279) 
-0.222652

>  <r_i_glide_ligand_efficiency_ln>  (279) 
-0.495533

>  <r_i_glide_gscore>  (279) 
-2.19719

>  <r_i_glide_lipo>  (279) 
-0.754536

>  <r_i_glide_hbond>  (279) 
0

>  <r_i_glide_metal>  (279) 
-0

>  <r_i_glide_rewards>  (279) 
-0.486203

>  <r_i_glide_evdw>  (279) 
-18.0642

>  <r_i_glide_ecoul>  (279) 
-0.3549

>  <r_i_glide_erotb>  (279) 
0

>  <r_i_glide_esite>  (279) 
0

>  <r_i_glide_emodel>  (279) 
-21.0903

>  <r_i_glide_energy>  (279) 
-18.4191

>  <r_i_glide_einternal>  (279) 
1.49171

>  <r_i_glide_intrahb_reward>  (279) 
-0

>  <i_i_glide_confnum>  (279) 
2

>  <i_i_glide_posenum>  (279) 
14

>  <r_i_glide_eff_state_penalty>  (279) 
0

>  <ligand_id>  (279) 
98

>  <original_smiles>  (279) 
CC1CCCC2C3(C)CC4(C)C5CC3C3(C)CCCC(C)(C)C3C5C(O)C(O)C4C12C

>  <smiles>  (279) 
[H]OC1([H])C([H])(O[H])C2([H])C3(C([H])([H])[H])C([H])([H])C(C([H])([H])[H])(C4([H])C([H])([H])C3([H])C1([H])C1([H])C(C([H])([H])[H])(C([H])([H])[H])C([H])([H])C([H])([H])C([H])([H])C14C([H])([H])[H])C1([H])C([H])([H])C([H])([H])C([H])([H])C([H])(C([H])([H])[H])C12C([H])([H])[H]

$$$$
99:0:0
     RDKit          3D

 31 33  0  0  1  0  0  0  0  0999 V2000
   -8.5680   -3.9467   -6.1428 C   0  0  0  0  0  0  0  0  0  0  0  0
   -8.8691   -4.4349   -7.4286 C   0  0  0  0  0  0  0  0  0  0  0  0
   -8.4695   -5.7434   -7.7791 C   0  0  0  0  0  0  0  0  0  0  0  0
   -8.8331   -6.3458   -9.1044 C   0  0  2  0  0  0  0  0  0  0  0  0
  -10.0252   -5.8584   -9.9053 C   0  0  0  0  0  0  0  0  0  0  0  0
  -10.0715   -7.2111   -9.2483 C   0  0  0  0  0  0  0  0  0  0  0  0
  -10.0784   -8.4612  -10.1171 C   0  0  0  0  0  0  0  0  0  0  0  0
  -11.5159   -8.8913  -10.4694 C   0  0  0  0  0  0  0  0  0  0  0  0
  -12.3178   -9.0917   -9.2392 N   0  0  0  0  0  0  0  0  0  0  0  0
  -12.3800   -7.8604   -8.4290 C   0  0  0  0  0  0  0  0  0  0  0  0
  -10.9661   -7.4347   -8.0387 C   0  0  0  0  0  0  0  0  0  0  0  0
   -7.7547   -6.4872   -6.8165 C   0  0  0  0  0  0  0  0  0  0  0  0
   -7.4789   -5.8994   -5.5655 C   0  0  0  0  0  0  0  0  0  0  0  0
   -7.8892   -4.6631   -5.2233 N   0  0  0  0  0  0  0  0  0  0  0  0
   -8.8923   -2.9577   -5.8499 H   0  0  0  0  0  0  0  0  0  0  0  0
   -9.4149   -3.8090   -8.1159 H   0  0  0  0  0  0  0  0  0  0  0  0
   -7.9378   -6.6394   -9.6489 H   0  0  0  0  0  0  0  0  0  0  0  0
  -10.6760   -5.0939   -9.4823 H   0  0  0  0  0  0  0  0  0  0  0  0
   -9.9291   -5.8330  -10.9883 H   0  0  0  0  0  0  0  0  0  0  0  0
   -9.5179   -8.2571  -11.0317 H   0  0  0  0  0  0  0  0  0  0  0  0
   -9.5580   -9.2693   -9.6004 H   0  0  0  0  0  0  0  0  0  0  0  0
  -11.9921   -8.1196  -11.0796 H   0  0  0  0  0  0  0  0  0  0  0  0
  -11.5151   -9.8025  -11.0669 H   0  0  0  0  0  0  0  0  0  0  0  0
  -13.2604   -9.3788   -9.4710 H   0  0  0  0  0  0  0  0  0  0  0  0
  -12.8686   -7.0605   -8.9951 H   0  0  0  0  0  0  0  0  0  0  0  0
  -12.9799   -8.0225   -7.5328 H   0  0  0  0  0  0  0  0  0  0  0  0
  -10.5072   -8.2125   -7.4290 H   0  0  0  0  0  0  0  0  0  0  0  0
  -11.0295   -6.5214   -7.4427 H   0  0  0  0  0  0  0  0  0  0  0  0
   -7.4350   -7.4984   -7.0237 H   0  0  0  0  0  0  0  0  0  0  0  0
   -6.9539   -6.4521   -4.8010 H   0  0  0  0  0  0  0  0  0  0  0  0
  -11.8766   -9.8106   -8.6801 H   0  0  0  0  0  0  0  0  0  0  0  0
  1 14  2  0
  1  2  1  0
  1 15  1  0
  2  3  2  0
  2 16  1  0
  3  4  1  0
  3 12  1  0
  4  6  1  0
  4  5  1  0
  4 17  1  6
  5  6  1  0
  5 18  1  0
  5 19  1  0
  6 11  1  0
  6  7  1  0
  7  8  1  0
  7 20  1  0
  7 21  1  0
  8  9  1  0
  8 22  1  0
  8 23  1  0
  9 10  1  0
  9 24  1  0
  9 31  1  0
 10 11  1  0
 10 25  1  0
 10 26  1  0
 11 27  1  0
 11 28  1  0
 12 13  2  0
 12 29  1  0
 13 14  1  0
 13 30  1  0
M  CHG  1   9   1
M  END
>  <i_m_ct_stereo_status>  (280) 
1

>  <s_m_source_file>  (280) 
/var/tmp/pbs.5076255.sched01/tmpt85fkz7r/123fjz13bl5.sdf

>  <i_m_source_file_index>  (280) 
13

>  <i_lp_mmshare_version>  (280) 
48012

>  <i_f3d_flags>  (280) 
0

>  <s_epik_input>  (280) 
W2NIXTFbY0hdbltjSF1bY0hdYzFbQ0BIXShbQ0gyXTIpQzIzW0NIMl1bQ0gyXVtOSF1bQ0gyXVtDSDJdMw==

>  <s_epik_cmdline>  (280) 
J2VwaWtfcHl0aG9uJywgJy1waHQnLCAnMi4wJywgJy1waCcsICc3LjAnLCAnLXRuJywgJzgnLCAnLW1hJywgJzIwMCcsICctaW1hZScsICc8aW5maWxlLm1hZT4nLCAnLW9tYWUnLCAnPG91dGZpbGUubWFlPic=

>  <r_epik_Ionization_Penalty>  (280) 
0.0147027

>  <r_epik_Ionization_Penalty_Charging>  (280) 
0.000385516

>  <r_epik_Ionization_Penalty_Neutral>  (280) 
0.0143172

>  <r_epik_State_Penalty>  (280) 
0.0111919

>  <r_epik_Charging_Adjusted_Penalty>  (280) 
0.0115774

>  <i_epik_Tot_Q>  (280) 
1

>  <i_epik_Tot_abs_Q>  (280) 
1

>  <s_lp_Force_Field>  (280) 
OPLS3e

>  <r_lp_Energy>  (280) 
17.0068

>  <b_lp_Chiralities_Consistent>  (280) 
1

>  <s_lp_Variant>  (280) 
99:0-1

>  <s_i_glide_gridfile>  (280) 
pfpi4k_grid

>  <i_i_glide_lignum>  (280) 
13

>  <i_i_glide_rotatable_bonds>  (280) 
1

>  <r_i_docking_score>  (280) 
-4.69502

>  <r_i_glide_ligand_efficiency>  (280) 
-0.335358

>  <r_i_glide_ligand_efficiency_sa>  (280) 
-0.808261

>  <r_i_glide_ligand_efficiency_ln>  (280) 
-1.29017

>  <r_i_glide_gscore>  (280) 
-4.69502

>  <r_i_glide_lipo>  (280) 
-1.35223

>  <r_i_glide_hbond>  (280) 
0

>  <r_i_glide_metal>  (280) 
-0

>  <r_i_glide_rewards>  (280) 
-2.49204

>  <r_i_glide_evdw>  (280) 
-18.4575

>  <r_i_glide_ecoul>  (280) 
-2.36556

>  <r_i_glide_erotb>  (280) 
0.447461

>  <r_i_glide_esite>  (280) 
-0.0204908

>  <r_i_glide_emodel>  (280) 
-28.4387

>  <r_i_glide_energy>  (280) 
-20.8231

>  <r_i_glide_einternal>  (280) 
0.381225

>  <r_i_glide_intrahb_reward>  (280) 
-0

>  <i_i_glide_confnum>  (280) 
2

>  <i_i_glide_posenum>  (280) 
9

>  <r_i_glide_eff_state_penalty>  (280) 
0

>  <ligand_id>  (280) 
99

>  <original_smiles>  (280) 
c1cc(C2CC23CCNCC3)ccn1

>  <smiles>  (280) 
[H]c1nc([H])c([H])c(C2([H])C([H])([H])C23C([H])([H])C([H])([H])[N+]([H])([H])C([H])([H])C3([H])[H])c1[H]

$$$$
99:0:1
     RDKit          3D

 31 33  0  0  1  0  0  0  0  0999 V2000
   -8.5592  -12.6009   -7.6982 C   0  0  0  0  0  0  0  0  0  0  0  0
   -8.8734  -11.5345   -8.5677 C   0  0  0  0  0  0  0  0  0  0  0  0
   -8.1216  -10.3446   -8.4801 C   0  0  0  0  0  0  0  0  0  0  0  0
   -8.4680   -9.1351   -9.2951 C   0  0  2  0  0  0  0  0  0  0  0  0
   -8.5506   -7.7653   -8.6438 C   0  0  0  0  0  0  0  0  0  0  0  0
   -9.8088   -8.4381   -9.1511 C   0  0  0  0  0  0  0  0  0  0  0  0
  -10.5259   -7.8573  -10.3623 C   0  0  0  0  0  0  0  0  0  0  0  0
  -11.6041   -6.8375   -9.9457 C   0  0  0  0  0  0  0  0  0  0  0  0
  -12.5613   -7.4555   -8.9972 N   0  0  0  0  0  0  0  0  0  0  0  0
  -11.8725   -7.9385   -7.7852 C   0  0  0  0  0  0  0  0  0  0  0  0
  -10.8318   -8.9868   -8.1654 C   0  0  0  0  0  0  0  0  0  0  0  0
   -7.0684  -10.2968   -7.5490 C   0  0  0  0  0  0  0  0  0  0  0  0
   -6.8292  -11.4153   -6.7286 C   0  0  0  0  0  0  0  0  0  0  0  0
   -7.5672  -12.5437   -6.7853 N   0  0  0  0  0  0  0  0  0  0  0  0
   -9.1458  -13.5085   -7.7022 H   0  0  0  0  0  0  0  0  0  0  0  0
   -9.7127  -11.6160   -9.2451 H   0  0  0  0  0  0  0  0  0  0  0  0
   -8.0134   -9.2042  -10.2800 H   0  0  0  0  0  0  0  0  0  0  0  0
   -8.4185   -7.7041   -7.5642 H   0  0  0  0  0  0  0  0  0  0  0  0
   -8.1774   -6.9134   -9.2030 H   0  0  0  0  0  0  0  0  0  0  0  0
   -9.7935   -7.3772  -11.0072 H   0  0  0  0  0  0  0  0  0  0  0  0
  -10.9817   -8.6626  -10.9352 H   0  0  0  0  0  0  0  0  0  0  0  0
  -11.1266   -5.9799   -9.4649 H   0  0  0  0  0  0  0  0  0  0  0  0
  -12.1354   -6.4444  -10.8157 H   0  0  0  0  0  0  0  0  0  0  0  0
  -13.2315   -6.7347   -8.7163 H   0  0  0  0  0  0  0  0  0  0  0  0
  -11.4018   -7.0934   -7.2762 H   0  0  0  0  0  0  0  0  0  0  0  0
  -12.5857   -8.3722   -7.0872 H   0  0  0  0  0  0  0  0  0  0  0  0
  -11.3181   -9.8523   -8.6076 H   0  0  0  0  0  0  0  0  0  0  0  0
  -10.3263   -9.3232   -7.2630 H   0  0  0  0  0  0  0  0  0  0  0  0
   -6.4766   -9.4012   -7.4311 H   0  0  0  0  0  0  0  0  0  0  0  0
   -6.0503  -11.3900   -5.9861 H   0  0  0  0  0  0  0  0  0  0  0  0
  -13.0464   -8.2236   -9.4436 H   0  0  0  0  0  0  0  0  0  0  0  0
  1 14  2  0
  1  2  1  0
  1 15  1  0
  2  3  2  0
  2 16  1  0
  3  4  1  0
  3 12  1  0
  4  6  1  0
  4  5  1  0
  4 17  1  6
  5  6  1  0
  5 18  1  0
  5 19  1  0
  6 11  1  0
  6  7  1  0
  7  8  1  0
  7 20  1  0
  7 21  1  0
  8  9  1  0
  8 22  1  0
  8 23  1  0
  9 10  1  0
  9 24  1  0
  9 31  1  0
 10 11  1  0
 10 25  1  0
 10 26  1  0
 11 27  1  0
 11 28  1  0
 12 13  2  0
 12 29  1  0
 13 14  1  0
 13 30  1  0
M  CHG  1   9   1
M  END
>  <i_m_ct_stereo_status>  (281) 
1

>  <s_m_source_file>  (281) 
/var/tmp/pbs.5076255.sched01/tmpt85fkz7r/123fjz13bl5.sdf

>  <i_m_source_file_index>  (281) 
13

>  <i_lp_mmshare_version>  (281) 
48012

>  <i_f3d_flags>  (281) 
0

>  <s_epik_input>  (281) 
W2NIXTFbY0hdbltjSF1bY0hdYzFbQ0BIXShbQ0gyXTIpQzIzW0NIMl1bQ0gyXVtOSF1bQ0gyXVtDSDJdMw==

>  <s_epik_cmdline>  (281) 
J2VwaWtfcHl0aG9uJywgJy1waHQnLCAnMi4wJywgJy1waCcsICc3LjAnLCAnLXRuJywgJzgnLCAnLW1hJywgJzIwMCcsICctaW1hZScsICc8aW5maWxlLm1hZT4nLCAnLW9tYWUnLCAnPG91dGZpbGUubWFlPic=

>  <r_epik_Ionization_Penalty>  (281) 
0.0147027

>  <r_epik_Ionization_Penalty_Charging>  (281) 
0.000385516

>  <r_epik_Ionization_Penalty_Neutral>  (281) 
0.0143172

>  <r_epik_State_Penalty>  (281) 
0.0111919

>  <r_epik_Charging_Adjusted_Penalty>  (281) 
0.0115774

>  <i_epik_Tot_Q>  (281) 
1

>  <i_epik_Tot_abs_Q>  (281) 
1

>  <s_lp_Force_Field>  (281) 
OPLS3e

>  <r_lp_Energy>  (281) 
17.0068

>  <b_lp_Chiralities_Consistent>  (281) 
1

>  <s_lp_Variant>  (281) 
99:0-1

>  <s_i_glide_gridfile>  (281) 
pfpi4k_grid

>  <i_i_glide_lignum>  (281) 
13

>  <i_i_glide_rotatable_bonds>  (281) 
1

>  <r_i_docking_score>  (281) 
-4.22939

>  <r_i_glide_ligand_efficiency>  (281) 
-0.302099

>  <r_i_glide_ligand_efficiency_sa>  (281) 
-0.728102

>  <r_i_glide_ligand_efficiency_ln>  (281) 
-1.16222

>  <r_i_glide_gscore>  (281) 
-4.22939

>  <r_i_glide_lipo>  (281) 
-0.566533

>  <r_i_glide_hbond>  (281) 
-0.2

>  <r_i_glide_metal>  (281) 
-0

>  <r_i_glide_rewards>  (281) 
-2.16023

>  <r_i_glide_evdw>  (281) 
-14.8925

>  <r_i_glide_ecoul>  (281) 
-6.05772

>  <r_i_glide_erotb>  (281) 
0.447461

>  <r_i_glide_esite>  (281) 
-0.0967973

>  <r_i_glide_emodel>  (281) 
-27.8323

>  <r_i_glide_energy>  (281) 
-20.9503

>  <r_i_glide_einternal>  (281) 
0.16849

>  <r_i_glide_intrahb_reward>  (281) 
-0

>  <i_i_glide_confnum>  (281) 
6

>  <i_i_glide_posenum>  (281) 
1

>  <r_i_glide_eff_state_penalty>  (281) 
0

>  <ligand_id>  (281) 
99

>  <original_smiles>  (281) 
c1cc(C2CC23CCNCC3)ccn1

>  <smiles>  (281) 
[H]c1nc([H])c([H])c(C2([H])C([H])([H])C23C([H])([H])C([H])([H])[N+]([H])([H])C([H])([H])C3([H])[H])c1[H]

$$$$
99:0:2
     RDKit          3D

 31 33  0  0  1  0  0  0  0  0999 V2000
    4.6144   -0.7681   -2.4831 C   0  0  0  0  0  0  0  0  0  0  0  0
    4.8445   -1.7943   -1.5490 C   0  0  0  0  0  0  0  0  0  0  0  0
    4.0317   -2.9416   -1.6030 C   0  0  0  0  0  0  0  0  0  0  0  0
    4.1240   -4.0167   -0.5610 C   0  0  2  0  0  0  0  0  0  0  0  0
    2.8926   -4.4316    0.2172 C   0  0  0  0  0  0  0  0  0  0  0  0
    4.0128   -3.7003    0.9176 C   0  0  0  0  0  0  0  0  0  0  0  0
    4.8672   -4.4444    1.9375 C   0  0  0  0  0  0  0  0  0  0  0  0
    4.2965   -4.3097    3.3621 C   0  0  0  0  0  0  0  0  0  0  0  0
    4.1477   -2.8808    3.7272 N   0  0  0  0  0  0  0  0  0  0  0  0
    3.2471   -2.1700    2.7935 C   0  0  0  0  0  0  0  0  0  0  0  0
    3.8060   -2.2575    1.3743 C   0  0  0  0  0  0  0  0  0  0  0  0
    3.0785   -3.0220   -2.6361 C   0  0  0  0  0  0  0  0  0  0  0  0
    2.9747   -1.9633   -3.5507 C   0  0  0  0  0  0  0  0  0  0  0  0
    3.7222   -0.8499   -3.4884 N   0  0  0  0  0  0  0  0  0  0  0  0
    5.1777    0.1433   -2.4104 H   0  0  0  0  0  0  0  0  0  0  0  0
    5.5805   -1.6605   -0.7679 H   0  0  0  0  0  0  0  0  0  0  0  0
    4.7986   -4.8074   -0.8858 H   0  0  0  0  0  0  0  0  0  0  0  0
    1.9717   -3.8858    0.0287 H   0  0  0  0  0  0  0  0  0  0  0  0
    2.7670   -5.4879    0.4417 H   0  0  0  0  0  0  0  0  0  0  0  0
    4.9125   -5.4988    1.6608 H   0  0  0  0  0  0  0  0  0  0  0  0
    5.8884   -4.0632    1.9011 H   0  0  0  0  0  0  0  0  0  0  0  0
    3.3212   -4.7977    3.4148 H   0  0  0  0  0  0  0  0  0  0  0  0
    4.9384   -4.8119    4.0873 H   0  0  0  0  0  0  0  0  0  0  0  0
    3.7886   -2.7967    4.6707 H   0  0  0  0  0  0  0  0  0  0  0  0
    2.2452   -2.6082    2.8210 H   0  0  0  0  0  0  0  0  0  0  0  0
    3.1501   -1.1220    3.0862 H   0  0  0  0  0  0  0  0  0  0  0  0
    4.7630   -1.7384    1.3386 H   0  0  0  0  0  0  0  0  0  0  0  0
    3.1210   -1.7454    0.6946 H   0  0  0  0  0  0  0  0  0  0  0  0
    2.3999   -3.8560   -2.7139 H   0  0  0  0  0  0  0  0  0  0  0  0
    2.2207   -1.9912   -4.3202 H   0  0  0  0  0  0  0  0  0  0  0  0
    5.0609   -2.4463    3.6723 H   0  0  0  0  0  0  0  0  0  0  0  0
  1 14  2  0
  1  2  1  0
  1 15  1  0
  2  3  2  0
  2 16  1  0
  3  4  1  0
  3 12  1  0
  4  6  1  0
  4  5  1  0
  4 17  1  1
  5  6  1  0
  5 18  1  0
  5 19  1  0
  6 11  1  0
  6  7  1  0
  7  8  1  0
  7 20  1  0
  7 21  1  0
  8  9  1  0
  8 22  1  0
  8 23  1  0
  9 10  1  0
  9 24  1  0
  9 31  1  0
 10 11  1  0
 10 25  1  0
 10 26  1  0
 11 27  1  0
 11 28  1  0
 12 13  2  0
 12 29  1  0
 13 14  1  0
 13 30  1  0
M  CHG  1   9   1
M  END
>  <i_m_ct_stereo_status>  (282) 
1

>  <s_m_source_file>  (282) 
/var/tmp/pbs.5076255.sched01/tmpt85fkz7r/123fjz13bl5.sdf

>  <i_m_source_file_index>  (282) 
13

>  <i_lp_mmshare_version>  (282) 
48012

>  <i_f3d_flags>  (282) 
0

>  <s_epik_input>  (282) 
W2NIXTFbY0hdbltjSF1bY0hdYzFbQ0BIXShbQ0gyXTIpQzIzW0NIMl1bQ0gyXVtOSF1bQ0gyXVtDSDJdMw==

>  <s_epik_cmdline>  (282) 
J2VwaWtfcHl0aG9uJywgJy1waHQnLCAnMi4wJywgJy1waCcsICc3LjAnLCAnLXRuJywgJzgnLCAnLW1hJywgJzIwMCcsICctaW1hZScsICc8aW5maWxlLm1hZT4nLCAnLW9tYWUnLCAnPG91dGZpbGUubWFlPic=

>  <r_epik_Ionization_Penalty>  (282) 
0.0147027

>  <r_epik_Ionization_Penalty_Charging>  (282) 
0.000385516

>  <r_epik_Ionization_Penalty_Neutral>  (282) 
0.0143172

>  <r_epik_State_Penalty>  (282) 
0.0111919

>  <r_epik_Charging_Adjusted_Penalty>  (282) 
0.0115774

>  <i_epik_Tot_Q>  (282) 
1

>  <i_epik_Tot_abs_Q>  (282) 
1

>  <s_lp_Force_Field>  (282) 
OPLS3e

>  <r_lp_Energy>  (282) 
17.0068

>  <b_lp_Chiralities_Consistent>  (282) 
1

>  <s_lp_Variant>  (282) 
99:0-1

>  <s_i_glide_gridfile>  (282) 
pfpi4k_grid

>  <i_i_glide_lignum>  (282) 
13

>  <i_i_glide_rotatable_bonds>  (282) 
1

>  <r_i_docking_score>  (282) 
-3.23635

>  <r_i_glide_ligand_efficiency>  (282) 
-0.231168

>  <r_i_glide_ligand_efficiency_sa>  (282) 
-0.557148

>  <r_i_glide_ligand_efficiency_ln>  (282) 
-0.889338

>  <r_i_glide_gscore>  (282) 
-3.23635

>  <r_i_glide_lipo>  (282) 
-0.252343

>  <r_i_glide_hbond>  (282) 
0

>  <r_i_glide_metal>  (282) 
-0

>  <r_i_glide_rewards>  (282) 
-2.11857

>  <r_i_glide_evdw>  (282) 
-18.1767

>  <r_i_glide_ecoul>  (282) 
-2.6938

>  <r_i_glide_erotb>  (282) 
0.447461

>  <r_i_glide_esite>  (282) 
0

>  <r_i_glide_emodel>  (282) 
-25.7929

>  <r_i_glide_energy>  (282) 
-20.8705

>  <r_i_glide_einternal>  (282) 
0.544656

>  <r_i_glide_intrahb_reward>  (282) 
-0

>  <i_i_glide_confnum>  (282) 
6

>  <i_i_glide_posenum>  (282) 
12

>  <r_i_glide_eff_state_penalty>  (282) 
0

>  <ligand_id>  (282) 
99

>  <original_smiles>  (282) 
c1cc(C2CC23CCNCC3)ccn1

>  <smiles>  (282) 
[H]c1nc([H])c([H])c(C2([H])C([H])([H])C23C([H])([H])C([H])([H])[N+]([H])([H])C([H])([H])C3([H])[H])c1[H]

$$$$
99:1:0
     RDKit          3D

 32 34  0  0  1  0  0  0  0  0999 V2000
   -8.0345   -6.5905   -9.7952 C   0  0  0  0  0  0  0  0  0  0  0  0
   -7.7335   -7.9414   -9.4965 C   0  0  0  0  0  0  0  0  0  0  0  0
   -7.6646   -8.3818   -8.1476 C   0  0  0  0  0  0  0  0  0  0  0  0
   -7.2919   -9.7990   -7.7846 C   0  0  2  0  0  0  0  0  0  0  0  0
   -7.4707  -10.3852   -6.3888 C   0  0  0  0  0  0  0  0  0  0  0  0
   -6.0825  -10.1084   -6.9144 C   0  0  0  0  0  0  0  0  0  0  0  0
   -5.1760  -11.3056   -7.1876 C   0  0  0  0  0  0  0  0  0  0  0  0
   -4.3298  -11.6743   -5.9517 C   0  0  0  0  0  0  0  0  0  0  0  0
   -3.5285  -10.5139   -5.5088 N   0  0  0  0  0  0  0  0  0  0  0  0
   -4.3813   -9.3563   -5.1774 C   0  0  0  0  0  0  0  0  0  0  0  0
   -5.2225   -8.9514   -6.3938 C   0  0  0  0  0  0  0  0  0  0  0  0
   -7.9252   -7.4134   -7.1439 C   0  0  0  0  0  0  0  0  0  0  0  0
   -8.2131   -6.0913   -7.4874 C   0  0  0  0  0  0  0  0  0  0  0  0
   -8.2562   -5.7226   -8.7866 N   0  0  0  0  0  0  0  0  0  0  0  0
   -8.0605   -6.1799  -10.7984 H   0  0  0  0  0  0  0  0  0  0  0  0
   -7.5172   -8.6300  -10.3021 H   0  0  0  0  0  0  0  0  0  0  0  0
   -7.4849  -10.4679   -8.6238 H   0  0  0  0  0  0  0  0  0  0  0  0
   -7.8220   -9.7554   -5.5802 H   0  0  0  0  0  0  0  0  0  0  0  0
   -7.7766  -11.4282   -6.3389 H   0  0  0  0  0  0  0  0  0  0  0  0
   -5.7945  -12.1644   -7.4717 H   0  0  0  0  0  0  0  0  0  0  0  0
   -4.5220  -11.0991   -8.0362 H   0  0  0  0  0  0  0  0  0  0  0  0
   -4.9830  -11.9914   -5.1281 H   0  0  0  0  0  0  0  0  0  0  0  0
   -3.6632  -12.5181   -6.1545 H   0  0  0  0  0  0  0  0  0  0  0  0
   -3.0136  -10.7611   -4.6679 H   0  0  0  0  0  0  0  0  0  0  0  0
   -5.0529   -9.6143   -4.3527 H   0  0  0  0  0  0  0  0  0  0  0  0
   -3.7805   -8.5171   -4.8302 H   0  0  0  0  0  0  0  0  0  0  0  0
   -4.5908   -8.6095   -7.2174 H   0  0  0  0  0  0  0  0  0  0  0  0
   -5.8004   -8.0853   -6.0648 H   0  0  0  0  0  0  0  0  0  0  0  0
   -7.8499   -7.6701   -6.1037 H   0  0  0  0  0  0  0  0  0  0  0  0
   -8.3754   -5.3178   -6.7460 H   0  0  0  0  0  0  0  0  0  0  0  0
   -2.8828  -10.2464   -6.2363 H   0  0  0  0  0  0  0  0  0  0  0  0
   -8.4248   -4.7329   -9.0002 H   0  0  0  0  0  0  0  0  0  0  0  0
  1 14  2  0
  1  2  1  0
  1 15  1  0
  2  3  2  0
  2 16  1  0
  3  4  1  0
  3 12  1  0
  4  6  1  0
  4  5  1  0
  4 17  1  6
  5  6  1  0
  5 18  1  0
  5 19  1  0
  6 11  1  0
  6  7  1  0
  7  8  1  0
  7 20  1  0
  7 21  1  0
  8  9  1  0
  8 22  1  0
  8 23  1  0
  9 10  1  0
  9 24  1  0
  9 31  1  0
 10 11  1  0
 10 25  1  0
 10 26  1  0
 11 27  1  0
 11 28  1  0
 12 13  2  0
 12 29  1  0
 13 14  1  0
 13 30  1  0
 14 32  1  0
M  CHG  2   9   1  14   1
M  END
>  <i_m_ct_stereo_status>  (283) 
1

>  <s_m_source_file>  (283) 
/var/tmp/pbs.5076255.sched01/tmpt85fkz7r/123fjz13bl5.sdf

>  <i_m_source_file_index>  (283) 
14

>  <i_lp_mmshare_version>  (283) 
48012

>  <i_f3d_flags>  (283) 
0

>  <s_epik_input>  (283) 
W2NIXTFbY0hdbltjSF1bY0hdYzFbQ0BIXShbQ0gyXTIpQzIzW0NIMl1bQ0gyXVtOSF1bQ0gyXVtDSDJdMw==

>  <s_epik_cmdline>  (283) 
J2VwaWtfcHl0aG9uJywgJy1waHQnLCAnMi4wJywgJy1waCcsICc3LjAnLCAnLXRuJywgJzgnLCAnLW1hJywgJzIwMCcsICctaW1hZScsICc8aW5maWxlLm1hZT4nLCAnLW9tYWUnLCAnPG91dGZpbGUubWFlPic=

>  <r_epik_Ionization_Penalty>  (283) 
2.21347

>  <r_epik_Ionization_Penalty_Charging>  (283) 
2.21347

>  <r_epik_Ionization_Penalty_Neutral>  (283) 
0

>  <r_epik_State_Penalty>  (283) 
2.35725

>  <r_epik_Charging_Adjusted_Penalty>  (283) 
4.57072

>  <i_epik_Tot_Q>  (283) 
2

>  <i_epik_Tot_abs_Q>  (283) 
2

>  <s_lp_Force_Field>  (283) 
OPLS3e

>  <r_lp_Energy>  (283) 
23.1111

>  <b_lp_Chiralities_Consistent>  (283) 
1

>  <s_lp_Variant>  (283) 
99:0-2

>  <s_i_glide_gridfile>  (283) 
pfpi4k_grid

>  <i_i_glide_lignum>  (283) 
14

>  <i_i_glide_rotatable_bonds>  (283) 
1

>  <r_i_docking_score>  (283) 
-5.16009

>  <r_i_glide_ligand_efficiency>  (283) 
-0.368578

>  <r_i_glide_ligand_efficiency_sa>  (283) 
-0.888325

>  <r_i_glide_ligand_efficiency_ln>  (283) 
-1.41797

>  <r_i_glide_gscore>  (283) 
-5.16009

>  <r_i_glide_lipo>  (283) 
-1.652

>  <r_i_glide_hbond>  (283) 
0

>  <r_i_glide_metal>  (283) 
-0

>  <r_i_glide_rewards>  (283) 
-2.45504

>  <r_i_glide_evdw>  (283) 
-18.4911

>  <r_i_glide_ecoul>  (283) 
-3.81359

>  <r_i_glide_erotb>  (283) 
0.443545

>  <r_i_glide_esite>  (283) 
0

>  <r_i_glide_emodel>  (283) 
-26.8558

>  <r_i_glide_energy>  (283) 
-22.3047

>  <r_i_glide_einternal>  (283) 
5.48471

>  <r_i_glide_intrahb_reward>  (283) 
-0

>  <i_i_glide_confnum>  (283) 
2

>  <i_i_glide_posenum>  (283) 
15

>  <r_i_glide_eff_state_penalty>  (283) 
0

>  <ligand_id>  (283) 
99

>  <original_smiles>  (283) 
c1cc(C2CC23CCNCC3)ccn1

>  <smiles>  (283) 
[H]c1c(C2([H])C([H])([H])C23C([H])([H])C([H])([H])[N+]([H])([H])C([H])([H])C3([H])[H])c([H])c([H])[n+]([H])c1[H]

$$$$
99:1:1
     RDKit          3D

 32 34  0  0  1  0  0  0  0  0999 V2000
   -8.5973   -4.0839   -5.9475 C   0  0  0  0  0  0  0  0  0  0  0  0
   -8.8949   -4.5592   -7.2361 C   0  0  0  0  0  0  0  0  0  0  0  0
   -8.4375   -5.8325   -7.6440 C   0  0  0  0  0  0  0  0  0  0  0  0
   -8.8036   -6.3907   -8.9975 C   0  0  2  0  0  0  0  0  0  0  0  0
   -9.9909   -5.8609   -9.7889 C   0  0  0  0  0  0  0  0  0  0  0  0
  -10.0521   -7.2356   -9.1765 C   0  0  0  0  0  0  0  0  0  0  0  0
  -10.0844   -8.4463  -10.0983 C   0  0  0  0  0  0  0  0  0  0  0  0
  -11.5315   -8.8375  -10.4723 C   0  0  0  0  0  0  0  0  0  0  0  0
  -12.3371   -9.0813   -9.2531 N   0  0  0  0  0  0  0  0  0  0  0  0
  -12.3809   -7.8825   -8.3985 C   0  0  0  0  0  0  0  0  0  0  0  0
  -10.9587   -7.4932   -7.9819 C   0  0  0  0  0  0  0  0  0  0  0  0
   -7.6469   -6.5777   -6.7383 C   0  0  0  0  0  0  0  0  0  0  0  0
   -7.3538   -6.0441   -5.4670 C   0  0  0  0  0  0  0  0  0  0  0  0
   -7.8461   -4.8364   -5.1184 N   0  0  0  0  0  0  0  0  0  0  0  0
   -8.9653   -3.1434   -5.5633 H   0  0  0  0  0  0  0  0  0  0  0  0
   -9.4925   -3.9467   -7.8851 H   0  0  0  0  0  0  0  0  0  0  0  0
   -7.9160   -6.6862   -9.5534 H   0  0  0  0  0  0  0  0  0  0  0  0
  -10.6629   -5.1243   -9.3493 H   0  0  0  0  0  0  0  0  0  0  0  0
   -9.8827   -5.8015  -10.8697 H   0  0  0  0  0  0  0  0  0  0  0  0
   -9.5201   -8.2162  -11.0058 H   0  0  0  0  0  0  0  0  0  0  0  0
   -9.5830   -9.2879   -9.6158 H   0  0  0  0  0  0  0  0  0  0  0  0
  -11.9932   -8.0304  -11.0487 H   0  0  0  0  0  0  0  0  0  0  0  0
  -11.5442   -9.7241  -11.1099 H   0  0  0  0  0  0  0  0  0  0  0  0
  -13.2853   -9.3332   -9.4969 H   0  0  0  0  0  0  0  0  0  0  0  0
  -12.8565   -7.0607   -8.9347 H   0  0  0  0  0  0  0  0  0  0  0  0
  -12.9869   -8.0758   -7.5238 H   0  0  0  0  0  0  0  0  0  0  0  0
  -10.5136   -8.2927   -7.3909 H   0  0  0  0  0  0  0  0  0  0  0  0
  -11.0179   -6.6009   -7.3525 H   0  0  0  0  0  0  0  0  0  0  0  0
   -7.2811   -7.5597   -7.0067 H   0  0  0  0  0  0  0  0  0  0  0  0
   -6.7773   -6.5609   -4.7158 H   0  0  0  0  0  0  0  0  0  0  0  0
  -11.9096   -9.8300   -8.7248 H   0  0  0  0  0  0  0  0  0  0  0  0
   -7.6469   -4.4682   -4.1859 H   0  0  0  0  0  0  0  0  0  0  0  0
  1 14  2  0
  1  2  1  0
  1 15  1  0
  2  3  2  0
  2 16  1  0
  3  4  1  0
  3 12  1  0
  4  6  1  0
  4  5  1  0
  4 17  1  6
  5  6  1  0
  5 18  1  0
  5 19  1  0
  6 11  1  0
  6  7  1  0
  7  8  1  0
  7 20  1  0
  7 21  1  0
  8  9  1  0
  8 22  1  0
  8 23  1  0
  9 10  1  0
  9 24  1  0
  9 31  1  0
 10 11  1  0
 10 25  1  0
 10 26  1  0
 11 27  1  0
 11 28  1  0
 12 13  2  0
 12 29  1  0
 13 14  1  0
 13 30  1  0
 14 32  1  0
M  CHG  2   9   1  14   1
M  END
>  <i_m_ct_stereo_status>  (284) 
1

>  <s_m_source_file>  (284) 
/var/tmp/pbs.5076255.sched01/tmpt85fkz7r/123fjz13bl5.sdf

>  <i_m_source_file_index>  (284) 
14

>  <i_lp_mmshare_version>  (284) 
48012

>  <i_f3d_flags>  (284) 
0

>  <s_epik_input>  (284) 
W2NIXTFbY0hdbltjSF1bY0hdYzFbQ0BIXShbQ0gyXTIpQzIzW0NIMl1bQ0gyXVtOSF1bQ0gyXVtDSDJdMw==

>  <s_epik_cmdline>  (284) 
J2VwaWtfcHl0aG9uJywgJy1waHQnLCAnMi4wJywgJy1waCcsICc3LjAnLCAnLXRuJywgJzgnLCAnLW1hJywgJzIwMCcsICctaW1hZScsICc8aW5maWxlLm1hZT4nLCAnLW9tYWUnLCAnPG91dGZpbGUubWFlPic=

>  <r_epik_Ionization_Penalty>  (284) 
2.21347

>  <r_epik_Ionization_Penalty_Charging>  (284) 
2.21347

>  <r_epik_Ionization_Penalty_Neutral>  (284) 
0

>  <r_epik_State_Penalty>  (284) 
2.35725

>  <r_epik_Charging_Adjusted_Penalty>  (284) 
4.57072

>  <i_epik_Tot_Q>  (284) 
2

>  <i_epik_Tot_abs_Q>  (284) 
2

>  <s_lp_Force_Field>  (284) 
OPLS3e

>  <r_lp_Energy>  (284) 
23.1111

>  <b_lp_Chiralities_Consistent>  (284) 
1

>  <s_lp_Variant>  (284) 
99:0-2

>  <s_i_glide_gridfile>  (284) 
pfpi4k_grid

>  <i_i_glide_lignum>  (284) 
14

>  <i_i_glide_rotatable_bonds>  (284) 
1

>  <r_i_docking_score>  (284) 
-4.58632

>  <r_i_glide_ligand_efficiency>  (284) 
-0.327594

>  <r_i_glide_ligand_efficiency_sa>  (284) 
-0.789549

>  <r_i_glide_ligand_efficiency_ln>  (284) 
-1.26031

>  <r_i_glide_gscore>  (284) 
-4.58632

>  <r_i_glide_lipo>  (284) 
-1.37809

>  <r_i_glide_hbond>  (284) 
0

>  <r_i_glide_metal>  (284) 
-0

>  <r_i_glide_rewards>  (284) 
-2.34714

>  <r_i_glide_evdw>  (284) 
-17.053

>  <r_i_glide_ecoul>  (284) 
-2.87528

>  <r_i_glide_erotb>  (284) 
0.443545

>  <r_i_glide_esite>  (284) 
-0.020693

>  <r_i_glide_emodel>  (284) 
-26.2711

>  <r_i_glide_energy>  (284) 
-19.9283

>  <r_i_glide_einternal>  (284) 
1.07979

>  <r_i_glide_intrahb_reward>  (284) 
-0

>  <i_i_glide_confnum>  (284) 
4

>  <i_i_glide_posenum>  (284) 
28

>  <r_i_glide_eff_state_penalty>  (284) 
0

>  <ligand_id>  (284) 
99

>  <original_smiles>  (284) 
c1cc(C2CC23CCNCC3)ccn1

>  <smiles>  (284) 
[H]c1c(C2([H])C([H])([H])C23C([H])([H])C([H])([H])[N+]([H])([H])C([H])([H])C3([H])[H])c([H])c([H])[n+]([H])c1[H]

$$$$
99:1:2
     RDKit          3D

 32 34  0  0  1  0  0  0  0  0999 V2000
    2.6076   -2.1116    2.5877 C   0  0  0  0  0  0  0  0  0  0  0  0
    3.4924   -2.6156    1.6091 C   0  0  0  0  0  0  0  0  0  0  0  0
    4.2628   -1.7137    0.8436 C   0  0  0  0  0  0  0  0  0  0  0  0
    5.1286   -2.1993   -0.2739 C   0  0  2  0  0  0  0  0  0  0  0  0
    5.3012   -1.3847   -1.5420 C   0  0  0  0  0  0  0  0  0  0  0  0
    4.5248   -2.6739   -1.5814 C   0  0  0  0  0  0  0  0  0  0  0  0
    5.0930   -3.8528   -2.3502 C   0  0  0  0  0  0  0  0  0  0  0  0
    4.6330   -3.8533   -3.8189 C   0  0  0  0  0  0  0  0  0  0  0  0
    3.1603   -3.8168   -3.9175 N   0  0  0  0  0  0  0  0  0  0  0  0
    2.5980   -2.6392   -3.2319 C   0  0  0  0  0  0  0  0  0  0  0  0
    3.0211   -2.6497   -1.7583 C   0  0  0  0  0  0  0  0  0  0  0  0
    4.1361   -0.3317    1.1014 C   0  0  0  0  0  0  0  0  0  0  0  0
    3.2342    0.1210    2.0821 C   0  0  0  0  0  0  0  0  0  0  0  0
    2.5100   -0.7765    2.7827 N   0  0  0  0  0  0  0  0  0  0  0  0
    1.9611   -2.7305    3.1916 H   0  0  0  0  0  0  0  0  0  0  0  0
    3.5501   -3.6777    1.4194 H   0  0  0  0  0  0  0  0  0  0  0  0
    6.0011   -2.7215    0.1178 H   0  0  0  0  0  0  0  0  0  0  0  0
    4.7405   -0.4588   -1.6545 H   0  0  0  0  0  0  0  0  0  0  0  0
    6.2727   -1.4009   -2.0158 H   0  0  0  0  0  0  0  0  0  0  0  0
    6.1861   -3.8036   -2.3047 H   0  0  0  0  0  0  0  0  0  0  0  0
    4.8040   -4.7747   -1.8511 H   0  0  0  0  0  0  0  0  0  0  0  0
    5.0109   -2.9685   -4.3207 H   0  0  0  0  0  0  0  0  0  0  0  0
    5.0118   -4.7297   -4.3499 H   0  0  0  0  0  0  0  0  0  0  0  0
    2.8316   -3.8338   -4.8724 H   0  0  0  0  0  0  0  0  0  0  0  0
    2.9442   -1.7179   -3.7143 H   0  0  0  0  0  0  0  0  0  0  0  0
    1.5142   -2.6602   -3.3111 H   0  0  0  0  0  0  0  0  0  0  0  0
    2.5874   -3.5001   -1.2284 H   0  0  0  0  0  0  0  0  0  0  0  0
    2.6354   -1.7448   -1.2926 H   0  0  0  0  0  0  0  0  0  0  0  0
    4.6855    0.3895    0.5206 H   0  0  0  0  0  0  0  0  0  0  0  0
    3.0582    1.1665    2.2955 H   0  0  0  0  0  0  0  0  0  0  0  0
    2.8265   -4.6429   -3.4234 H   0  0  0  0  0  0  0  0  0  0  0  0
    1.8536   -0.4245    3.4803 H   0  0  0  0  0  0  0  0  0  0  0  0
  1 14  2  0
  1  2  1  0
  1 15  1  0
  2  3  2  0
  2 16  1  0
  3  4  1  0
  3 12  1  0
  4  6  1  0
  4  5  1  0
  4 17  1  1
  5  6  1  0
  5 18  1  0
  5 19  1  0
  6 11  1  0
  6  7  1  0
  7  8  1  0
  7 20  1  0
  7 21  1  0
  8  9  1  0
  8 22  1  0
  8 23  1  0
  9 10  1  0
  9 24  1  0
  9 31  1  0
 10 11  1  0
 10 25  1  0
 10 26  1  0
 11 27  1  0
 11 28  1  0
 12 13  2  0
 12 29  1  0
 13 14  1  0
 13 30  1  0
 14 32  1  0
M  CHG  2   9   1  14   1
M  END
>  <i_m_ct_stereo_status>  (285) 
1

>  <s_m_source_file>  (285) 
/var/tmp/pbs.5076255.sched01/tmpt85fkz7r/123fjz13bl5.sdf

>  <i_m_source_file_index>  (285) 
14

>  <i_lp_mmshare_version>  (285) 
48012

>  <i_f3d_flags>  (285) 
0

>  <s_epik_input>  (285) 
W2NIXTFbY0hdbltjSF1bY0hdYzFbQ0BIXShbQ0gyXTIpQzIzW0NIMl1bQ0gyXVtOSF1bQ0gyXVtDSDJdMw==

>  <s_epik_cmdline>  (285) 
J2VwaWtfcHl0aG9uJywgJy1waHQnLCAnMi4wJywgJy1waCcsICc3LjAnLCAnLXRuJywgJzgnLCAnLW1hJywgJzIwMCcsICctaW1hZScsICc8aW5maWxlLm1hZT4nLCAnLW9tYWUnLCAnPG91dGZpbGUubWFlPic=

>  <r_epik_Ionization_Penalty>  (285) 
2.21347

>  <r_epik_Ionization_Penalty_Charging>  (285) 
2.21347

>  <r_epik_Ionization_Penalty_Neutral>  (285) 
0

>  <r_epik_State_Penalty>  (285) 
2.35725

>  <r_epik_Charging_Adjusted_Penalty>  (285) 
4.57072

>  <i_epik_Tot_Q>  (285) 
2

>  <i_epik_Tot_abs_Q>  (285) 
2

>  <s_lp_Force_Field>  (285) 
OPLS3e

>  <r_lp_Energy>  (285) 
23.1111

>  <b_lp_Chiralities_Consistent>  (285) 
1

>  <s_lp_Variant>  (285) 
99:0-2

>  <s_i_glide_gridfile>  (285) 
pfpi4k_grid

>  <i_i_glide_lignum>  (285) 
14

>  <i_i_glide_rotatable_bonds>  (285) 
1

>  <r_i_docking_score>  (285) 
-3.94604

>  <r_i_glide_ligand_efficiency>  (285) 
-0.28186

>  <r_i_glide_ligand_efficiency_sa>  (285) 
-0.679322

>  <r_i_glide_ligand_efficiency_ln>  (285) 
-1.08436

>  <r_i_glide_gscore>  (285) 
-3.94604

>  <r_i_glide_lipo>  (285) 
-0.280787

>  <r_i_glide_hbond>  (285) 
0

>  <r_i_glide_metal>  (285) 
-0

>  <r_i_glide_rewards>  (285) 
-2.1117

>  <r_i_glide_evdw>  (285) 
-17.8931

>  <r_i_glide_ecoul>  (285) 
-7.28028

>  <r_i_glide_erotb>  (285) 
0.443545

>  <r_i_glide_esite>  (285) 
-0.0104036

>  <r_i_glide_emodel>  (285) 
-30.906

>  <r_i_glide_energy>  (285) 
-25.1733

>  <r_i_glide_einternal>  (285) 
0.271192

>  <r_i_glide_intrahb_reward>  (285) 
-0

>  <i_i_glide_confnum>  (285) 
4

>  <i_i_glide_posenum>  (285) 
26

>  <r_i_glide_eff_state_penalty>  (285) 
0

>  <ligand_id>  (285) 
99

>  <original_smiles>  (285) 
c1cc(C2CC23CCNCC3)ccn1

>  <smiles>  (285) 
[H]c1c(C2([H])C([H])([H])C23C([H])([H])C([H])([H])[N+]([H])([H])C([H])([H])C3([H])[H])c([H])c([H])[n+]([H])c1[H]

$$$$
101:0:0
     RDKit          3D

 24 27  0  0  1  0  0  0  0  0999 V2000
    4.9238   -0.2532    0.7864 O   0  0  0  0  0  0  0  0  0  0  0  0
    4.3539   -1.2722    0.4225 C   0  0  0  0  0  0  0  0  0  0  0  0
    3.4700   -1.9769    1.1234 O   0  0  0  0  0  0  0  0  0  0  0  0
    2.9772   -3.1263    0.4600 C   0  0  0  0  0  0  0  0  0  0  0  0
    3.8608   -3.2737   -0.7892 C   0  0  2  0  0  0  0  0  0  0  0  0
    4.6318   -1.9593   -0.9050 C   0  0  1  0  0  0  0  0  0  0  0  0
    4.0372   -1.2748   -2.1542 C   0  0  1  0  0  0  0  0  0  0  0  0
    4.1903   -1.9913   -3.5127 C   0  0  1  0  0  0  0  0  0  0  0  0
    4.0702   -3.4642   -3.2806 C   0  0  0  0  0  0  0  0  0  0  0  0
    3.0764   -3.2875   -2.1133 C   0  0  2  0  0  0  0  0  0  0  0  0
    2.7114   -1.8655   -2.3170 N   0  0  2  0  0  0  0  0  0  0  0  0
    2.7825   -1.4799   -3.7199 C   0  0  0  0  0  0  0  0  0  0  0  0
    3.0213   -4.0103    1.0981 H   0  0  0  0  0  0  0  0  0  0  0  0
    1.9328   -2.9511    0.1973 H   0  0  0  0  0  0  0  0  0  0  0  0
    4.5274   -4.1344   -0.6933 H   0  0  0  0  0  0  0  0  0  0  0  0
    5.7027   -2.1309   -1.0089 H   0  0  0  0  0  0  0  0  0  0  0  0
    4.0715   -0.1823   -2.1917 H   0  0  0  0  0  0  0  0  0  0  0  0
    4.9372   -1.6134   -4.2088 H   0  0  0  0  0  0  0  0  0  0  0  0
    3.6307   -3.9845   -4.1347 H   0  0  0  0  0  0  0  0  0  0  0  0
    5.0121   -3.9490   -3.0136 H   0  0  0  0  0  0  0  0  0  0  0  0
    2.2195   -3.9592   -2.1445 H   0  0  0  0  0  0  0  0  0  0  0  0
    2.6649   -0.4165   -3.9341 H   0  0  0  0  0  0  0  0  0  0  0  0
    2.1429   -2.1149   -4.3269 H   0  0  0  0  0  0  0  0  0  0  0  0
    1.9682   -1.4691   -1.7337 H   0  0  0  0  0  0  0  0  0  0  0  0
  1  2  2  0
  2  6  1  0
  2  3  1  0
  3  4  1  0
  4  5  1  0
  4 13  1  0
  4 14  1  0
  5 10  1  0
  5  6  1  0
  5 15  1  1
  6  7  1  0
  6 16  1  6
  7 11  1  0
  7  8  1  0
  7 17  1  6
  8 12  1  0
  8  9  1  0
  8 18  1  6
  9 10  1  0
  9 19  1  0
  9 20  1  0
 10 11  1  0
 10 21  1  1
 11 12  1  0
 11 24  1  1
 12 22  1  0
 12 23  1  0
M  CHG  1  11   1
M  END
>  <i_m_ct_stereo_status>  (286) 
1

>  <s_m_source_file>  (286) 
/var/tmp/pbs.5076255.sched01/tmpt85fkz7r/123fjz13bl5.sdf

>  <i_m_source_file_index>  (286) 
16

>  <i_lp_mmshare_version>  (286) 
48012

>  <i_f3d_flags>  (286) 
0

>  <s_epik_input>  (286) 
W0NIMl0xT0MoPU8pW0NAQEhdKFtDQEBIXTEyKVtDQEhdM1tDQEhdNFtDSDJdW0NAQEhdMk4zW0NIMl00

>  <s_epik_cmdline>  (286) 
J2VwaWtfcHl0aG9uJywgJy1waHQnLCAnMi4wJywgJy1waCcsICc3LjAnLCAnLXRuJywgJzgnLCAnLW1hJywgJzIwMCcsICctaW1hZScsICc8aW5maWxlLm1hZT4nLCAnLW9tYWUnLCAnPG91dGZpbGUubWFlPic=

>  <r_epik_Ionization_Penalty>  (286) 
0.0100689

>  <r_epik_Ionization_Penalty_Charging>  (286) 
0.0100689

>  <r_epik_Ionization_Penalty_Neutral>  (286) 
0

>  <r_epik_State_Penalty>  (286) 
0.00768062

>  <r_epik_Charging_Adjusted_Penalty>  (286) 
0.0177495

>  <i_epik_Tot_Q>  (286) 
1

>  <i_epik_Tot_abs_Q>  (286) 
1

>  <s_epik_Chemistry_Notes>  (286) 
This compound has an ester and may undergo hydrolysis at high or low pH.

>  <s_lp_Force_Field>  (286) 
OPLS3e

>  <r_lp_Energy>  (286) 
46.1579

>  <b_lp_Chiralities_Consistent>  (286) 
1

>  <s_lp_Variant>  (286) 
101:0-1

>  <s_i_glide_gridfile>  (286) 
pfpi4k_grid

>  <i_i_glide_lignum>  (286) 
16

>  <i_i_glide_rotatable_bonds>  (286) 
0

>  <r_i_docking_score>  (286) 
-4.85985

>  <r_i_glide_ligand_efficiency>  (286) 
-0.404988

>  <r_i_glide_ligand_efficiency_sa>  (286) 
-0.92719

>  <r_i_glide_ligand_efficiency_ln>  (286) 
-1.39454

>  <r_i_glide_gscore>  (286) 
-4.85985

>  <r_i_glide_lipo>  (286) 
-0.417732

>  <r_i_glide_hbond>  (286) 
-0.2

>  <r_i_glide_metal>  (286) 
-0

>  <r_i_glide_rewards>  (286) 
-2.25

>  <r_i_glide_evdw>  (286) 
-16.2463

>  <r_i_glide_ecoul>  (286) 
-7.33248

>  <r_i_glide_erotb>  (286) 
0

>  <r_i_glide_esite>  (286) 
-0.0799315

>  <r_i_glide_emodel>  (286) 
-32.6174

>  <r_i_glide_energy>  (286) 
-23.5788

>  <r_i_glide_einternal>  (286) 
0

>  <r_i_glide_intrahb_reward>  (286) 
-0

>  <i_i_glide_confnum>  (286) 
2

>  <i_i_glide_posenum>  (286) 
5

>  <r_i_glide_eff_state_penalty>  (286) 
0

>  <ligand_id>  (286) 
101

>  <original_smiles>  (286) 
O=C1OCC2C1C1C3CC2N1C3

>  <smiles>  (286) 
[H]C1([H])OC(=O)C2([H])C1([H])C1([H])C([H])([H])C3([H])C([H])([H])[N+]1([H])C23[H]

$$$$
101:0:1
     RDKit          3D

 24 27  0  0  1  0  0  0  0  0999 V2000
    6.0395   -1.1175    0.4042 O   0  0  0  0  0  0  0  0  0  0  0  0
    5.1417   -1.8657    0.0224 C   0  0  0  0  0  0  0  0  0  0  0  0
    4.1892   -2.4241    0.7675 O   0  0  0  0  0  0  0  0  0  0  0  0
    3.2688   -3.2257    0.0434 C   0  0  0  0  0  0  0  0  0  0  0  0
    3.8795   -3.3607   -1.3630 C   0  0  2  0  0  0  0  0  0  0  0  0
    4.9988   -2.3197   -1.4173 C   0  0  1  0  0  0  0  0  0  0  0  0
    4.4656   -1.2510   -2.3872 C   0  0  1  0  0  0  0  0  0  0  0  0
    4.2125   -1.6801   -3.8505 C   0  0  1  0  0  0  0  0  0  0  0  0
    3.6690   -3.0887   -3.8446 C   0  0  0  0  0  0  0  0  0  0  0  0
    2.9497   -2.8938   -2.4991 C   0  0  2  0  0  0  0  0  0  0  0  0
    3.0127   -1.4126   -2.3945 N   0  0  2  0  0  0  0  0  0  0  0  0
    3.0280   -0.7573   -3.7043 C   0  0  0  0  0  0  0  0  0  0  0  0
    3.1175   -4.2008    0.5089 H   0  0  0  0  0  0  0  0  0  0  0  0
    2.3037   -2.7148    0.0153 H   0  0  0  0  0  0  0  0  0  0  0  0
    4.2585   -4.3696   -1.5296 H   0  0  0  0  0  0  0  0  0  0  0  0
    5.9398   -2.7562   -1.7545 H   0  0  0  0  0  0  0  0  0  0  0  0
    4.8431   -0.2293   -2.2631 H   0  0  0  0  0  0  0  0  0  0  0  0
    4.9321   -1.3806   -4.6077 H   0  0  0  0  0  0  0  0  0  0  0  0
    2.9807   -3.2685   -4.6731 H   0  0  0  0  0  0  0  0  0  0  0  0
    4.4484   -3.8571   -3.8419 H   0  0  0  0  0  0  0  0  0  0  0  0
    1.9356   -3.2952   -2.4763 H   0  0  0  0  0  0  0  0  0  0  0  0
    3.2343    0.3155   -3.7146 H   0  0  0  0  0  0  0  0  0  0  0  0
    2.2133   -1.0324   -4.3632 H   0  0  0  0  0  0  0  0  0  0  0  0
    2.4697   -0.9790   -1.6467 H   0  0  0  0  0  0  0  0  0  0  0  0
  1  2  2  0
  2  6  1  0
  2  3  1  0
  3  4  1  0
  4  5  1  0
  4 13  1  0
  4 14  1  0
  5 10  1  0
  5  6  1  0
  5 15  1  6
  6  7  1  0
  6 16  1  6
  7 11  1  0
  7  8  1  0
  7 17  1  6
  8 12  1  0
  8  9  1  0
  8 18  1  6
  9 10  1  0
  9 19  1  0
  9 20  1  0
 10 11  1  0
 10 21  1  6
 11 12  1  0
 11 24  1  1
 12 22  1  0
 12 23  1  0
M  CHG  1  11   1
M  END
>  <i_m_ct_stereo_status>  (287) 
1

>  <s_m_source_file>  (287) 
/var/tmp/pbs.5076255.sched01/tmpt85fkz7r/123fjz13bl5.sdf

>  <i_m_source_file_index>  (287) 
16

>  <i_lp_mmshare_version>  (287) 
48012

>  <i_f3d_flags>  (287) 
0

>  <s_epik_input>  (287) 
W0NIMl0xT0MoPU8pW0NAQEhdKFtDQEBIXTEyKVtDQEhdM1tDQEhdNFtDSDJdW0NAQEhdMk4zW0NIMl00

>  <s_epik_cmdline>  (287) 
J2VwaWtfcHl0aG9uJywgJy1waHQnLCAnMi4wJywgJy1waCcsICc3LjAnLCAnLXRuJywgJzgnLCAnLW1hJywgJzIwMCcsICctaW1hZScsICc8aW5maWxlLm1hZT4nLCAnLW9tYWUnLCAnPG91dGZpbGUubWFlPic=

>  <r_epik_Ionization_Penalty>  (287) 
0.0100689

>  <r_epik_Ionization_Penalty_Charging>  (287) 
0.0100689

>  <r_epik_Ionization_Penalty_Neutral>  (287) 
0

>  <r_epik_State_Penalty>  (287) 
0.00768062

>  <r_epik_Charging_Adjusted_Penalty>  (287) 
0.0177495

>  <i_epik_Tot_Q>  (287) 
1

>  <i_epik_Tot_abs_Q>  (287) 
1

>  <s_epik_Chemistry_Notes>  (287) 
This compound has an ester and may undergo hydrolysis at high or low pH.

>  <s_lp_Force_Field>  (287) 
OPLS3e

>  <r_lp_Energy>  (287) 
46.1579

>  <b_lp_Chiralities_Consistent>  (287) 
1

>  <s_lp_Variant>  (287) 
101:0-1

>  <s_i_glide_gridfile>  (287) 
pfpi4k_grid

>  <i_i_glide_lignum>  (287) 
16

>  <i_i_glide_rotatable_bonds>  (287) 
0

>  <r_i_docking_score>  (287) 
-4.79953

>  <r_i_glide_ligand_efficiency>  (287) 
-0.399961

>  <r_i_glide_ligand_efficiency_sa>  (287) 
-0.915682

>  <r_i_glide_ligand_efficiency_ln>  (287) 
-1.37723

>  <r_i_glide_gscore>  (287) 
-4.79953

>  <r_i_glide_lipo>  (287) 
-0.421984

>  <r_i_glide_hbond>  (287) 
-0.167852

>  <r_i_glide_metal>  (287) 
-0

>  <r_i_glide_rewards>  (287) 
-2.254

>  <r_i_glide_evdw>  (287) 
-19.8058

>  <r_i_glide_ecoul>  (287) 
-5.88989

>  <r_i_glide_erotb>  (287) 
0

>  <r_i_glide_esite>  (287) 
-0.0819177

>  <r_i_glide_emodel>  (287) 
-34.5975

>  <r_i_glide_energy>  (287) 
-25.6957

>  <r_i_glide_einternal>  (287) 
0

>  <r_i_glide_intrahb_reward>  (287) 
-0

>  <i_i_glide_confnum>  (287) 
1

>  <i_i_glide_posenum>  (287) 
36

>  <r_i_glide_eff_state_penalty>  (287) 
0

>  <ligand_id>  (287) 
101

>  <original_smiles>  (287) 
O=C1OCC2C1C1C3CC2N1C3

>  <smiles>  (287) 
[H]C1([H])OC(=O)C2([H])C1([H])C1([H])C([H])([H])C3([H])C([H])([H])[N+]1([H])C23[H]

$$$$
101:0:2
     RDKit          3D

 24 27  0  0  1  0  0  0  0  0999 V2000
    1.8215   -5.2092    0.3195 O   0  0  0  0  0  0  0  0  0  0  0  0
    2.9260   -4.7358    0.0745 C   0  0  0  0  0  0  0  0  0  0  0  0
    4.0780   -5.3685    0.2262 O   0  0  0  0  0  0  0  0  0  0  0  0
    5.2029   -4.6326   -0.2019 C   0  0  0  0  0  0  0  0  0  0  0  0
    4.6770   -3.2091   -0.4660 C   0  0  2  0  0  0  0  0  0  0  0  0
    3.1507   -3.3318   -0.4676 C   0  0  1  0  0  0  0  0  0  0  0  0
    2.7519   -3.0845   -1.9372 C   0  0  1  0  0  0  0  0  0  0  0  0
    3.1113   -1.7402   -2.5814 C   0  0  1  0  0  0  0  0  0  0  0  0
    4.4329   -1.2740   -2.0201 C   0  0  0  0  0  0  0  0  0  0  0  0
    4.9630   -2.7076   -1.8852 C   0  0  2  0  0  0  0  0  0  0  0  0
    3.9440   -3.4349   -2.7073 N   0  0  2  0  0  0  0  0  0  0  0  0
    3.3980   -2.6020   -3.7822 C   0  0  0  0  0  0  0  0  0  0  0  0
    5.9992   -4.6565    0.5438 H   0  0  0  0  0  0  0  0  0  0  0  0
    5.5726   -5.0994   -1.1165 H   0  0  0  0  0  0  0  0  0  0  0  0
    5.0317   -2.5125    0.2920 H   0  0  0  0  0  0  0  0  0  0  0  0
    2.6814   -2.6046    0.1932 H   0  0  0  0  0  0  0  0  0  0  0  0
    1.8186   -3.5355   -2.2976 H   0  0  0  0  0  0  0  0  0  0  0  0
    2.3100   -1.0248   -2.7104 H   0  0  0  0  0  0  0  0  0  0  0  0
    4.9843   -0.6559   -2.7360 H   0  0  0  0  0  0  0  0  0  0  0  0
    4.3264   -0.7300   -1.0723 H   0  0  0  0  0  0  0  0  0  0  0  0
    5.9849   -2.8270   -2.2350 H   0  0  0  0  0  0  0  0  0  0  0  0
    2.5211   -2.9917   -4.3041 H   0  0  0  0  0  0  0  0  0  0  0  0
    4.1490   -2.1853   -4.4500 H   0  0  0  0  0  0  0  0  0  0  0  0
    4.0392   -4.4346   -2.8658 H   0  0  0  0  0  0  0  0  0  0  0  0
  1  2  2  0
  2  6  1  0
  2  3  1  0
  3  4  1  0
  4  5  1  0
  4 13  1  0
  4 14  1  0
  5 10  1  0
  5  6  1  0
  5 15  1  1
  6  7  1  0
  6 16  1  1
  7 11  1  0
  7  8  1  0
  7 17  1  6
  8 12  1  0
  8  9  1  0
  8 18  1  6
  9 10  1  0
  9 19  1  0
  9 20  1  0
 10 11  1  0
 10 21  1  6
 11 12  1  0
 11 24  1  6
 12 22  1  0
 12 23  1  0
M  CHG  1  11   1
M  END
>  <i_m_ct_stereo_status>  (288) 
1

>  <s_m_source_file>  (288) 
/var/tmp/pbs.5076255.sched01/tmpt85fkz7r/123fjz13bl5.sdf

>  <i_m_source_file_index>  (288) 
16

>  <i_lp_mmshare_version>  (288) 
48012

>  <i_f3d_flags>  (288) 
0

>  <s_epik_input>  (288) 
W0NIMl0xT0MoPU8pW0NAQEhdKFtDQEBIXTEyKVtDQEhdM1tDQEhdNFtDSDJdW0NAQEhdMk4zW0NIMl00

>  <s_epik_cmdline>  (288) 
J2VwaWtfcHl0aG9uJywgJy1waHQnLCAnMi4wJywgJy1waCcsICc3LjAnLCAnLXRuJywgJzgnLCAnLW1hJywgJzIwMCcsICctaW1hZScsICc8aW5maWxlLm1hZT4nLCAnLW9tYWUnLCAnPG91dGZpbGUubWFlPic=

>  <r_epik_Ionization_Penalty>  (288) 
0.0100689

>  <r_epik_Ionization_Penalty_Charging>  (288) 
0.0100689

>  <r_epik_Ionization_Penalty_Neutral>  (288) 
0

>  <r_epik_State_Penalty>  (288) 
0.00768062

>  <r_epik_Charging_Adjusted_Penalty>  (288) 
0.0177495

>  <i_epik_Tot_Q>  (288) 
1

>  <i_epik_Tot_abs_Q>  (288) 
1

>  <s_epik_Chemistry_Notes>  (288) 
This compound has an ester and may undergo hydrolysis at high or low pH.

>  <s_lp_Force_Field>  (288) 
OPLS3e

>  <r_lp_Energy>  (288) 
46.1579

>  <b_lp_Chiralities_Consistent>  (288) 
1

>  <s_lp_Variant>  (288) 
101:0-1

>  <s_i_glide_gridfile>  (288) 
pfpi4k_grid

>  <i_i_glide_lignum>  (288) 
16

>  <i_i_glide_rotatable_bonds>  (288) 
0

>  <r_i_docking_score>  (288) 
-4.44085

>  <r_i_glide_ligand_efficiency>  (288) 
-0.370071

>  <r_i_glide_ligand_efficiency_sa>  (288) 
-0.847251

>  <r_i_glide_ligand_efficiency_ln>  (288) 
-1.27431

>  <r_i_glide_gscore>  (288) 
-4.44085

>  <r_i_glide_lipo>  (288) 
-0.327151

>  <r_i_glide_hbond>  (288) 
-0.0853623

>  <r_i_glide_metal>  (288) 
-0

>  <r_i_glide_rewards>  (288) 
-2.25

>  <r_i_glide_evdw>  (288) 
-16.6096

>  <r_i_glide_ecoul>  (288) 
-5.84424

>  <r_i_glide_erotb>  (288) 
0

>  <r_i_glide_esite>  (288) 
-0.0712266

>  <r_i_glide_emodel>  (288) 
-30.7056

>  <r_i_glide_energy>  (288) 
-22.4538

>  <r_i_glide_einternal>  (288) 
0

>  <r_i_glide_intrahb_reward>  (288) 
-0

>  <i_i_glide_confnum>  (288) 
1

>  <i_i_glide_posenum>  (288) 
13

>  <r_i_glide_eff_state_penalty>  (288) 
0

>  <ligand_id>  (288) 
101

>  <original_smiles>  (288) 
O=C1OCC2C1C1C3CC2N1C3

>  <smiles>  (288) 
[H]C1([H])OC(=O)C2([H])C1([H])C1([H])C([H])([H])C3([H])C([H])([H])[N+]1([H])C23[H]

$$$$
101:1:0
     RDKit          3D

 23 26  0  0  1  0  0  0  0  0999 V2000
    7.7463   -3.0907   -1.1564 O   0  0  0  0  0  0  0  0  0  0  0  0
    6.6460   -2.6464   -0.8422 C   0  0  0  0  0  0  0  0  0  0  0  0
    6.4157   -1.6791    0.0500 O   0  0  0  0  0  0  0  0  0  0  0  0
    5.0465   -1.3256    0.1853 C   0  0  0  0  0  0  0  0  0  0  0  0
    4.2861   -2.3847   -0.6336 C   0  0  2  0  0  0  0  0  0  0  0  0
    5.3369   -3.1537   -1.4177 C   0  0  1  0  0  0  0  0  0  0  0  0
    5.0612   -2.7292   -2.8612 C   0  0  1  0  0  0  0  0  0  0  0  0
    3.7072   -3.0404   -3.5318 C   0  0  1  0  0  0  0  0  0  0  0  0
    2.6677   -2.9384   -2.4851 C   0  0  0  0  0  0  0  0  0  0  0  0
    3.4142   -1.8000   -1.7538 C   0  0  2  0  0  0  0  0  0  0  0  0
    4.4345   -1.4119   -2.7506 N   0  0  0  0  0  0  0  0  0  0  0  0
    3.8625   -1.6320   -4.0747 C   0  0  0  0  0  0  0  0  0  0  0  0
    4.7249   -1.3072    1.2300 H   0  0  0  0  0  0  0  0  0  0  0  0
    4.9128   -0.3141   -0.2096 H   0  0  0  0  0  0  0  0  0  0  0  0
    3.7206   -3.0502    0.0157 H   0  0  0  0  0  0  0  0  0  0  0  0
    5.2683   -4.2304   -1.2838 H   0  0  0  0  0  0  0  0  0  0  0  0
    5.9174   -2.6958   -3.5310 H   0  0  0  0  0  0  0  0  0  0  0  0
    3.6678   -3.8610   -4.2468 H   0  0  0  0  0  0  0  0  0  0  0  0
    1.6927   -2.6369   -2.8749 H   0  0  0  0  0  0  0  0  0  0  0  0
    2.5560   -3.8453   -1.8906 H   0  0  0  0  0  0  0  0  0  0  0  0
    2.7753   -0.9652   -1.4610 H   0  0  0  0  0  0  0  0  0  0  0  0
    4.6065   -1.4728   -4.8578 H   0  0  0  0  0  0  0  0  0  0  0  0
    2.9367   -1.0709   -4.2215 H   0  0  0  0  0  0  0  0  0  0  0  0
  1  2  2  0
  2  6  1  0
  2  3  1  0
  3  4  1  0
  4  5  1  0
  4 13  1  0
  4 14  1  0
  5 10  1  0
  5  6  1  0
  5 15  1  1
  6  7  1  0
  6 16  1  6
  7 11  1  0
  7  8  1  0
  7 17  1  6
  8 12  1  0
  8  9  1  0
  8 18  1  6
  9 10  1  0
  9 19  1  0
  9 20  1  0
 10 11  1  0
 10 21  1  1
 11 12  1  0
 12 22  1  0
 12 23  1  0
M  END
>  <i_m_ct_stereo_status>  (289) 
1

>  <s_m_source_file>  (289) 
/var/tmp/pbs.5076255.sched01/tmpt85fkz7r/123fjz13bl5.sdf

>  <i_m_source_file_index>  (289) 
17

>  <i_lp_mmshare_version>  (289) 
48012

>  <i_f3d_flags>  (289) 
0

>  <s_epik_input>  (289) 
W0NIMl0xT0MoPU8pW0NAQEhdKFtDQEBIXTEyKVtDQEhdM1tDQEhdNFtDSDJdW0NAQEhdMk4zW0NIMl00

>  <s_epik_cmdline>  (289) 
J2VwaWtfcHl0aG9uJywgJy1waHQnLCAnMi4wJywgJy1waCcsICc3LjAnLCAnLXRuJywgJzgnLCAnLW1hJywgJzIwMCcsICctaW1hZScsICc8aW5maWxlLm1hZT4nLCAnLW9tYWUnLCAnPG91dGZpbGUubWFlPic=

>  <r_epik_Ionization_Penalty>  (289) 
2.41933

>  <r_epik_Ionization_Penalty_Charging>  (289) 
0

>  <r_epik_Ionization_Penalty_Neutral>  (289) 
2.41933

>  <r_epik_State_Penalty>  (289) 
2.57856

>  <r_epik_Charging_Adjusted_Penalty>  (289) 
2.57856

>  <i_epik_Tot_Q>  (289) 
0

>  <i_epik_Tot_abs_Q>  (289) 
0

>  <s_epik_Chemistry_Notes>  (289) 
This compound has an ester and may undergo hydrolysis at high or low pH.

>  <s_lp_Force_Field>  (289) 
OPLS3e

>  <r_lp_Energy>  (289) 
31.9971

>  <b_lp_Chiralities_Consistent>  (289) 
1

>  <s_lp_Variant>  (289) 
101:0-2

>  <s_i_glide_gridfile>  (289) 
pfpi4k_grid

>  <i_i_glide_lignum>  (289) 
17

>  <i_i_glide_rotatable_bonds>  (289) 
0

>  <r_i_docking_score>  (289) 
-4.05309

>  <r_i_glide_ligand_efficiency>  (289) 
-0.337758

>  <r_i_glide_ligand_efficiency_sa>  (289) 
-0.773273

>  <r_i_glide_ligand_efficiency_ln>  (289) 
-1.16304

>  <r_i_glide_gscore>  (289) 
-4.05309

>  <r_i_glide_lipo>  (289) 
-0.444891

>  <r_i_glide_hbond>  (289) 
0

>  <r_i_glide_metal>  (289) 
-0

>  <r_i_glide_rewards>  (289) 
-2.25

>  <r_i_glide_evdw>  (289) 
-22.0325

>  <r_i_glide_ecoul>  (289) 
-1.57673

>  <r_i_glide_erotb>  (289) 
0

>  <r_i_glide_esite>  (289) 
-0.0200719

>  <r_i_glide_emodel>  (289) 
-29.4886

>  <r_i_glide_energy>  (289) 
-23.6092

>  <r_i_glide_einternal>  (289) 
0

>  <r_i_glide_intrahb_reward>  (289) 
-0

>  <i_i_glide_confnum>  (289) 
1

>  <i_i_glide_posenum>  (289) 
20

>  <r_i_glide_eff_state_penalty>  (289) 
0

>  <ligand_id>  (289) 
101

>  <original_smiles>  (289) 
O=C1OCC2C1C1C3CC2N1C3

>  <smiles>  (289) 
[H]C1([H])OC(=O)C2([H])C3([H])N4C([H])([H])C3([H])C([H])([H])C4([H])C12[H]

$$$$
101:1:1
     RDKit          3D

 23 26  0  0  1  0  0  0  0  0999 V2000
    1.8927   -5.2491    0.1020 O   0  0  0  0  0  0  0  0  0  0  0  0
    2.9987   -4.7089    0.0774 C   0  0  0  0  0  0  0  0  0  0  0  0
    4.1530   -5.2632    0.4474 O   0  0  0  0  0  0  0  0  0  0  0  0
    5.2817   -4.4304    0.2527 C   0  0  0  0  0  0  0  0  0  0  0  0
    4.7006   -3.0491   -0.0851 C   0  0  2  0  0  0  0  0  0  0  0  0
    3.2255   -3.2739   -0.3832 C   0  0  1  0  0  0  0  0  0  0  0  0
    3.1379   -2.9895   -1.8919 C   0  0  1  0  0  0  0  0  0  0  0  0
    3.4761   -1.5734   -2.4150 C   0  0  1  0  0  0  0  0  0  0  0  0
    4.5951   -1.0487   -1.6007 C   0  0  0  0  0  0  0  0  0  0  0  0
    5.2147   -2.4441   -1.4043 C   0  0  2  0  0  0  0  0  0  0  0  0
    4.4806   -3.2341   -2.4238 N   0  0  0  0  0  0  0  0  0  0  0  0
    4.1256   -2.3544   -3.5374 C   0  0  0  0  0  0  0  0  0  0  0  0
    5.9073   -4.4048    1.1469 H   0  0  0  0  0  0  0  0  0  0  0  0
    5.8800   -4.8342   -0.5654 H   0  0  0  0  0  0  0  0  0  0  0  0
    4.8313   -2.3661    0.7539 H   0  0  0  0  0  0  0  0  0  0  0  0
    2.5877   -2.6023    0.1854 H   0  0  0  0  0  0  0  0  0  0  0  0
    2.3923   -3.5374   -2.4757 H   0  0  0  0  0  0  0  0  0  0  0  0
    2.6412   -0.9151   -2.6730 H   0  0  0  0  0  0  0  0  0  0  0  0
    5.2328   -0.3679   -2.1653 H   0  0  0  0  0  0  0  0  0  0  0  0
    4.2723   -0.5683   -0.6783 H   0  0  0  0  0  0  0  0  0  0  0  0
    6.2980   -2.4624   -1.5247 H   0  0  0  0  0  0  0  0  0  0  0  0
    3.4559   -2.8354   -4.2521 H   0  0  0  0  0  0  0  0  0  0  0  0
    5.0037   -1.8864   -3.9801 H   0  0  0  0  0  0  0  0  0  0  0  0
  1  2  2  0
  2  6  1  0
  2  3  1  0
  3  4  1  0
  4  5  1  0
  4 13  1  0
  4 14  1  0
  5 10  1  0
  5  6  1  0
  5 15  1  1
  6  7  1  0
  6 16  1  1
  7 11  1  0
  7  8  1  0
  7 17  1  6
  8 12  1  0
  8  9  1  0
  8 18  1  6
  9 10  1  0
  9 19  1  0
  9 20  1  0
 10 11  1  0
 10 21  1  6
 11 12  1  0
 12 22  1  0
 12 23  1  0
M  END
>  <i_m_ct_stereo_status>  (290) 
1

>  <s_m_source_file>  (290) 
/var/tmp/pbs.5076255.sched01/tmpt85fkz7r/123fjz13bl5.sdf

>  <i_m_source_file_index>  (290) 
17

>  <i_lp_mmshare_version>  (290) 
48012

>  <i_f3d_flags>  (290) 
0

>  <s_epik_input>  (290) 
W0NIMl0xT0MoPU8pW0NAQEhdKFtDQEBIXTEyKVtDQEhdM1tDQEhdNFtDSDJdW0NAQEhdMk4zW0NIMl00

>  <s_epik_cmdline>  (290) 
J2VwaWtfcHl0aG9uJywgJy1waHQnLCAnMi4wJywgJy1waCcsICc3LjAnLCAnLXRuJywgJzgnLCAnLW1hJywgJzIwMCcsICctaW1hZScsICc8aW5maWxlLm1hZT4nLCAnLW9tYWUnLCAnPG91dGZpbGUubWFlPic=

>  <r_epik_Ionization_Penalty>  (290) 
2.41933

>  <r_epik_Ionization_Penalty_Charging>  (290) 
0

>  <r_epik_Ionization_Penalty_Neutral>  (290) 
2.41933

>  <r_epik_State_Penalty>  (290) 
2.57856

>  <r_epik_Charging_Adjusted_Penalty>  (290) 
2.57856

>  <i_epik_Tot_Q>  (290) 
0

>  <i_epik_Tot_abs_Q>  (290) 
0

>  <s_epik_Chemistry_Notes>  (290) 
This compound has an ester and may undergo hydrolysis at high or low pH.

>  <s_lp_Force_Field>  (290) 
OPLS3e

>  <r_lp_Energy>  (290) 
31.9971

>  <b_lp_Chiralities_Consistent>  (290) 
1

>  <s_lp_Variant>  (290) 
101:0-2

>  <s_i_glide_gridfile>  (290) 
pfpi4k_grid

>  <i_i_glide_lignum>  (290) 
17

>  <i_i_glide_rotatable_bonds>  (290) 
0

>  <r_i_docking_score>  (290) 
-3.7114

>  <r_i_glide_ligand_efficiency>  (290) 
-0.309283

>  <r_i_glide_ligand_efficiency_sa>  (290) 
-0.708082

>  <r_i_glide_ligand_efficiency_ln>  (290) 
-1.06499

>  <r_i_glide_gscore>  (290) 
-3.7114

>  <r_i_glide_lipo>  (290) 
-0.313535

>  <r_i_glide_hbond>  (290) 
-0.063927

>  <r_i_glide_metal>  (290) 
-0

>  <r_i_glide_rewards>  (290) 
-2.25

>  <r_i_glide_evdw>  (290) 
-18.5257

>  <r_i_glide_ecoul>  (290) 
-0.821406

>  <r_i_glide_erotb>  (290) 
0

>  <r_i_glide_esite>  (290) 
-0.0344395

>  <r_i_glide_emodel>  (290) 
-24.5508

>  <r_i_glide_energy>  (290) 
-19.3471

>  <r_i_glide_einternal>  (290) 
0

>  <r_i_glide_intrahb_reward>  (290) 
-0

>  <i_i_glide_confnum>  (290) 
2

>  <i_i_glide_posenum>  (290) 
26

>  <r_i_glide_eff_state_penalty>  (290) 
0

>  <ligand_id>  (290) 
101

>  <original_smiles>  (290) 
O=C1OCC2C1C1C3CC2N1C3

>  <smiles>  (290) 
[H]C1([H])OC(=O)C2([H])C3([H])N4C([H])([H])C3([H])C([H])([H])C4([H])C12[H]

$$$$
101:1:2
     RDKit          3D

 23 26  0  0  1  0  0  0  0  0999 V2000
    3.4984   -4.0464    1.7377 O   0  0  0  0  0  0  0  0  0  0  0  0
    3.9266   -3.0213    1.2091 C   0  0  0  0  0  0  0  0  0  0  0  0
    4.8233   -2.1766    1.7215 O   0  0  0  0  0  0  0  0  0  0  0  0
    5.1290   -1.0764    0.8823 C   0  0  0  0  0  0  0  0  0  0  0  0
    4.0808   -1.1357   -0.2375 C   0  0  2  0  0  0  0  0  0  0  0  0
    3.4114   -2.4928   -0.1182 C   0  0  1  0  0  0  0  0  0  0  0  0
    3.8809   -3.2247   -1.3761 C   0  0  1  0  0  0  0  0  0  0  0  0
    3.4901   -2.6803   -2.7656 C   0  0  1  0  0  0  0  0  0  0  0  0
    3.5165   -1.2014   -2.6957 C   0  0  0  0  0  0  0  0  0  0  0  0
    4.6585   -1.1876   -1.6631 C   0  0  2  0  0  0  0  0  0  0  0  0
    5.1446   -2.5910   -1.7464 N   0  0  0  0  0  0  0  0  0  0  0  0
    4.9136   -3.0917   -3.1018 C   0  0  0  0  0  0  0  0  0  0  0  0
    5.0871   -0.1311    1.4271 H   0  0  0  0  0  0  0  0  0  0  0  0
    6.1447   -1.1992    0.5034 H   0  0  0  0  0  0  0  0  0  0  0  0
    3.3539   -0.3359   -0.1052 H   0  0  0  0  0  0  0  0  0  0  0  0
    2.3271   -2.4108   -0.0775 H   0  0  0  0  0  0  0  0  0  0  0  0
    4.0000   -4.3097   -1.3134 H   0  0  0  0  0  0  0  0  0  0  0  0
    2.6848   -3.1828   -3.3070 H   0  0  0  0  0  0  0  0  0  0  0  0
    3.7890   -0.7342   -3.6445 H   0  0  0  0  0  0  0  0  0  0  0  0
    2.5947   -0.7620   -2.3261 H   0  0  0  0  0  0  0  0  0  0  0  0
    5.4166   -0.4351   -1.8724 H   0  0  0  0  0  0  0  0  0  0  0  0
    5.1068   -4.1671   -3.1851 H   0  0  0  0  0  0  0  0  0  0  0  0
    5.4213   -2.4845   -3.8518 H   0  0  0  0  0  0  0  0  0  0  0  0
  1  2  2  0
  2  6  1  0
  2  3  1  0
  3  4  1  0
  4  5  1  0
  4 13  1  0
  4 14  1  0
  5 10  1  0
  5  6  1  0
  5 15  1  6
  6  7  1  0
  6 16  1  1
  7 11  1  0
  7  8  1  0
  7 17  1  1
  8 12  1  0
  8  9  1  0
  8 18  1  6
  9 10  1  0
  9 19  1  0
  9 20  1  0
 10 11  1  0
 10 21  1  6
 11 12  1  0
 12 22  1  0
 12 23  1  0
M  END
>  <i_m_ct_stereo_status>  (291) 
1

>  <s_m_source_file>  (291) 
/var/tmp/pbs.5076255.sched01/tmpt85fkz7r/123fjz13bl5.sdf

>  <i_m_source_file_index>  (291) 
17

>  <i_lp_mmshare_version>  (291) 
48012

>  <i_f3d_flags>  (291) 
0

>  <s_epik_input>  (291) 
W0NIMl0xT0MoPU8pW0NAQEhdKFtDQEBIXTEyKVtDQEhdM1tDQEhdNFtDSDJdW0NAQEhdMk4zW0NIMl00

>  <s_epik_cmdline>  (291) 
J2VwaWtfcHl0aG9uJywgJy1waHQnLCAnMi4wJywgJy1waCcsICc3LjAnLCAnLXRuJywgJzgnLCAnLW1hJywgJzIwMCcsICctaW1hZScsICc8aW5maWxlLm1hZT4nLCAnLW9tYWUnLCAnPG91dGZpbGUubWFlPic=

>  <r_epik_Ionization_Penalty>  (291) 
2.41933

>  <r_epik_Ionization_Penalty_Charging>  (291) 
0

>  <r_epik_Ionization_Penalty_Neutral>  (291) 
2.41933

>  <r_epik_State_Penalty>  (291) 
2.57856

>  <r_epik_Charging_Adjusted_Penalty>  (291) 
2.57856

>  <i_epik_Tot_Q>  (291) 
0

>  <i_epik_Tot_abs_Q>  (291) 
0

>  <s_epik_Chemistry_Notes>  (291) 
This compound has an ester and may undergo hydrolysis at high or low pH.

>  <s_lp_Force_Field>  (291) 
OPLS3e

>  <r_lp_Energy>  (291) 
31.9971

>  <b_lp_Chiralities_Consistent>  (291) 
1

>  <s_lp_Variant>  (291) 
101:0-2

>  <s_i_glide_gridfile>  (291) 
pfpi4k_grid

>  <i_i_glide_lignum>  (291) 
17

>  <i_i_glide_rotatable_bonds>  (291) 
0

>  <r_i_docking_score>  (291) 
-3.59519

>  <r_i_glide_ligand_efficiency>  (291) 
-0.299599

>  <r_i_glide_ligand_efficiency_sa>  (291) 
-0.685912

>  <r_i_glide_ligand_efficiency_ln>  (291) 
-1.03165

>  <r_i_glide_gscore>  (291) 
-3.59519

>  <r_i_glide_lipo>  (291) 
-0.283715

>  <r_i_glide_hbond>  (291) 
0

>  <r_i_glide_metal>  (291) 
-0

>  <r_i_glide_rewards>  (291) 
-2.25

>  <r_i_glide_evdw>  (291) 
-17.8732

>  <r_i_glide_ecoul>  (291) 
-1.11758

>  <r_i_glide_erotb>  (291) 
0

>  <r_i_glide_esite>  (291) 
-0.000180955

>  <r_i_glide_emodel>  (291) 
-24.1857

>  <r_i_glide_energy>  (291) 
-18.9908

>  <r_i_glide_einternal>  (291) 
0

>  <r_i_glide_intrahb_reward>  (291) 
-0

>  <i_i_glide_confnum>  (291) 
1

>  <i_i_glide_posenum>  (291) 
17

>  <r_i_glide_eff_state_penalty>  (291) 
0

>  <ligand_id>  (291) 
101

>  <original_smiles>  (291) 
O=C1OCC2C1C1C3CC2N1C3

>  <smiles>  (291) 
[H]C1([H])OC(=O)C2([H])C3([H])N4C([H])([H])C3([H])C([H])([H])C4([H])C12[H]

$$$$
102:0:0
     RDKit          3D

 49 53  0  0  1  0  0  0  0  0999 V2000
    6.1777   -4.5016    2.2758 C   0  0  0  0  0  0  0  0  0  0  0  0
    5.0921   -3.4772    2.0354 C   0  0  0  0  0  0  0  0  0  0  0  0
    4.2150   -3.6311    0.9356 C   0  0  0  0  0  0  0  0  0  0  0  0
    3.2147   -2.6658    0.6996 C   0  0  0  0  0  0  0  0  0  0  0  0
    3.0985   -1.5617    1.5658 C   0  0  0  0  0  0  0  0  0  0  0  0
    3.9504   -1.4071    2.6741 C   0  0  0  0  0  0  0  0  0  0  0  0
    4.9621   -2.3685    2.8988 C   0  0  0  0  0  0  0  0  0  0  0  0
    3.7973   -0.2127    3.5569 C   0  0  0  0  0  0  0  0  0  0  0  0
    4.6058    0.0767    4.4390 O   0  0  0  0  0  0  0  0  0  0  0  0
    2.5386    0.6802    3.4133 C   0  0  1  0  0  0  0  0  0  0  0  0
    1.5328    0.2675    4.5367 C   0  0  0  0  0  0  0  0  0  0  0  0
    0.1592    0.9874    4.5838 C   0  0  1  0  0  0  0  0  0  0  0  0
   -0.8686    0.4139    5.5527 C   0  0  0  0  0  0  0  0  0  0  0  0
   -0.9815   -0.7748    5.8426 O   0  0  0  0  0  0  0  0  0  0  0  0
   -1.6172    1.4122    6.0223 O   0  0  0  0  0  0  0  0  0  0  0  0
   -1.2123    2.6866    5.5440 C   0  0  1  0  0  0  0  0  0  0  0  0
   -1.3539    3.7358    6.6549 C   0  0  0  0  0  0  0  0  0  0  0  0
    0.2310    2.4152    5.0873 C   0  0  2  0  0  0  0  0  0  0  0  0
    0.7405    3.3563    4.0237 C   0  0  2  0  0  0  0  0  0  0  0  0
    2.1970    3.1685    3.7942 C   0  0  0  0  0  0  0  0  0  0  0  0
    2.9767    2.0895    3.5730 N   0  0  0  0  0  0  0  0  0  0  0  0
    2.4424    4.4794    3.7923 N   0  0  0  0  0  0  0  0  0  0  0  0
    1.1179    4.7914    4.3682 C   0  0  1  0  0  0  0  0  0  0  0  0
    0.4065    5.9125    3.6438 C   0  0  0  0  0  0  0  0  0  0  0  0
    1.8747    0.4929    2.0412 C   0  0  0  0  0  0  0  0  0  0  0  0
    1.0915    1.3512    1.6571 O   0  0  0  0  0  0  0  0  0  0  0  0
    2.1522   -0.5717    1.2792 N   0  0  0  0  0  0  0  0  0  0  0  0
    6.0249   -5.3963    1.6721 H   0  0  0  0  0  0  0  0  0  0  0  0
    6.1912   -4.7923    3.3277 H   0  0  0  0  0  0  0  0  0  0  0  0
    7.1501   -4.0859    2.0123 H   0  0  0  0  0  0  0  0  0  0  0  0
    4.3070   -4.4713    0.2622 H   0  0  0  0  0  0  0  0  0  0  0  0
    2.5489   -2.7630   -0.1473 H   0  0  0  0  0  0  0  0  0  0  0  0
    5.6470   -2.2561    3.7317 H   0  0  0  0  0  0  0  0  0  0  0  0
    1.3395   -0.7983    4.4147 H   0  0  0  0  0  0  0  0  0  0  0  0
    2.0239    0.3688    5.5039 H   0  0  0  0  0  0  0  0  0  0  0  0
   -0.3322    0.9535    3.6103 H   0  0  0  0  0  0  0  0  0  0  0  0
   -1.8392    2.9503    4.6886 H   0  0  0  0  0  0  0  0  0  0  0  0
   -1.0949    4.7342    6.3036 H   0  0  0  0  0  0  0  0  0  0  0  0
   -0.7142    3.4982    7.5036 H   0  0  0  0  0  0  0  0  0  0  0  0
   -2.3807    3.7638    7.0169 H   0  0  0  0  0  0  0  0  0  0  0  0
    0.8969    2.4456    5.9548 H   0  0  0  0  0  0  0  0  0  0  0  0
    0.2089    3.3157    3.0733 H   0  0  0  0  0  0  0  0  0  0  0  0
    1.1808    4.9158    5.4511 H   0  0  0  0  0  0  0  0  0  0  0  0
   -0.6329    5.9151    3.9488 H   0  0  0  0  0  0  0  0  0  0  0  0
    0.4174    5.7652    2.5615 H   0  0  0  0  0  0  0  0  0  0  0  0
    0.8294    6.8917    3.8750 H   0  0  0  0  0  0  0  0  0  0  0  0
    1.6104   -0.6712    0.3978 H   0  0  0  0  0  0  0  0  0  0  0  0
    3.9369    2.2578    3.3005 H   0  0  0  0  0  0  0  0  0  0  0  0
    3.3040    5.0042    3.8396 H   0  0  0  0  0  0  0  0  0  0  0  0
  1  2  1  0
  1 28  1  0
  1 29  1  0
  1 30  1  0
  2  7  2  0
  2  3  1  0
  3  4  2  0
  3 31  1  0
  4  5  1  0
  4 32  1  0
  5 27  1  0
  5  6  2  0
  6  7  1  0
  6  8  1  0
  7 33  1  0
  8  9  2  0
  8 10  1  0
 10 21  1  1
 10 11  1  0
 10 25  1  0
 11 12  1  0
 11 34  1  0
 11 35  1  0
 12 18  1  0
 12 13  1  0
 12 36  1  6
 13 14  2  0
 13 15  1  0
 15 16  1  0
 16 17  1  0
 16 18  1  0
 16 37  1  6
 17 38  1  0
 17 39  1  0
 17 40  1  0
 18 19  1  0
 18 41  1  1
 19 23  1  0
 19 20  1  0
 19 42  1  6
 20 21  1  0
 20 22  2  0
 21 48  1  0
 22 23  1  0
 22 49  1  0
 23 24  1  0
 23 43  1  1
 24 44  1  0
 24 45  1  0
 24 46  1  0
 25 26  2  0
 25 27  1  0
 27 47  1  0
M  CHG  1  22   1
M  END
>  <i_m_ct_stereo_status>  (292) 
1

>  <s_m_source_file>  (292) 
/var/tmp/pbs.5076255.sched01/tmpt85fkz7r/123fjz13bl5.sdf

>  <i_m_source_file_index>  (292) 
18

>  <i_lp_mmshare_version>  (292) 
48012

>  <i_f3d_flags>  (292) 
0

>  <s_epik_input>  (292) 
W0NIM11jKFtjSF0xKVtjSF1bY0hdYyhbTkhdQzI9TyljMUMoPU8pW0NAXTIzW0NIMl1bQ0BASF00W0NASF0oW0NASF0oW0NIM10pT0M0PU8pW0NAQEhdNUMoPU4zKVtOSF1bQ0BIXTVbQ0gzXQ==

>  <s_epik_cmdline>  (292) 
J2VwaWtfcHl0aG9uJywgJy1waHQnLCAnMi4wJywgJy1waCcsICc3LjAnLCAnLXRuJywgJzgnLCAnLW1hJywgJzIwMCcsICctaW1hZScsICc8aW5maWxlLm1hZT4nLCAnLW9tYWUnLCAnPG91dGZpbGUubWFlPic=

>  <r_epik_Ionization_Penalty>  (292) 
0.0313221

>  <r_epik_Ionization_Penalty_Charging>  (292) 
0.0313133

>  <r_epik_Ionization_Penalty_Neutral>  (292) 
8.81547e-06

>  <r_epik_State_Penalty>  (292) 
0.423574

>  <r_epik_Charging_Adjusted_Penalty>  (292) 
0.454888

>  <i_epik_Tot_Q>  (292) 
1

>  <i_epik_Tot_abs_Q>  (292) 
1

>  <s_epik_Chemistry_Notes>  (292) 
This compound has an ester and may undergo hydrolysis at high or low pH. This compound has an imine and may undergo hydrolysis.

>  <s_lp_Force_Field>  (292) 
OPLS3e

>  <r_lp_Energy>  (292) 
22.3371

>  <b_lp_Chiralities_Consistent>  (292) 
1

>  <s_lp_Variant>  (292) 
102:0-1

>  <s_i_glide_gridfile>  (292) 
pfpi4k_grid

>  <i_i_glide_lignum>  (292) 
18

>  <i_i_glide_rotatable_bonds>  (292) 
0

>  <r_i_docking_score>  (292) 
-3.81612

>  <r_i_glide_ligand_efficiency>  (292) 
-0.141338

>  <r_i_glide_ligand_efficiency_sa>  (292) 
-0.424014

>  <r_i_glide_ligand_efficiency_ln>  (292) 
-0.888331

>  <r_i_glide_gscore>  (292) 
-3.81612

>  <r_i_glide_lipo>  (292) 
-0.177449

>  <r_i_glide_hbond>  (292) 
-0.150897

>  <r_i_glide_metal>  (292) 
-0

>  <r_i_glide_rewards>  (292) 
-0.911848

>  <r_i_glide_evdw>  (292) 
-18.3944

>  <r_i_glide_ecoul>  (292) 
-9.56077

>  <r_i_glide_erotb>  (292) 
0

>  <r_i_glide_esite>  (292) 
-0.222095

>  <r_i_glide_emodel>  (292) 
-35.5738

>  <r_i_glide_energy>  (292) 
-27.9552

>  <r_i_glide_einternal>  (292) 
0

>  <r_i_glide_intrahb_reward>  (292) 
-0

>  <i_i_glide_confnum>  (292) 
1

>  <i_i_glide_posenum>  (292) 
11

>  <r_i_glide_eff_state_penalty>  (292) 
0

>  <ligand_id>  (292) 
102

>  <original_smiles>  (292) 
Cc1ccc2c(c1)C(=O)C1(CC3C(=O)OC(C)C3C3C(=N1)NC3C)C(=O)N2

>  <smiles>  (292) 
[H]c1c([H])c(C([H])([H])[H])c([H])c2c1N([H])C(=O)C1(C2=O)N([H])C2=[N+]([H])C([H])(C([H])([H])[H])C2([H])C2([H])C([H])(C([H])([H])[H])OC(=O)C2([H])C1([H])[H]

$$$$
102:0:1
     RDKit          3D

 49 53  0  0  1  0  0  0  0  0999 V2000
    5.7654   -0.6331    0.2897 C   0  0  0  0  0  0  0  0  0  0  0  0
    5.3184   -1.5648    1.3942 C   0  0  0  0  0  0  0  0  0  0  0  0
    4.9355   -1.0431    2.6479 C   0  0  0  0  0  0  0  0  0  0  0  0
    4.5368   -1.9112    3.6817 C   0  0  0  0  0  0  0  0  0  0  0  0
    4.5183   -3.3034    3.4582 C   0  0  0  0  0  0  0  0  0  0  0  0
    4.8797   -3.8343    2.2009 C   0  0  0  0  0  0  0  0  0  0  0  0
    5.2936   -2.9562    1.1733 C   0  0  0  0  0  0  0  0  0  0  0  0
    4.8623   -5.3124    1.9952 C   0  0  0  0  0  0  0  0  0  0  0  0
    5.3266   -5.8512    0.9891 O   0  0  0  0  0  0  0  0  0  0  0  0
    4.1865   -6.2159    3.0641 C   0  0  1  0  0  0  0  0  0  0  0  0
    2.7649   -6.5694    2.5241 C   0  0  0  0  0  0  0  0  0  0  0  0
    1.8503   -7.4423    3.4219 C   0  0  1  0  0  0  0  0  0  0  0  0
    0.4051   -7.5748    2.9693 C   0  0  0  0  0  0  0  0  0  0  0  0
   -0.2231   -6.6868    2.3946 O   0  0  0  0  0  0  0  0  0  0  0  0
   -0.0350   -8.7845    3.3243 O   0  0  0  0  0  0  0  0  0  0  0  0
    0.9602   -9.5867    3.9544 C   0  0  1  0  0  0  0  0  0  0  0  0
    0.8168  -11.0558    3.5361 C   0  0  0  0  0  0  0  0  0  0  0  0
    2.2524   -8.9000    3.4869 C   0  0  2  0  0  0  0  0  0  0  0  0
    3.4327   -9.1196    4.4027 C   0  0  2  0  0  0  0  0  0  0  0  0
    4.6772   -8.5955    3.7838 C   0  0  0  0  0  0  0  0  0  0  0  0
    5.0191   -7.4314    3.2010 N   0  0  0  0  0  0  0  0  0  0  0  0
    5.3860   -9.6878    4.1062 N   0  0  0  0  0  0  0  0  0  0  0  0
    4.1702  -10.4534    4.4323 C   0  0  1  0  0  0  0  0  0  0  0  0
    4.2471  -11.1891    5.7594 C   0  0  0  0  0  0  0  0  0  0  0  0
    4.0713   -5.4863    4.4343 C   0  0  0  0  0  0  0  0  0  0  0  0
    3.9158   -6.1547    5.4559 O   0  0  0  0  0  0  0  0  0  0  0  0
    4.1694   -4.1529    4.5236 N   0  0  0  0  0  0  0  0  0  0  0  0
    5.5285    0.3992    0.5364 H   0  0  0  0  0  0  0  0  0  0  0  0
    5.2664   -0.8795   -0.6463 H   0  0  0  0  0  0  0  0  0  0  0  0
    6.8421   -0.7071    0.1525 H   0  0  0  0  0  0  0  0  0  0  0  0
    4.9502    0.0265    2.8300 H   0  0  0  0  0  0  0  0  0  0  0  0
    4.2522   -1.5090    4.6445 H   0  0  0  0  0  0  0  0  0  0  0  0
    5.5929   -3.3496    0.2102 H   0  0  0  0  0  0  0  0  0  0  0  0
    2.2398   -5.6284    2.3352 H   0  0  0  0  0  0  0  0  0  0  0  0
    2.8549   -7.0498    1.5444 H   0  0  0  0  0  0  0  0  0  0  0  0
    1.7906   -7.0273    4.4255 H   0  0  0  0  0  0  0  0  0  0  0  0
    0.8524   -9.5056    5.0375 H   0  0  0  0  0  0  0  0  0  0  0  0
    1.5509  -11.7056    4.0222 H   0  0  0  0  0  0  0  0  0  0  0  0
    0.9474  -11.1560    2.4622 H   0  0  0  0  0  0  0  0  0  0  0  0
   -0.1794  -11.4211    3.7890 H   0  0  0  0  0  0  0  0  0  0  0  0
    2.4976   -9.2440    2.4788 H   0  0  0  0  0  0  0  0  0  0  0  0
    3.3263   -8.7012    5.4031 H   0  0  0  0  0  0  0  0  0  0  0  0
    3.8629  -11.0771    3.5919 H   0  0  0  0  0  0  0  0  0  0  0  0
    3.2516  -11.5257    6.0656 H   0  0  0  0  0  0  0  0  0  0  0  0
    4.6184  -10.5381    6.5576 H   0  0  0  0  0  0  0  0  0  0  0  0
    4.8895  -12.0672    5.7036 H   0  0  0  0  0  0  0  0  0  0  0  0
    4.0380   -3.7219    5.4301 H   0  0  0  0  0  0  0  0  0  0  0  0
    5.9825   -7.3117    2.9232 H   0  0  0  0  0  0  0  0  0  0  0  0
    6.2866  -10.0299    3.7949 H   0  0  0  0  0  0  0  0  0  0  0  0
  1  2  1  0
  1 28  1  0
  1 29  1  0
  1 30  1  0
  2  7  2  0
  2  3  1  0
  3  4  2  0
  3 31  1  0
  4  5  1  0
  4 32  1  0
  5 27  1  0
  5  6  2  0
  6  7  1  0
  6  8  1  0
  7 33  1  0
  8  9  2  0
  8 10  1  0
 10 21  1  1
 10 11  1  0
 10 25  1  0
 11 12  1  0
 11 34  1  0
 11 35  1  0
 12 18  1  0
 12 13  1  0
 12 36  1  1
 13 14  2  0
 13 15  1  0
 15 16  1  0
 16 17  1  0
 16 18  1  0
 16 37  1  1
 17 38  1  0
 17 39  1  0
 17 40  1  0
 18 19  1  0
 18 41  1  6
 19 23  1  0
 19 20  1  0
 19 42  1  1
 20 21  1  0
 20 22  2  0
 21 48  1  0
 22 23  1  0
 22 49  1  0
 23 24  1  0
 23 43  1  6
 24 44  1  0
 24 45  1  0
 24 46  1  0
 25 26  2  0
 25 27  1  0
 27 47  1  0
M  CHG  1  22   1
M  END
>  <i_m_ct_stereo_status>  (293) 
1

>  <s_m_source_file>  (293) 
/var/tmp/pbs.5076255.sched01/tmpt85fkz7r/123fjz13bl5.sdf

>  <i_m_source_file_index>  (293) 
18

>  <i_lp_mmshare_version>  (293) 
48012

>  <i_f3d_flags>  (293) 
0

>  <s_epik_input>  (293) 
W0NIM11jKFtjSF0xKVtjSF1bY0hdYyhbTkhdQzI9TyljMUMoPU8pW0NAXTIzW0NIMl1bQ0BASF00W0NASF0oW0NASF0oW0NIM10pT0M0PU8pW0NAQEhdNUMoPU4zKVtOSF1bQ0BIXTVbQ0gzXQ==

>  <s_epik_cmdline>  (293) 
J2VwaWtfcHl0aG9uJywgJy1waHQnLCAnMi4wJywgJy1waCcsICc3LjAnLCAnLXRuJywgJzgnLCAnLW1hJywgJzIwMCcsICctaW1hZScsICc8aW5maWxlLm1hZT4nLCAnLW9tYWUnLCAnPG91dGZpbGUubWFlPic=

>  <r_epik_Ionization_Penalty>  (293) 
0.0313221

>  <r_epik_Ionization_Penalty_Charging>  (293) 
0.0313133

>  <r_epik_Ionization_Penalty_Neutral>  (293) 
8.81547e-06

>  <r_epik_State_Penalty>  (293) 
0.423574

>  <r_epik_Charging_Adjusted_Penalty>  (293) 
0.454888

>  <i_epik_Tot_Q>  (293) 
1

>  <i_epik_Tot_abs_Q>  (293) 
1

>  <s_epik_Chemistry_Notes>  (293) 
This compound has an ester and may undergo hydrolysis at high or low pH. This compound has an imine and may undergo hydrolysis.

>  <s_lp_Force_Field>  (293) 
OPLS3e

>  <r_lp_Energy>  (293) 
22.3371

>  <b_lp_Chiralities_Consistent>  (293) 
1

>  <s_lp_Variant>  (293) 
102:0-1

>  <s_i_glide_gridfile>  (293) 
pfpi4k_grid

>  <i_i_glide_lignum>  (293) 
18

>  <i_i_glide_rotatable_bonds>  (293) 
0

>  <r_i_docking_score>  (293) 
-3.21768

>  <r_i_glide_ligand_efficiency>  (293) 
-0.119173

>  <r_i_glide_ligand_efficiency_sa>  (293) 
-0.35752

>  <r_i_glide_ligand_efficiency_ln>  (293) 
-0.749022

>  <r_i_glide_gscore>  (293) 
-3.21768

>  <r_i_glide_lipo>  (293) 
-0.550716

>  <r_i_glide_hbond>  (293) 
-0.16

>  <r_i_glide_metal>  (293) 
-0

>  <r_i_glide_rewards>  (293) 
-0.919553

>  <r_i_glide_evdw>  (293) 
-19.4373

>  <r_i_glide_ecoul>  (293) 
-3.82648

>  <r_i_glide_erotb>  (293) 
0

>  <r_i_glide_esite>  (293) 
-0.04157

>  <r_i_glide_emodel>  (293) 
-29.7467

>  <r_i_glide_energy>  (293) 
-23.2638

>  <r_i_glide_einternal>  (293) 
0

>  <r_i_glide_intrahb_reward>  (293) 
-0

>  <i_i_glide_confnum>  (293) 
1

>  <i_i_glide_posenum>  (293) 
2

>  <r_i_glide_eff_state_penalty>  (293) 
0

>  <ligand_id>  (293) 
102

>  <original_smiles>  (293) 
Cc1ccc2c(c1)C(=O)C1(CC3C(=O)OC(C)C3C3C(=N1)NC3C)C(=O)N2

>  <smiles>  (293) 
[H]c1c([H])c(C([H])([H])[H])c([H])c2c1N([H])C(=O)C1(C2=O)N([H])C2=[N+]([H])C([H])(C([H])([H])[H])C2([H])C2([H])C([H])(C([H])([H])[H])OC(=O)C2([H])C1([H])[H]

$$$$
102:0:2
     RDKit          3D

 49 53  0  0  1  0  0  0  0  0999 V2000
   -1.9559   -7.5165    3.4978 C   0  0  0  0  0  0  0  0  0  0  0  0
   -0.5751   -8.1240    3.5759 C   0  0  0  0  0  0  0  0  0  0  0  0
    0.1511   -8.3739    2.3964 C   0  0  0  0  0  0  0  0  0  0  0  0
    1.4225   -8.9720    2.4583 C   0  0  0  0  0  0  0  0  0  0  0  0
    1.9740   -9.3168    3.7069 C   0  0  0  0  0  0  0  0  0  0  0  0
    1.2651   -9.0548    4.8983 C   0  0  0  0  0  0  0  0  0  0  0  0
   -0.0186   -8.4694    4.8240 C   0  0  0  0  0  0  0  0  0  0  0  0
    1.8594   -9.4299    6.2067 C   0  0  0  0  0  0  0  0  0  0  0  0
    1.2346   -9.3377    7.2694 O   0  0  0  0  0  0  0  0  0  0  0  0
    3.3512   -9.8590    6.2476 C   0  0  1  0  0  0  0  0  0  0  0  0
    4.1623   -8.6144    6.7501 C   0  0  0  0  0  0  0  0  0  0  0  0
    5.7059   -8.7398    6.8598 C   0  0  1  0  0  0  0  0  0  0  0  0
    6.4759   -7.4517    7.1262 C   0  0  0  0  0  0  0  0  0  0  0  0
    6.1418   -6.3424    6.7236 O   0  0  0  0  0  0  0  0  0  0  0  0
    7.5491   -7.7399    7.8615 O   0  0  0  0  0  0  0  0  0  0  0  0
    7.6326   -9.1123    8.2173 C   0  0  1  0  0  0  0  0  0  0  0  0
    8.1806   -9.2566    9.6453 C   0  0  0  0  0  0  0  0  0  0  0  0
    6.1760   -9.5750    8.0288 C   0  0  2  0  0  0  0  0  0  0  0  0
    6.0098  -11.0516    7.7545 C   0  0  2  0  0  0  0  0  0  0  0  0
    4.5674  -11.4582    7.7782 C   0  0  0  0  0  0  0  0  0  0  0  0
    3.4475  -10.9890    7.1983 N   0  0  0  0  0  0  0  0  0  0  0  0
    4.8218  -12.5301    8.5464 N   0  0  0  0  0  0  0  0  0  0  0  0
    6.1966  -12.0718    8.8699 C   0  0  1  0  0  0  0  0  0  0  0  0
    7.2634  -13.1385    8.6914 C   0  0  0  0  0  0  0  0  0  0  0  0
    3.8785  -10.3060    4.8528 C   0  0  0  0  0  0  0  0  0  0  0  0
    4.9057  -10.9814    4.7812 O   0  0  0  0  0  0  0  0  0  0  0  0
    3.2222   -9.9634    3.7370 N   0  0  0  0  0  0  0  0  0  0  0  0
   -2.1609   -7.1253    2.5029 H   0  0  0  0  0  0  0  0  0  0  0  0
   -2.0590   -6.7077    4.2202 H   0  0  0  0  0  0  0  0  0  0  0  0
   -2.7025   -8.2788    3.7051 H   0  0  0  0  0  0  0  0  0  0  0  0
   -0.2707   -8.1430    1.4285 H   0  0  0  0  0  0  0  0  0  0  0  0
    1.9650   -9.1825    1.5479 H   0  0  0  0  0  0  0  0  0  0  0  0
   -0.5827   -8.2943    5.7268 H   0  0  0  0  0  0  0  0  0  0  0  0
    3.9539   -7.7842    6.0656 H   0  0  0  0  0  0  0  0  0  0  0  0
    3.7735   -8.2802    7.7164 H   0  0  0  0  0  0  0  0  0  0  0  0
    6.1242   -9.1192    5.9303 H   0  0  0  0  0  0  0  0  0  0  0  0
    8.2910   -9.6216    7.5084 H   0  0  0  0  0  0  0  0  0  0  0  0
    8.3030  -10.3025    9.9312 H   0  0  0  0  0  0  0  0  0  0  0  0
    7.5230   -8.7785   10.3721 H   0  0  0  0  0  0  0  0  0  0  0  0
    9.1606   -8.7804    9.7256 H   0  0  0  0  0  0  0  0  0  0  0  0
    5.5991   -9.3017    8.9146 H   0  0  0  0  0  0  0  0  0  0  0  0
    6.4819  -11.3894    6.8254 H   0  0  0  0  0  0  0  0  0  0  0  0
    6.2245  -11.5828    9.8460 H   0  0  0  0  0  0  0  0  0  0  0  0
    8.2566  -12.6838    8.7105 H   0  0  0  0  0  0  0  0  0  0  0  0
    7.1661  -13.6457    7.7269 H   0  0  0  0  0  0  0  0  0  0  0  0
    7.2300  -13.8898    9.4795 H   0  0  0  0  0  0  0  0  0  0  0  0
    3.6206  -10.2385    2.8492 H   0  0  0  0  0  0  0  0  0  0  0  0
    2.5737  -11.5295    7.3340 H   0  0  0  0  0  0  0  0  0  0  0  0
    4.2071  -13.1663    9.0400 H   0  0  0  0  0  0  0  0  0  0  0  0
  1  2  1  0
  1 28  1  0
  1 29  1  0
  1 30  1  0
  2  7  2  0
  2  3  1  0
  3  4  2  0
  3 31  1  0
  4  5  1  0
  4 32  1  0
  5 27  1  0
  5  6  2  0
  6  7  1  0
  6  8  1  0
  7 33  1  0
  8  9  2  0
  8 10  1  0
 10 21  1  1
 10 11  1  0
 10 25  1  0
 11 12  1  0
 11 34  1  0
 11 35  1  0
 12 18  1  0
 12 13  1  0
 12 36  1  6
 13 14  2  0
 13 15  1  0
 15 16  1  0
 16 17  1  0
 16 18  1  0
 16 37  1  6
 17 38  1  0
 17 39  1  0
 17 40  1  0
 18 19  1  0
 18 41  1  1
 19 23  1  0
 19 20  1  0
 19 42  1  6
 20 21  1  0
 20 22  2  0
 21 48  1  0
 22 23  1  0
 22 49  1  0
 23 24  1  0
 23 43  1  1
 24 44  1  0
 24 45  1  0
 24 46  1  0
 25 26  2  0
 25 27  1  0
 27 47  1  0
M  CHG  1  22   1
M  END
>  <i_m_ct_stereo_status>  (294) 
1

>  <s_m_source_file>  (294) 
/var/tmp/pbs.5076255.sched01/tmpt85fkz7r/123fjz13bl5.sdf

>  <i_m_source_file_index>  (294) 
18

>  <i_lp_mmshare_version>  (294) 
48012

>  <i_f3d_flags>  (294) 
0

>  <s_epik_input>  (294) 
W0NIM11jKFtjSF0xKVtjSF1bY0hdYyhbTkhdQzI9TyljMUMoPU8pW0NAXTIzW0NIMl1bQ0BASF00W0NASF0oW0NASF0oW0NIM10pT0M0PU8pW0NAQEhdNUMoPU4zKVtOSF1bQ0BIXTVbQ0gzXQ==

>  <s_epik_cmdline>  (294) 
J2VwaWtfcHl0aG9uJywgJy1waHQnLCAnMi4wJywgJy1waCcsICc3LjAnLCAnLXRuJywgJzgnLCAnLW1hJywgJzIwMCcsICctaW1hZScsICc8aW5maWxlLm1hZT4nLCAnLW9tYWUnLCAnPG91dGZpbGUubWFlPic=

>  <r_epik_Ionization_Penalty>  (294) 
0.0313221

>  <r_epik_Ionization_Penalty_Charging>  (294) 
0.0313133

>  <r_epik_Ionization_Penalty_Neutral>  (294) 
8.81547e-06

>  <r_epik_State_Penalty>  (294) 
0.423574

>  <r_epik_Charging_Adjusted_Penalty>  (294) 
0.454888

>  <i_epik_Tot_Q>  (294) 
1

>  <i_epik_Tot_abs_Q>  (294) 
1

>  <s_epik_Chemistry_Notes>  (294) 
This compound has an ester and may undergo hydrolysis at high or low pH. This compound has an imine and may undergo hydrolysis.

>  <s_lp_Force_Field>  (294) 
OPLS3e

>  <r_lp_Energy>  (294) 
22.3371

>  <b_lp_Chiralities_Consistent>  (294) 
1

>  <s_lp_Variant>  (294) 
102:0-1

>  <s_i_glide_gridfile>  (294) 
pfpi4k_grid

>  <i_i_glide_lignum>  (294) 
18

>  <i_i_glide_rotatable_bonds>  (294) 
0

>  <r_i_docking_score>  (294) 
-3.09291

>  <r_i_glide_ligand_efficiency>  (294) 
-0.114552

>  <r_i_glide_ligand_efficiency_sa>  (294) 
-0.343657

>  <r_i_glide_ligand_efficiency_ln>  (294) 
-0.719979

>  <r_i_glide_gscore>  (294) 
-3.09291

>  <r_i_glide_lipo>  (294) 
-0.0181718

>  <r_i_glide_hbond>  (294) 
-0.194481

>  <r_i_glide_metal>  (294) 
-0

>  <r_i_glide_rewards>  (294) 
-0.897229

>  <r_i_glide_evdw>  (294) 
-14.6647

>  <r_i_glide_ecoul>  (294) 
-6.38452

>  <r_i_glide_erotb>  (294) 
0

>  <r_i_glide_esite>  (294) 
-0.292121

>  <r_i_glide_emodel>  (294) 
-27.1905

>  <r_i_glide_energy>  (294) 
-21.0492

>  <r_i_glide_einternal>  (294) 
0

>  <r_i_glide_intrahb_reward>  (294) 
-0

>  <i_i_glide_confnum>  (294) 
1

>  <i_i_glide_posenum>  (294) 
3

>  <r_i_glide_eff_state_penalty>  (294) 
0

>  <ligand_id>  (294) 
102

>  <original_smiles>  (294) 
Cc1ccc2c(c1)C(=O)C1(CC3C(=O)OC(C)C3C3C(=N1)NC3C)C(=O)N2

>  <smiles>  (294) 
[H]c1c([H])c(C([H])([H])[H])c([H])c2c1N([H])C(=O)C1(C2=O)N([H])C2=[N+]([H])C([H])(C([H])([H])[H])C2([H])C2([H])C([H])(C([H])([H])[H])OC(=O)C2([H])C1([H])[H]

$$$$
102:1:0
     RDKit          3D

 49 53  0  0  1  0  0  0  0  0999 V2000
    8.4884   -2.9096   -0.8461 C   0  0  0  0  0  0  0  0  0  0  0  0
    7.3958   -3.1254    0.1835 C   0  0  0  0  0  0  0  0  0  0  0  0
    6.8121   -2.0211    0.8383 C   0  0  0  0  0  0  0  0  0  0  0  0
    5.8170   -2.2234    1.8109 C   0  0  0  0  0  0  0  0  0  0  0  0
    5.4052   -3.5330    2.1251 C   0  0  0  0  0  0  0  0  0  0  0  0
    5.9665   -4.6455    1.4628 C   0  0  0  0  0  0  0  0  0  0  0  0
    6.9805   -4.4337    0.5053 C   0  0  0  0  0  0  0  0  0  0  0  0
    5.5170   -6.0230    1.8120 C   0  0  0  0  0  0  0  0  0  0  0  0
    6.0682   -7.0372    1.3878 O   0  0  0  0  0  0  0  0  0  0  0  0
    4.2539   -6.1873    2.7038 C   0  0  1  0  0  0  0  0  0  0  0  0
    3.0658   -6.5332    1.7558 C   0  0  0  0  0  0  0  0  0  0  0  0
    1.6725   -6.7380    2.4056 C   0  0  1  0  0  0  0  0  0  0  0  0
    0.5071   -6.8439    1.4332 C   0  0  0  0  0  0  0  0  0  0  0  0
    0.4402   -6.2537    0.3652 O   0  0  0  0  0  0  0  0  0  0  0  0
   -0.4288   -7.6286    1.9683 O   0  0  0  0  0  0  0  0  0  0  0  0
   -0.0274   -8.2192    3.1913 C   0  0  1  0  0  0  0  0  0  0  0  0
   -0.4970   -9.6733    3.2514 C   0  0  0  0  0  0  0  0  0  0  0  0
    1.5022   -8.0426    3.1476 C   0  0  2  0  0  0  0  0  0  0  0  0
    2.1668   -7.9946    4.5024 C   0  0  2  0  0  0  0  0  0  0  0  0
    3.6495   -8.0046    4.3764 C   0  0  0  0  0  0  0  0  0  0  0  0
    4.5312   -7.3045    3.6357 N   0  0  0  0  0  0  0  0  0  0  0  0
    3.7869   -8.9011    5.3639 N   0  0  0  0  0  0  0  0  0  0  0  0
    2.3597   -9.2689    5.3056 C   0  0  1  0  0  0  0  0  0  0  0  0
    1.7002   -9.3677    6.6716 C   0  0  0  0  0  0  0  0  0  0  0  0
    3.9453   -4.8960    3.5204 C   0  0  0  0  0  0  0  0  0  0  0  0
    3.2303   -4.9760    4.5180 O   0  0  0  0  0  0  0  0  0  0  0  0
    4.4622   -3.7177    3.1532 N   0  0  0  0  0  0  0  0  0  0  0  0
    8.5798   -1.8615   -1.1200 H   0  0  0  0  0  0  0  0  0  0  0  0
    8.2872   -3.4825   -1.7516 H   0  0  0  0  0  0  0  0  0  0  0  0
    9.4481   -3.2235   -0.4423 H   0  0  0  0  0  0  0  0  0  0  0  0
    7.1451   -1.0134    0.6350 H   0  0  0  0  0  0  0  0  0  0  0  0
    5.3903   -1.3826    2.3407 H   0  0  0  0  0  0  0  0  0  0  0  0
    7.4505   -5.2794    0.0265 H   0  0  0  0  0  0  0  0  0  0  0  0
    2.9855   -5.7218    1.0294 H   0  0  0  0  0  0  0  0  0  0  0  0
    3.3100   -7.4216    1.1677 H   0  0  0  0  0  0  0  0  0  0  0  0
    1.4200   -5.8910    3.0442 H   0  0  0  0  0  0  0  0  0  0  0  0
   -0.4616   -7.6365    4.0048 H   0  0  0  0  0  0  0  0  0  0  0  0
   -0.2205  -10.1320    4.2004 H   0  0  0  0  0  0  0  0  0  0  0  0
   -0.0642  -10.2713    2.4489 H   0  0  0  0  0  0  0  0  0  0  0  0
   -1.5812   -9.7266    3.1543 H   0  0  0  0  0  0  0  0  0  0  0  0
    1.9411   -8.8403    2.5418 H   0  0  0  0  0  0  0  0  0  0  0  0
    1.8458   -7.1650    5.1365 H   0  0  0  0  0  0  0  0  0  0  0  0
    4.5780   -9.4661    5.6521 H   0  0  0  0  0  0  0  0  0  0  0  0
    2.2185  -10.1521    4.6720 H   0  0  0  0  0  0  0  0  0  0  0  0
    0.6177   -9.4214    6.5515 H   0  0  0  0  0  0  0  0  0  0  0  0
    1.9225   -8.4902    7.2845 H   0  0  0  0  0  0  0  0  0  0  0  0
    2.0257  -10.2525    7.2066 H   0  0  0  0  0  0  0  0  0  0  0  0
    4.1955   -2.8990    3.6811 H   0  0  0  0  0  0  0  0  0  0  0  0
    5.5080   -7.4766    3.8089 H   0  0  0  0  0  0  0  0  0  0  0  0
  1  2  1  0
  1 28  1  0
  1 29  1  0
  1 30  1  0
  2  7  2  0
  2  3  1  0
  3  4  2  0
  3 31  1  0
  4  5  1  0
  4 32  1  0
  5 27  1  0
  5  6  2  0
  6  7  1  0
  6  8  1  0
  7 33  1  0
  8  9  2  0
  8 10  1  0
 10 21  1  0
 10 11  1  6
 10 25  1  0
 11 12  1  0
 11 34  1  0
 11 35  1  0
 12 18  1  0
 12 13  1  0
 12 36  1  1
 13 14  2  0
 13 15  1  0
 15 16  1  0
 16 17  1  0
 16 18  1  0
 16 37  1  1
 17 38  1  0
 17 39  1  0
 17 40  1  0
 18 19  1  0
 18 41  1  6
 19 23  1  0
 19 20  1  0
 19 42  1  1
 20 21  2  0
 20 22  1  0
 21 49  1  0
 22 23  1  0
 22 43  1  0
 23 24  1  0
 23 44  1  6
 24 45  1  0
 24 46  1  0
 24 47  1  0
 25 26  2  0
 25 27  1  0
 27 48  1  0
M  CHG  1  21   1
M  END
>  <i_m_ct_stereo_status>  (295) 
1

>  <s_m_source_file>  (295) 
/var/tmp/pbs.5076255.sched01/tmpt85fkz7r/123fjz13bl5.sdf

>  <i_m_source_file_index>  (295) 
19

>  <i_lp_mmshare_version>  (295) 
48012

>  <i_f3d_flags>  (295) 
0

>  <s_epik_input>  (295) 
W0NIM11jKFtjSF0xKVtjSF1bY0hdYyhbTkhdQzI9TyljMUMoPU8pW0NAXTIzW0NIMl1bQ0BASF00W0NASF0oW0NASF0oW0NIM10pT0M0PU8pW0NAQEhdNUMoPU4zKVtOSF1bQ0BIXTVbQ0gzXQ==

>  <s_epik_cmdline>  (295) 
J2VwaWtfcHl0aG9uJywgJy1waHQnLCAnMi4wJywgJy1waCcsICc3LjAnLCAnLXRuJywgJzgnLCAnLW1hJywgJzIwMCcsICctaW1hZScsICc8aW5maWxlLm1hZT4nLCAnLW9tYWUnLCAnPG91dGZpbGUubWFlPic=

>  <r_epik_Ionization_Penalty>  (295) 
0.0313188

>  <r_epik_Ionization_Penalty_Charging>  (295) 
0.0313133

>  <r_epik_Ionization_Penalty_Neutral>  (295) 
5.45765e-06

>  <r_epik_State_Penalty>  (295) 
0.423574

>  <r_epik_Charging_Adjusted_Penalty>  (295) 
0.454888

>  <i_epik_Tot_Q>  (295) 
1

>  <i_epik_Tot_abs_Q>  (295) 
1

>  <s_epik_Chemistry_Notes>  (295) 
This compound has an ester and may undergo hydrolysis at high or low pH. This compound has an imine and may undergo hydrolysis.

>  <s_lp_Force_Field>  (295) 
OPLS3e

>  <r_lp_Energy>  (295) 
21.4843

>  <b_lp_Chiralities_Consistent>  (295) 
1

>  <s_lp_Variant>  (295) 
102:0-2

>  <s_i_glide_gridfile>  (295) 
pfpi4k_grid

>  <i_i_glide_lignum>  (295) 
19

>  <i_i_glide_rotatable_bonds>  (295) 
0

>  <r_i_docking_score>  (295) 
-3.8536

>  <r_i_glide_ligand_efficiency>  (295) 
-0.142726

>  <r_i_glide_ligand_efficiency_sa>  (295) 
-0.428178

>  <r_i_glide_ligand_efficiency_ln>  (295) 
-0.897055

>  <r_i_glide_gscore>  (295) 
-3.8536

>  <r_i_glide_lipo>  (295) 
-0.545463

>  <r_i_glide_hbond>  (295) 
-0.294498

>  <r_i_glide_metal>  (295) 
-0

>  <r_i_glide_rewards>  (295) 
-0.964164

>  <r_i_glide_evdw>  (295) 
-22.4056

>  <r_i_glide_ecoul>  (295) 
-5.5058

>  <r_i_glide_erotb>  (295) 
0

>  <r_i_glide_esite>  (295) 
-0.10333

>  <r_i_glide_emodel>  (295) 
-35.7211

>  <r_i_glide_energy>  (295) 
-27.9114

>  <r_i_glide_einternal>  (295) 
0

>  <r_i_glide_intrahb_reward>  (295) 
-0

>  <i_i_glide_confnum>  (295) 
1

>  <i_i_glide_posenum>  (295) 
3

>  <r_i_glide_eff_state_penalty>  (295) 
0

>  <ligand_id>  (295) 
102

>  <original_smiles>  (295) 
Cc1ccc2c(c1)C(=O)C1(CC3C(=O)OC(C)C3C3C(=N1)NC3C)C(=O)N2

>  <smiles>  (295) 
[H]c1c([H])c(C([H])([H])[H])c([H])c2c1N([H])C(=O)C1(C2=O)[N+]([H])=C2N([H])C([H])(C([H])([H])[H])C2([H])C2([H])C([H])(C([H])([H])[H])OC(=O)C2([H])C1([H])[H]

$$$$
102:1:1
     RDKit          3D

 49 53  0  0  1  0  0  0  0  0999 V2000
    6.0817   -4.3927    2.3780 C   0  0  0  0  0  0  0  0  0  0  0  0
    4.9807   -3.3766    2.1599 C   0  0  0  0  0  0  0  0  0  0  0  0
    4.0307   -3.5788    1.1361 C   0  0  0  0  0  0  0  0  0  0  0  0
    3.0151   -2.6243    0.9201 C   0  0  0  0  0  0  0  0  0  0  0  0
    2.9576   -1.4745    1.7279 C   0  0  0  0  0  0  0  0  0  0  0  0
    3.8871   -1.2709    2.7686 C   0  0  0  0  0  0  0  0  0  0  0  0
    4.9132   -2.2242    2.9709 C   0  0  0  0  0  0  0  0  0  0  0  0
    3.7936   -0.0342    3.5951 C   0  0  0  0  0  0  0  0  0  0  0  0
    4.6651    0.2970    4.3970 O   0  0  0  0  0  0  0  0  0  0  0  0
    2.5267    0.8598    3.4936 C   0  0  1  0  0  0  0  0  0  0  0  0
    1.6120    0.5069    4.7109 C   0  0  0  0  0  0  0  0  0  0  0  0
    0.2450    1.2365    4.8293 C   0  0  1  0  0  0  0  0  0  0  0  0
   -0.7110    0.7148    5.8899 C   0  0  0  0  0  0  0  0  0  0  0  0
   -0.8087   -0.4643    6.2178 O   0  0  0  0  0  0  0  0  0  0  0  0
   -1.4163    1.7373    6.3666 O   0  0  0  0  0  0  0  0  0  0  0  0
   -1.0324    2.9890    5.8113 C   0  0  1  0  0  0  0  0  0  0  0  0
   -1.0859    4.0804    6.8928 C   0  0  0  0  0  0  0  0  0  0  0  0
    0.3666    2.6820    5.2611 C   0  0  2  0  0  0  0  0  0  0  0  0
    0.7942    3.5874    4.1288 C   0  0  2  0  0  0  0  0  0  0  0  0
    2.2178    3.3569    3.7761 C   0  0  0  0  0  0  0  0  0  0  0  0
    2.9801    2.2726    3.5455 N   0  0  0  0  0  0  0  0  0  0  0  0
    2.4773    4.6615    3.6536 N   0  0  0  0  0  0  0  0  0  0  0  0
    1.2508    5.0142    4.3821 C   0  0  1  0  0  0  0  0  0  0  0  0
    0.4699    6.1447    3.7415 C   0  0  0  0  0  0  0  0  0  0  0  0
    1.7626    0.5927    2.1718 C   0  0  0  0  0  0  0  0  0  0  0  0
    0.9625    1.4325    1.7782 O   0  0  0  0  0  0  0  0  0  0  0  0
    1.9773   -0.5083    1.4515 N   0  0  0  0  0  0  0  0  0  0  0  0
    5.8854   -5.3124    1.8307 H   0  0  0  0  0  0  0  0  0  0  0  0
    6.1708   -4.6365    3.4354 H   0  0  0  0  0  0  0  0  0  0  0  0
    7.0281   -3.9914    2.0239 H   0  0  0  0  0  0  0  0  0  0  0  0
    4.0788   -4.4596    0.5015 H   0  0  0  0  0  0  0  0  0  0  0  0
    2.2936   -2.7674    0.1207 H   0  0  0  0  0  0  0  0  0  0  0  0
    5.6497   -2.0677    3.7471 H   0  0  0  0  0  0  0  0  0  0  0  0
    1.4068   -0.5664    4.6695 H   0  0  0  0  0  0  0  0  0  0  0  0
    2.1741    0.6557    5.6380 H   0  0  0  0  0  0  0  0  0  0  0  0
   -0.3065    1.1697    3.8919 H   0  0  0  0  0  0  0  0  0  0  0  0
   -1.7279    3.2287    5.0025 H   0  0  0  0  0  0  0  0  0  0  0  0
   -0.8386    5.0628    6.4885 H   0  0  0  0  0  0  0  0  0  0  0  0
   -0.3921    3.8639    7.7053 H   0  0  0  0  0  0  0  0  0  0  0  0
   -2.0871    4.1430    7.3264 H   0  0  0  0  0  0  0  0  0  0  0  0
    1.0906    2.7475    6.0764 H   0  0  0  0  0  0  0  0  0  0  0  0
    0.1916    3.5217    3.2267 H   0  0  0  0  0  0  0  0  0  0  0  0
    3.3478    5.1774    3.6038 H   0  0  0  0  0  0  0  0  0  0  0  0
    1.4487    5.1566    5.4461 H   0  0  0  0  0  0  0  0  0  0  0  0
   -0.5296    6.1897    4.1700 H   0  0  0  0  0  0  0  0  0  0  0  0
    0.3498    5.9912    2.6658 H   0  0  0  0  0  0  0  0  0  0  0  0
    0.9540    7.1069    3.9057 H   0  0  0  0  0  0  0  0  0  0  0  0
    1.4207   -0.6505    0.5952 H   0  0  0  0  0  0  0  0  0  0  0  0
    3.9117    2.4170    3.1769 H   0  0  0  0  0  0  0  0  0  0  0  0
  1  2  1  0
  1 28  1  0
  1 29  1  0
  1 30  1  0
  2  7  2  0
  2  3  1  0
  3  4  2  0
  3 31  1  0
  4  5  1  0
  4 32  1  0
  5 27  1  0
  5  6  2  0
  6  7  1  0
  6  8  1  0
  7 33  1  0
  8  9  2  0
  8 10  1  0
 10 21  1  0
 10 11  1  1
 10 25  1  0
 11 12  1  0
 11 34  1  0
 11 35  1  0
 12 18  1  0
 12 13  1  0
 12 36  1  6
 13 14  2  0
 13 15  1  0
 15 16  1  0
 16 17  1  0
 16 18  1  0
 16 37  1  6
 17 38  1  0
 17 39  1  0
 17 40  1  0
 18 19  1  0
 18 41  1  1
 19 23  1  0
 19 20  1  0
 19 42  1  6
 20 21  2  0
 20 22  1  0
 21 49  1  0
 22 23  1  0
 22 43  1  0
 23 24  1  0
 23 44  1  1
 24 45  1  0
 24 46  1  0
 24 47  1  0
 25 26  2  0
 25 27  1  0
 27 48  1  0
M  CHG  1  21   1
M  END
>  <i_m_ct_stereo_status>  (296) 
1

>  <s_m_source_file>  (296) 
/var/tmp/pbs.5076255.sched01/tmpt85fkz7r/123fjz13bl5.sdf

>  <i_m_source_file_index>  (296) 
19

>  <i_lp_mmshare_version>  (296) 
48012

>  <i_f3d_flags>  (296) 
0

>  <s_epik_input>  (296) 
W0NIM11jKFtjSF0xKVtjSF1bY0hdYyhbTkhdQzI9TyljMUMoPU8pW0NAXTIzW0NIMl1bQ0BASF00W0NASF0oW0NASF0oW0NIM10pT0M0PU8pW0NAQEhdNUMoPU4zKVtOSF1bQ0BIXTVbQ0gzXQ==

>  <s_epik_cmdline>  (296) 
J2VwaWtfcHl0aG9uJywgJy1waHQnLCAnMi4wJywgJy1waCcsICc3LjAnLCAnLXRuJywgJzgnLCAnLW1hJywgJzIwMCcsICctaW1hZScsICc8aW5maWxlLm1hZT4nLCAnLW9tYWUnLCAnPG91dGZpbGUubWFlPic=

>  <r_epik_Ionization_Penalty>  (296) 
0.0313188

>  <r_epik_Ionization_Penalty_Charging>  (296) 
0.0313133

>  <r_epik_Ionization_Penalty_Neutral>  (296) 
5.45765e-06

>  <r_epik_State_Penalty>  (296) 
0.423574

>  <r_epik_Charging_Adjusted_Penalty>  (296) 
0.454888

>  <i_epik_Tot_Q>  (296) 
1

>  <i_epik_Tot_abs_Q>  (296) 
1

>  <s_epik_Chemistry_Notes>  (296) 
This compound has an ester and may undergo hydrolysis at high or low pH. This compound has an imine and may undergo hydrolysis.

>  <s_lp_Force_Field>  (296) 
OPLS3e

>  <r_lp_Energy>  (296) 
21.4843

>  <b_lp_Chiralities_Consistent>  (296) 
1

>  <s_lp_Variant>  (296) 
102:0-2

>  <s_i_glide_gridfile>  (296) 
pfpi4k_grid

>  <i_i_glide_lignum>  (296) 
19

>  <i_i_glide_rotatable_bonds>  (296) 
0

>  <r_i_docking_score>  (296) 
-3.69076

>  <r_i_glide_ligand_efficiency>  (296) 
-0.136695

>  <r_i_glide_ligand_efficiency_sa>  (296) 
-0.410084

>  <r_i_glide_ligand_efficiency_ln>  (296) 
-0.859147

>  <r_i_glide_gscore>  (296) 
-3.69076

>  <r_i_glide_lipo>  (296) 
-0.130749

>  <r_i_glide_hbond>  (296) 
-0.171133

>  <r_i_glide_metal>  (296) 
-0

>  <r_i_glide_rewards>  (296) 
-0.902025

>  <r_i_glide_evdw>  (296) 
-17.1284

>  <r_i_glide_ecoul>  (296) 
-9.36637

>  <r_i_glide_erotb>  (296) 
0

>  <r_i_glide_esite>  (296) 
-0.225473

>  <r_i_glide_emodel>  (296) 
-33.9324

>  <r_i_glide_energy>  (296) 
-26.4948

>  <r_i_glide_einternal>  (296) 
0

>  <r_i_glide_intrahb_reward>  (296) 
-0

>  <i_i_glide_confnum>  (296) 
1

>  <i_i_glide_posenum>  (296) 
1

>  <r_i_glide_eff_state_penalty>  (296) 
0

>  <ligand_id>  (296) 
102

>  <original_smiles>  (296) 
Cc1ccc2c(c1)C(=O)C1(CC3C(=O)OC(C)C3C3C(=N1)NC3C)C(=O)N2

>  <smiles>  (296) 
[H]c1c([H])c(C([H])([H])[H])c([H])c2c1N([H])C(=O)C1(C2=O)[N+]([H])=C2N([H])C([H])(C([H])([H])[H])C2([H])C2([H])C([H])(C([H])([H])[H])OC(=O)C2([H])C1([H])[H]

$$$$
102:1:2
     RDKit          3D

 49 53  0  0  1  0  0  0  0  0999 V2000
    7.5079   -1.8129   -0.2193 C   0  0  0  0  0  0  0  0  0  0  0  0
    6.6084   -2.4352    0.8114 C   0  0  0  0  0  0  0  0  0  0  0  0
    6.0620   -1.6282    1.8355 C   0  0  0  0  0  0  0  0  0  0  0  0
    5.2596   -2.2179    2.8316 C   0  0  0  0  0  0  0  0  0  0  0  0
    4.9979   -3.6004    2.7811 C   0  0  0  0  0  0  0  0  0  0  0  0
    5.5142   -4.4011    1.7373 C   0  0  0  0  0  0  0  0  0  0  0  0
    6.3362   -3.8136    0.7508 C   0  0  0  0  0  0  0  0  0  0  0  0
    5.2248   -5.8548    1.7146 C   0  0  0  0  0  0  0  0  0  0  0  0
    5.7787   -6.6448    0.9590 O   0  0  0  0  0  0  0  0  0  0  0  0
    4.1354   -6.4264    2.6569 C   0  0  1  0  0  0  0  0  0  0  0  0
    2.8400   -6.6061    1.8062 C   0  0  0  0  0  0  0  0  0  0  0  0
    1.5781   -7.1463    2.5312 C   0  0  1  0  0  0  0  0  0  0  0  0
    0.2913   -7.1151    1.7314 C   0  0  0  0  0  0  0  0  0  0  0  0
    0.0294   -6.2587    0.8838 O   0  0  0  0  0  0  0  0  0  0  0  0
   -0.4813   -8.1075    2.1310 O   0  0  0  0  0  0  0  0  0  0  0  0
    0.1723   -8.9768    3.0488 C   0  0  1  0  0  0  0  0  0  0  0  0
   -0.1677  -10.4237    2.7129 C   0  0  0  0  0  0  0  0  0  0  0  0
    1.6456   -8.6205    2.8545 C   0  0  2  0  0  0  0  0  0  0  0  0
    2.4933   -8.9140    4.0545 C   0  0  2  0  0  0  0  0  0  0  0  0
    3.9244   -8.7224    3.7389 C   0  0  0  0  0  0  0  0  0  0  0  0
    4.6269   -7.7398    3.1463 N   0  0  0  0  0  0  0  0  0  0  0  0
    4.2997   -9.8141    4.3921 N   0  0  0  0  0  0  0  0  0  0  0  0
    2.9165  -10.3228    4.3843 C   0  0  1  0  0  0  0  0  0  0  0  0
    2.4966  -10.9035    5.7143 C   0  0  0  0  0  0  0  0  0  0  0  0
    3.8706   -5.4657    3.8487 C   0  0  0  0  0  0  0  0  0  0  0  0
    3.3404   -5.9273    4.8530 O   0  0  0  0  0  0  0  0  0  0  0  0
    4.2387   -4.1808    3.8183 N   0  0  0  0  0  0  0  0  0  0  0  0
    7.4118   -0.7426   -0.0625 H   0  0  0  0  0  0  0  0  0  0  0  0
    7.1968   -2.0962   -1.2246 H   0  0  0  0  0  0  0  0  0  0  0  0
    8.5542   -2.0820   -0.0729 H   0  0  0  0  0  0  0  0  0  0  0  0
    6.2874   -0.5711    1.9061 H   0  0  0  0  0  0  0  0  0  0  0  0
    4.8658   -1.6217    3.6491 H   0  0  0  0  0  0  0  0  0  0  0  0
    6.7720   -4.4012   -0.0452 H   0  0  0  0  0  0  0  0  0  0  0  0
    2.5918   -5.6343    1.3844 H   0  0  0  0  0  0  0  0  0  0  0  0
    3.0510   -7.2507    0.9486 H   0  0  0  0  0  0  0  0  0  0  0  0
    1.3774   -6.5648    3.4371 H   0  0  0  0  0  0  0  0  0  0  0  0
   -0.1909   -8.7210    4.0519 H   0  0  0  0  0  0  0  0  0  0  0  0
    0.2266  -11.1213    3.4513 H   0  0  0  0  0  0  0  0  0  0  0  0
    0.1594  -10.7161    1.7209 H   0  0  0  0  0  0  0  0  0  0  0  0
   -1.2469  -10.4650    2.7147 H   0  0  0  0  0  0  0  0  0  0  0  0
    2.0222   -9.1521    1.9779 H   0  0  0  0  0  0  0  0  0  0  0  0
    2.2470   -8.3554    4.9518 H   0  0  0  0  0  0  0  0  0  0  0  0
    5.1495  -10.3589    4.3715 H   0  0  0  0  0  0  0  0  0  0  0  0
    2.7368  -10.9834    3.5307 H   0  0  0  0  0  0  0  0  0  0  0  0
    1.4143  -11.0406    5.7120 H   0  0  0  0  0  0  0  0  0  0  0  0
    2.7385  -10.2403    6.5458 H   0  0  0  0  0  0  0  0  0  0  0  0
    2.9546  -11.8804    5.9025 H   0  0  0  0  0  0  0  0  0  0  0  0
    4.0027   -3.5875    4.6042 H   0  0  0  0  0  0  0  0  0  0  0  0
    5.6313   -7.8239    3.1315 H   0  0  0  0  0  0  0  0  0  0  0  0
  1  2  1  0
  1 28  1  0
  1 29  1  0
  1 30  1  0
  2  7  2  0
  2  3  1  0
  3  4  2  0
  3 31  1  0
  4  5  1  0
  4 32  1  0
  5 27  1  0
  5  6  2  0
  6  7  1  0
  6  8  1  0
  7 33  1  0
  8  9  2  0
  8 10  1  0
 10 21  1  0
 10 11  1  6
 10 25  1  0
 11 12  1  0
 11 34  1  0
 11 35  1  0
 12 18  1  0
 12 13  1  0
 12 36  1  1
 13 14  2  0
 13 15  1  0
 15 16  1  0
 16 17  1  0
 16 18  1  0
 16 37  1  1
 17 38  1  0
 17 39  1  0
 17 40  1  0
 18 19  1  0
 18 41  1  6
 19 23  1  0
 19 20  1  0
 19 42  1  1
 20 21  2  0
 20 22  1  0
 21 49  1  0
 22 23  1  0
 22 43  1  0
 23 24  1  0
 23 44  1  6
 24 45  1  0
 24 46  1  0
 24 47  1  0
 25 26  2  0
 25 27  1  0
 27 48  1  0
M  CHG  1  21   1
M  END
>  <i_m_ct_stereo_status>  (297) 
1

>  <s_m_source_file>  (297) 
/var/tmp/pbs.5076255.sched01/tmpt85fkz7r/123fjz13bl5.sdf

>  <i_m_source_file_index>  (297) 
19

>  <i_lp_mmshare_version>  (297) 
48012

>  <i_f3d_flags>  (297) 
0

>  <s_epik_input>  (297) 
W0NIM11jKFtjSF0xKVtjSF1bY0hdYyhbTkhdQzI9TyljMUMoPU8pW0NAXTIzW0NIMl1bQ0BASF00W0NASF0oW0NASF0oW0NIM10pT0M0PU8pW0NAQEhdNUMoPU4zKVtOSF1bQ0BIXTVbQ0gzXQ==

>  <s_epik_cmdline>  (297) 
J2VwaWtfcHl0aG9uJywgJy1waHQnLCAnMi4wJywgJy1waCcsICc3LjAnLCAnLXRuJywgJzgnLCAnLW1hJywgJzIwMCcsICctaW1hZScsICc8aW5maWxlLm1hZT4nLCAnLW9tYWUnLCAnPG91dGZpbGUubWFlPic=

>  <r_epik_Ionization_Penalty>  (297) 
0.0313188

>  <r_epik_Ionization_Penalty_Charging>  (297) 
0.0313133

>  <r_epik_Ionization_Penalty_Neutral>  (297) 
5.45765e-06

>  <r_epik_State_Penalty>  (297) 
0.423574

>  <r_epik_Charging_Adjusted_Penalty>  (297) 
0.454888

>  <i_epik_Tot_Q>  (297) 
1

>  <i_epik_Tot_abs_Q>  (297) 
1

>  <s_epik_Chemistry_Notes>  (297) 
This compound has an ester and may undergo hydrolysis at high or low pH. This compound has an imine and may undergo hydrolysis.

>  <s_lp_Force_Field>  (297) 
OPLS3e

>  <r_lp_Energy>  (297) 
21.4843

>  <b_lp_Chiralities_Consistent>  (297) 
1

>  <s_lp_Variant>  (297) 
102:0-2

>  <s_i_glide_gridfile>  (297) 
pfpi4k_grid

>  <i_i_glide_lignum>  (297) 
19

>  <i_i_glide_rotatable_bonds>  (297) 
0

>  <r_i_docking_score>  (297) 
-3.55332

>  <r_i_glide_ligand_efficiency>  (297) 
-0.131605

>  <r_i_glide_ligand_efficiency_sa>  (297) 
-0.394814

>  <r_i_glide_ligand_efficiency_ln>  (297) 
-0.827155

>  <r_i_glide_gscore>  (297) 
-3.55332

>  <r_i_glide_lipo>  (297) 
-0.535137

>  <r_i_glide_hbond>  (297) 
-0.179531

>  <r_i_glide_metal>  (297) 
-0

>  <r_i_glide_rewards>  (297) 
-0.959409

>  <r_i_glide_evdw>  (297) 
-16.9801

>  <r_i_glide_ecoul>  (297) 
-6.25222

>  <r_i_glide_erotb>  (297) 
0

>  <r_i_glide_esite>  (297) 
-0.0924105

>  <r_i_glide_emodel>  (297) 
-30.2264

>  <r_i_glide_energy>  (297) 
-23.2323

>  <r_i_glide_einternal>  (297) 
0

>  <r_i_glide_intrahb_reward>  (297) 
-0

>  <i_i_glide_confnum>  (297) 
2

>  <i_i_glide_posenum>  (297) 
13

>  <r_i_glide_eff_state_penalty>  (297) 
0

>  <ligand_id>  (297) 
102

>  <original_smiles>  (297) 
Cc1ccc2c(c1)C(=O)C1(CC3C(=O)OC(C)C3C3C(=N1)NC3C)C(=O)N2

>  <smiles>  (297) 
[H]c1c([H])c(C([H])([H])[H])c([H])c2c1N([H])C(=O)C1(C2=O)[N+]([H])=C2N([H])C([H])(C([H])([H])[H])C2([H])C2([H])C([H])(C([H])([H])[H])OC(=O)C2([H])C1([H])[H]

$$$$
102:2:0
     RDKit          3D

 48 52  0  0  1  0  0  0  0  0999 V2000
    0.9959    5.7490    4.4200 C   0  0  0  0  0  0  0  0  0  0  0  0
    1.8414    4.4966    4.4971 C   0  0  0  0  0  0  0  0  0  0  0  0
    2.7926    4.3456    5.5269 C   0  0  0  0  0  0  0  0  0  0  0  0
    3.5855    3.1799    5.5924 C   0  0  0  0  0  0  0  0  0  0  0  0
    3.4405    2.1685    4.6117 C   0  0  0  0  0  0  0  0  0  0  0  0
    2.4856    2.3149    3.5861 C   0  0  0  0  0  0  0  0  0  0  0  0
    1.6880    3.4736    3.5386 C   0  0  0  0  0  0  0  0  0  0  0  0
    2.3051    1.2379    2.5757 C   0  0  0  0  0  0  0  0  0  0  0  0
    1.4661    1.3058    1.6809 O   0  0  0  0  0  0  0  0  0  0  0  0
    3.1575   -0.0649    2.6656 C   0  0  1  0  0  0  0  0  0  0  0  0
    2.1732   -1.2568    2.8855 C   0  0  0  0  0  0  0  0  0  0  0  0
    2.7511   -2.6880    2.8323 C   0  0  1  0  0  0  0  0  0  0  0  0
    1.8246   -3.7906    3.2936 C   0  0  0  0  0  0  0  0  0  0  0  0
    1.0253   -3.6701    4.2131 O   0  0  0  0  0  0  0  0  0  0  0  0
    2.0224   -4.8606    2.5523 O   0  0  0  0  0  0  0  0  0  0  0  0
    2.9781   -4.6597    1.5089 C   0  0  1  0  0  0  0  0  0  0  0  0
    2.5216   -5.3442    0.2148 C   0  0  0  0  0  0  0  0  0  0  0  0
    3.0345   -3.1286    1.4170 C   0  0  2  0  0  0  0  0  0  0  0  0
    4.3481   -2.5634    0.9414 C   0  0  2  0  0  0  0  0  0  0  0  0
    4.3595   -1.0952    0.8086 C   0  0  0  0  0  0  0  0  0  0  0  0
    3.8667   -0.0697    1.3656 N   0  0  0  0  0  0  0  0  0  0  0  0
    5.0497   -1.0730   -0.3642 N   0  0  0  0  0  0  0  0  0  0  0  0
    4.6117   -2.4666   -0.5849 C   0  0  1  0  0  0  0  0  0  0  0  0
    5.6657   -3.4093   -1.1671 C   0  0  0  0  0  0  0  0  0  0  0  0
    4.2440   -0.0042    3.7932 C   0  0  0  0  0  0  0  0  0  0  0  0
    5.0696   -0.9165    3.8935 O   0  0  0  0  0  0  0  0  0  0  0  0
    4.2704    1.0280    4.6502 N   0  0  0  0  0  0  0  0  0  0  0  0
    1.4694    6.5755    4.9461 H   0  0  0  0  0  0  0  0  0  0  0  0
    0.0281    5.5800    4.8833 H   0  0  0  0  0  0  0  0  0  0  0  0
    0.8313    6.0617    3.3899 H   0  0  0  0  0  0  0  0  0  0  0  0
    2.9190    5.1273    6.2686 H   0  0  0  0  0  0  0  0  0  0  0  0
    4.3228    3.0835    6.3771 H   0  0  0  0  0  0  0  0  0  0  0  0
    0.9617    3.5896    2.7524 H   0  0  0  0  0  0  0  0  0  0  0  0
    1.7280   -1.1193    3.8773 H   0  0  0  0  0  0  0  0  0  0  0  0
    1.3281   -1.1961    2.1868 H   0  0  0  0  0  0  0  0  0  0  0  0
    3.6386   -2.7850    3.4518 H   0  0  0  0  0  0  0  0  0  0  0  0
    3.9640   -5.0405    1.8090 H   0  0  0  0  0  0  0  0  0  0  0  0
    3.2244   -5.1699   -0.5992 H   0  0  0  0  0  0  0  0  0  0  0  0
    1.5428   -4.9957   -0.1056 H   0  0  0  0  0  0  0  0  0  0  0  0
    2.4551   -6.4157    0.3930 H   0  0  0  0  0  0  0  0  0  0  0  0
    2.2117   -2.7739    0.7868 H   0  0  0  0  0  0  0  0  0  0  0  0
    5.2157   -2.9414    1.5002 H   0  0  0  0  0  0  0  0  0  0  0  0
    4.7185   -0.3514   -0.9853 H   0  0  0  0  0  0  0  0  0  0  0  0
    3.6531   -2.4913   -1.1416 H   0  0  0  0  0  0  0  0  0  0  0  0
    5.3422   -4.4456   -1.0665 H   0  0  0  0  0  0  0  0  0  0  0  0
    6.6108   -3.3339   -0.6327 H   0  0  0  0  0  0  0  0  0  0  0  0
    5.8456   -3.2312   -2.2219 H   0  0  0  0  0  0  0  0  0  0  0  0
    4.9328    0.9904    5.4077 H   0  0  0  0  0  0  0  0  0  0  0  0
  1  2  1  0
  1 28  1  0
  1 29  1  0
  1 30  1  0
  2  7  2  0
  2  3  1  0
  3  4  2  0
  3 31  1  0
  4  5  1  0
  4 32  1  0
  5 27  1  0
  5  6  2  0
  6  7  1  0
  6  8  1  0
  7 33  1  0
  8  9  2  0
  8 10  1  0
 10 21  1  0
 10 11  1  1
 10 25  1  0
 11 12  1  0
 11 34  1  0
 11 35  1  0
 12 18  1  0
 12 13  1  0
 12 36  1  1
 13 14  2  0
 13 15  1  0
 15 16  1  0
 16 17  1  0
 16 18  1  0
 16 37  1  1
 17 38  1  0
 17 39  1  0
 17 40  1  0
 18 19  1  0
 18 41  1  6
 19 23  1  0
 19 20  1  0
 19 42  1  1
 20 21  2  0
 20 22  1  0
 22 23  1  0
 22 43  1  0
 23 24  1  0
 23 44  1  6
 24 45  1  0
 24 46  1  0
 24 47  1  0
 25 26  2  0
 25 27  1  0
 27 48  1  0
M  END
>  <i_m_ct_stereo_status>  (298) 
1

>  <s_m_source_file>  (298) 
/var/tmp/pbs.5076255.sched01/tmpt85fkz7r/123fjz13bl5.sdf

>  <i_m_source_file_index>  (298) 
20

>  <i_lp_mmshare_version>  (298) 
48012

>  <i_f3d_flags>  (298) 
0

>  <s_epik_input>  (298) 
W0NIM11jKFtjSF0xKVtjSF1bY0hdYyhbTkhdQzI9TyljMUMoPU8pW0NAXTIzW0NIMl1bQ0BASF00W0NASF0oW0NASF0oW0NIM10pT0M0PU8pW0NAQEhdNUMoPU4zKVtOSF1bQ0BIXTVbQ0gzXQ==

>  <s_epik_cmdline>  (298) 
J2VwaWtfcHl0aG9uJywgJy1waHQnLCAnMi4wJywgJy1waCcsICc3LjAnLCAnLXRuJywgJzgnLCAnLW1hJywgJzIwMCcsICctaW1hZScsICc8aW5maWxlLm1hZT4nLCAnLW9tYWUnLCAnPG91dGZpbGUubWFlPic=

>  <r_lp_tautomer_probability>  (298) 
0.999601

>  <r_epik_Ionization_Penalty>  (298) 
1.76519

>  <r_epik_Ionization_Penalty_Charging>  (298) 
0

>  <r_epik_Ionization_Penalty_Neutral>  (298) 
1.76519

>  <r_epik_State_Penalty>  (298) 
2.27419

>  <r_epik_Charging_Adjusted_Penalty>  (298) 
2.27419

>  <i_epik_Tot_Q>  (298) 
0

>  <i_epik_Tot_abs_Q>  (298) 
0

>  <s_epik_Chemistry_Notes>  (298) 
This compound has an ester and may undergo hydrolysis at high or low pH. This compound has an imine and may undergo hydrolysis.

>  <s_lp_Force_Field>  (298) 
OPLS3e

>  <r_lp_Energy>  (298) 
32.239

>  <b_lp_Chiralities_Consistent>  (298) 
1

>  <s_lp_Variant>  (298) 
102:0-3

>  <s_i_glide_gridfile>  (298) 
pfpi4k_grid

>  <i_i_glide_lignum>  (298) 
20

>  <i_i_glide_rotatable_bonds>  (298) 
0

>  <r_i_docking_score>  (298) 
-2.59604

>  <r_i_glide_ligand_efficiency>  (298) 
-0.0961495

>  <r_i_glide_ligand_efficiency_sa>  (298) 
-0.288448

>  <r_i_glide_ligand_efficiency_ln>  (298) 
-0.604314

>  <r_i_glide_gscore>  (298) 
-2.59604

>  <r_i_glide_lipo>  (298) 
-0.113246

>  <r_i_glide_hbond>  (298) 
0

>  <r_i_glide_metal>  (298) 
-0

>  <r_i_glide_rewards>  (298) 
-0.980885

>  <r_i_glide_evdw>  (298) 
-24.9968

>  <r_i_glide_ecoul>  (298) 
-1.54758

>  <r_i_glide_erotb>  (298) 
0

>  <r_i_glide_esite>  (298) 
-0.0199287

>  <r_i_glide_emodel>  (298) 
-29.0511

>  <r_i_glide_energy>  (298) 
-26.5444

>  <r_i_glide_einternal>  (298) 
0

>  <r_i_glide_intrahb_reward>  (298) 
-0

>  <i_i_glide_confnum>  (298) 
2

>  <i_i_glide_posenum>  (298) 
18

>  <r_i_glide_eff_state_penalty>  (298) 
0

>  <ligand_id>  (298) 
102

>  <original_smiles>  (298) 
Cc1ccc2c(c1)C(=O)C1(CC3C(=O)OC(C)C3C3C(=N1)NC3C)C(=O)N2

>  <smiles>  (298) 
[H]c1c([H])c(C([H])([H])[H])c([H])c2c1N([H])C(=O)C1(N=C3N([H])C([H])(C([H])([H])[H])C3([H])C3([H])C([H])(C([H])([H])[H])OC(=O)C3([H])C1([H])[H])C2=O

$$$$
102:2:1
     RDKit          3D

 48 52  0  0  1  0  0  0  0  0999 V2000
   -2.4623    3.3867    4.5768 C   0  0  0  0  0  0  0  0  0  0  0  0
   -1.2829    2.4766    4.8243 C   0  0  0  0  0  0  0  0  0  0  0  0
   -0.7470    2.3427    6.1215 C   0  0  0  0  0  0  0  0  0  0  0  0
    0.3683    1.5114    6.3448 C   0  0  0  0  0  0  0  0  0  0  0  0
    0.9614    0.8150    5.2653 C   0  0  0  0  0  0  0  0  0  0  0  0
    0.4134    0.9348    3.9673 C   0  0  0  0  0  0  0  0  0  0  0  0
   -0.7027    1.7602    3.7531 C   0  0  0  0  0  0  0  0  0  0  0  0
    1.0354    0.1893    2.8310 C   0  0  0  0  0  0  0  0  0  0  0  0
    0.6059    0.2830    1.6865 O   0  0  0  0  0  0  0  0  0  0  0  0
    2.2299   -0.7767    3.0944 C   0  0  1  0  0  0  0  0  0  0  0  0
    1.7637   -2.2257    2.7386 C   0  0  0  0  0  0  0  0  0  0  0  0
    2.8212   -3.3528    2.7325 C   0  0  1  0  0  0  0  0  0  0  0  0
    2.2951   -4.7675    2.6096 C   0  0  0  0  0  0  0  0  0  0  0  0
    1.2473   -5.1512    3.1179 O   0  0  0  0  0  0  0  0  0  0  0  0
    3.1430   -5.4796    1.8781 O   0  0  0  0  0  0  0  0  0  0  0  0
    4.2254   -4.7128    1.3575 C   0  0  1  0  0  0  0  0  0  0  0  0
    4.5154   -5.1375   -0.0928 C   0  0  0  0  0  0  0  0  0  0  0  0
    3.7019   -3.2788    1.5114 C   0  0  2  0  0  0  0  0  0  0  0  0
    4.7701   -2.2291    1.6787 C   0  0  2  0  0  0  0  0  0  0  0  0
    4.2574   -0.8514    1.7538 C   0  0  0  0  0  0  0  0  0  0  0  0
    3.2780   -0.2021    2.2283 N   0  0  0  0  0  0  0  0  0  0  0  0
    5.2311   -0.3086    0.9589 N   0  0  0  0  0  0  0  0  0  0  0  0
    5.4607   -1.6611    0.4249 C   0  0  1  0  0  0  0  0  0  0  0  0
    6.9202   -2.0496    0.2134 C   0  0  0  0  0  0  0  0  0  0  0  0
    2.7527   -0.6939    4.5661 C   0  0  0  0  0  0  0  0  0  0  0  0
    3.7634   -1.3275    4.8828 O   0  0  0  0  0  0  0  0  0  0  0  0
    2.1011    0.0173    5.4931 N   0  0  0  0  0  0  0  0  0  0  0  0
   -2.5416    4.1253    5.3711 H   0  0  0  0  0  0  0  0  0  0  0  0
   -3.3863    2.8148    4.5588 H   0  0  0  0  0  0  0  0  0  0  0  0
   -2.3677    3.9061    3.6251 H   0  0  0  0  0  0  0  0  0  0  0  0
   -1.1789    2.8990    6.9488 H   0  0  0  0  0  0  0  0  0  0  0  0
    0.7841    1.4323    7.3449 H   0  0  0  0  0  0  0  0  0  0  0  0
   -1.1154    1.8669    2.7583 H   0  0  0  0  0  0  0  0  0  0  0  0
    0.9910   -2.5090    3.4628 H   0  0  0  0  0  0  0  0  0  0  0  0
    1.2563   -2.2193    1.7688 H   0  0  0  0  0  0  0  0  0  0  0  0
    3.4212   -3.3430    3.6358 H   0  0  0  0  0  0  0  0  0  0  0  0
    5.1137   -4.8591    1.9811 H   0  0  0  0  0  0  0  0  0  0  0  0
    5.3265   -4.5652   -0.5480 H   0  0  0  0  0  0  0  0  0  0  0  0
    3.6307   -5.0204   -0.7165 H   0  0  0  0  0  0  0  0  0  0  0  0
    4.8027   -6.1934   -0.1249 H   0  0  0  0  0  0  0  0  0  0  0  0
    3.0745   -3.0368    0.6466 H   0  0  0  0  0  0  0  0  0  0  0  0
    5.4763   -2.4525    2.4906 H   0  0  0  0  0  0  0  0  0  0  0  0
    4.9485    0.4415    0.3426 H   0  0  0  0  0  0  0  0  0  0  0  0
    4.8406   -1.8242   -0.4691 H   0  0  0  0  0  0  0  0  0  0  0  0
    7.0037   -3.1257    0.0444 H   0  0  0  0  0  0  0  0  0  0  0  0
    7.5257   -1.8268    1.0930 H   0  0  0  0  0  0  0  0  0  0  0  0
    7.3614   -1.5622   -0.6481 H   0  0  0  0  0  0  0  0  0  0  0  0
    2.4360   -0.0227    6.4542 H   0  0  0  0  0  0  0  0  0  0  0  0
  1  2  1  0
  1 28  1  0
  1 29  1  0
  1 30  1  0
  2  7  2  0
  2  3  1  0
  3  4  2  0
  3 31  1  0
  4  5  1  0
  4 32  1  0
  5 27  1  0
  5  6  2  0
  6  7  1  0
  6  8  1  0
  7 33  1  0
  8  9  2  0
  8 10  1  0
 10 21  1  0
 10 11  1  6
 10 25  1  0
 11 12  1  0
 11 34  1  0
 11 35  1  0
 12 18  1  0
 12 13  1  0
 12 36  1  1
 13 14  2  0
 13 15  1  0
 15 16  1  0
 16 17  1  0
 16 18  1  0
 16 37  1  1
 17 38  1  0
 17 39  1  0
 17 40  1  0
 18 19  1  0
 18 41  1  6
 19 23  1  0
 19 20  1  0
 19 42  1  1
 20 21  2  0
 20 22  1  0
 22 23  1  0
 22 43  1  0
 23 24  1  0
 23 44  1  6
 24 45  1  0
 24 46  1  0
 24 47  1  0
 25 26  2  0
 25 27  1  0
 27 48  1  0
M  END
>  <i_m_ct_stereo_status>  (299) 
1

>  <s_m_source_file>  (299) 
/var/tmp/pbs.5076255.sched01/tmpt85fkz7r/123fjz13bl5.sdf

>  <i_m_source_file_index>  (299) 
20

>  <i_lp_mmshare_version>  (299) 
48012

>  <i_f3d_flags>  (299) 
0

>  <s_epik_input>  (299) 
W0NIM11jKFtjSF0xKVtjSF1bY0hdYyhbTkhdQzI9TyljMUMoPU8pW0NAXTIzW0NIMl1bQ0BASF00W0NASF0oW0NASF0oW0NIM10pT0M0PU8pW0NAQEhdNUMoPU4zKVtOSF1bQ0BIXTVbQ0gzXQ==

>  <s_epik_cmdline>  (299) 
J2VwaWtfcHl0aG9uJywgJy1waHQnLCAnMi4wJywgJy1waCcsICc3LjAnLCAnLXRuJywgJzgnLCAnLW1hJywgJzIwMCcsICctaW1hZScsICc8aW5maWxlLm1hZT4nLCAnLW9tYWUnLCAnPG91dGZpbGUubWFlPic=

>  <r_lp_tautomer_probability>  (299) 
0.999601

>  <r_epik_Ionization_Penalty>  (299) 
1.76519

>  <r_epik_Ionization_Penalty_Charging>  (299) 
0

>  <r_epik_Ionization_Penalty_Neutral>  (299) 
1.76519

>  <r_epik_State_Penalty>  (299) 
2.27419

>  <r_epik_Charging_Adjusted_Penalty>  (299) 
2.27419

>  <i_epik_Tot_Q>  (299) 
0

>  <i_epik_Tot_abs_Q>  (299) 
0

>  <s_epik_Chemistry_Notes>  (299) 
This compound has an ester and may undergo hydrolysis at high or low pH. This compound has an imine and may undergo hydrolysis.

>  <s_lp_Force_Field>  (299) 
OPLS3e

>  <r_lp_Energy>  (299) 
32.239

>  <b_lp_Chiralities_Consistent>  (299) 
1

>  <s_lp_Variant>  (299) 
102:0-3

>  <s_i_glide_gridfile>  (299) 
pfpi4k_grid

>  <i_i_glide_lignum>  (299) 
20

>  <i_i_glide_rotatable_bonds>  (299) 
0

>  <r_i_docking_score>  (299) 
-2.5519

>  <r_i_glide_ligand_efficiency>  (299) 
-0.0945147

>  <r_i_glide_ligand_efficiency_sa>  (299) 
-0.283544

>  <r_i_glide_ligand_efficiency_ln>  (299) 
-0.59404

>  <r_i_glide_gscore>  (299) 
-2.5519

>  <r_i_glide_lipo>  (299) 
-0.128752

>  <r_i_glide_hbond>  (299) 
-0.184187

>  <r_i_glide_metal>  (299) 
-0

>  <r_i_glide_rewards>  (299) 
-0.975757

>  <r_i_glide_evdw>  (299) 
-22.6392

>  <r_i_glide_ecoul>  (299) 
-0.630073

>  <r_i_glide_erotb>  (299) 
0

>  <r_i_glide_esite>  (299) 
-0.036731

>  <r_i_glide_emodel>  (299) 
-25.6775

>  <r_i_glide_energy>  (299) 
-23.2693

>  <r_i_glide_einternal>  (299) 
0

>  <r_i_glide_intrahb_reward>  (299) 
-0

>  <i_i_glide_confnum>  (299) 
2

>  <i_i_glide_posenum>  (299) 
35

>  <r_i_glide_eff_state_penalty>  (299) 
0

>  <ligand_id>  (299) 
102

>  <original_smiles>  (299) 
Cc1ccc2c(c1)C(=O)C1(CC3C(=O)OC(C)C3C3C(=N1)NC3C)C(=O)N2

>  <smiles>  (299) 
[H]c1c([H])c(C([H])([H])[H])c([H])c2c1N([H])C(=O)C1(N=C3N([H])C([H])(C([H])([H])[H])C3([H])C3([H])C([H])(C([H])([H])[H])OC(=O)C3([H])C1([H])[H])C2=O

$$$$
102:2:2
     RDKit          3D

 48 52  0  0  1  0  0  0  0  0999 V2000
   -2.9786    2.7787    7.1746 C   0  0  0  0  0  0  0  0  0  0  0  0
   -1.7488    1.9093    7.0518 C   0  0  0  0  0  0  0  0  0  0  0  0
   -0.9468    1.6517    8.1821 C   0  0  0  0  0  0  0  0  0  0  0  0
    0.2134    0.8619    8.0597 C   0  0  0  0  0  0  0  0  0  0  0  0
    0.5860    0.3343    6.7997 C   0  0  0  0  0  0  0  0  0  0  0  0
   -0.2307    0.5731    5.6680 C   0  0  0  0  0  0  0  0  0  0  0  0
   -1.3882    1.3548    5.8009 C   0  0  0  0  0  0  0  0  0  0  0  0
    0.1528   -0.0054    4.3383 C   0  0  0  0  0  0  0  0  0  0  0  0
   -0.5167    0.1785    3.3262 O   0  0  0  0  0  0  0  0  0  0  0  0
    1.4111   -0.9228    4.2297 C   0  0  1  0  0  0  0  0  0  0  0  0
    0.9276   -2.3420    3.7994 C   0  0  0  0  0  0  0  0  0  0  0  0
    1.9993   -3.3944    3.4384 C   0  0  1  0  0  0  0  0  0  0  0  0
    1.5077   -4.8148    3.2551 C   0  0  0  0  0  0  0  0  0  0  0  0
    0.6102   -5.3159    3.9217 O   0  0  0  0  0  0  0  0  0  0  0  0
    2.1890   -5.3831    2.2683 O   0  0  0  0  0  0  0  0  0  0  0  0
    3.1162   -4.5018    1.6338 C   0  0  1  0  0  0  0  0  0  0  0  0
    3.1059   -4.7283    0.1115 C   0  0  0  0  0  0  0  0  0  0  0  0
    2.6066   -3.1278    2.0810 C   0  0  2  0  0  0  0  0  0  0  0  0
    3.6503   -2.0516    2.1515 C   0  0  2  0  0  0  0  0  0  0  0  0
    3.1159   -0.7246    2.5087 C   0  0  0  0  0  0  0  0  0  0  0  0
    2.2317   -0.1951    3.2462 N   0  0  0  0  0  0  0  0  0  0  0  0
    3.8918   -0.0402    1.6239 N   0  0  0  0  0  0  0  0  0  0  0  0
    4.0375   -1.2913    0.8685 C   0  0  1  0  0  0  0  0  0  0  0  0
    5.4305   -1.5564    0.3041 C   0  0  0  0  0  0  0  0  0  0  0  0
    2.2350   -0.9790    5.5596 C   0  0  0  0  0  0  0  0  0  0  0  0
    3.3119   -1.5800    5.5794 O   0  0  0  0  0  0  0  0  0  0  0  0
    1.7700   -0.4186    6.6816 N   0  0  0  0  0  0  0  0  0  0  0  0
   -2.9176    3.4255    8.0483 H   0  0  0  0  0  0  0  0  0  0  0  0
   -3.8581    2.1543    7.2832 H   0  0  0  0  0  0  0  0  0  0  0  0
   -3.1122    3.4048    6.2944 H   0  0  0  0  0  0  0  0  0  0  0  0
   -1.2111    2.0820    9.1456 H   0  0  0  0  0  0  0  0  0  0  0  0
    0.8317    0.6914    8.9359 H   0  0  0  0  0  0  0  0  0  0  0  0
   -2.0060    1.5513    4.9358 H   0  0  0  0  0  0  0  0  0  0  0  0
    0.3375   -2.7511    4.6308 H   0  0  0  0  0  0  0  0  0  0  0  0
    0.2156   -2.2635    2.9688 H   0  0  0  0  0  0  0  0  0  0  0  0
    2.7752   -3.4492    4.1887 H   0  0  0  0  0  0  0  0  0  0  0  0
    4.1204   -4.6660    2.0337 H   0  0  0  0  0  0  0  0  0  0  0  0
    3.7839   -4.0600   -0.4230 H   0  0  0  0  0  0  0  0  0  0  0  0
    2.1058   -4.5932   -0.3042 H   0  0  0  0  0  0  0  0  0  0  0  0
    3.4190   -5.7535   -0.1115 H   0  0  0  0  0  0  0  0  0  0  0  0
    1.8234   -2.8081    1.3912 H   0  0  0  0  0  0  0  0  0  0  0  0
    4.5156   -2.3305    2.7661 H   0  0  0  0  0  0  0  0  0  0  0  0
    3.4575    0.7628    1.1936 H   0  0  0  0  0  0  0  0  0  0  0  0
    3.2463   -1.3761    0.1046 H   0  0  0  0  0  0  0  0  0  0  0  0
    5.5151   -2.5950   -0.0242 H   0  0  0  0  0  0  0  0  0  0  0  0
    6.2086   -1.4135    1.0606 H   0  0  0  0  0  0  0  0  0  0  0  0
    5.6603   -0.9258   -0.5517 H   0  0  0  0  0  0  0  0  0  0  0  0
    2.3049   -0.5506    7.5393 H   0  0  0  0  0  0  0  0  0  0  0  0
  1  2  1  0
  1 28  1  0
  1 29  1  0
  1 30  1  0
  2  7  2  0
  2  3  1  0
  3  4  2  0
  3 31  1  0
  4  5  1  0
  4 32  1  0
  5 27  1  0
  5  6  2  0
  6  7  1  0
  6  8  1  0
  7 33  1  0
  8  9  2  0
  8 10  1  0
 10 21  1  0
 10 11  1  6
 10 25  1  0
 11 12  1  0
 11 34  1  0
 11 35  1  0
 12 18  1  0
 12 13  1  0
 12 36  1  1
 13 14  2  0
 13 15  1  0
 15 16  1  0
 16 17  1  0
 16 18  1  0
 16 37  1  1
 17 38  1  0
 17 39  1  0
 17 40  1  0
 18 19  1  0
 18 41  1  6
 19 23  1  0
 19 20  1  0
 19 42  1  1
 20 21  2  0
 20 22  1  0
 22 23  1  0
 22 43  1  0
 23 24  1  0
 23 44  1  6
 24 45  1  0
 24 46  1  0
 24 47  1  0
 25 26  2  0
 25 27  1  0
 27 48  1  0
M  END
>  <i_m_ct_stereo_status>  (300) 
1

>  <s_m_source_file>  (300) 
/var/tmp/pbs.5076255.sched01/tmpt85fkz7r/123fjz13bl5.sdf

>  <i_m_source_file_index>  (300) 
20

>  <i_lp_mmshare_version>  (300) 
48012

>  <i_f3d_flags>  (300) 
0

>  <s_epik_input>  (300) 
W0NIM11jKFtjSF0xKVtjSF1bY0hdYyhbTkhdQzI9TyljMUMoPU8pW0NAXTIzW0NIMl1bQ0BASF00W0NASF0oW0NASF0oW0NIM10pT0M0PU8pW0NAQEhdNUMoPU4zKVtOSF1bQ0BIXTVbQ0gzXQ==

>  <s_epik_cmdline>  (300) 
J2VwaWtfcHl0aG9uJywgJy1waHQnLCAnMi4wJywgJy1waCcsICc3LjAnLCAnLXRuJywgJzgnLCAnLW1hJywgJzIwMCcsICctaW1hZScsICc8aW5maWxlLm1hZT4nLCAnLW9tYWUnLCAnPG91dGZpbGUubWFlPic=

>  <r_lp_tautomer_probability>  (300) 
0.999601

>  <r_epik_Ionization_Penalty>  (300) 
1.76519

>  <r_epik_Ionization_Penalty_Charging>  (300) 
0

>  <r_epik_Ionization_Penalty_Neutral>  (300) 
1.76519

>  <r_epik_State_Penalty>  (300) 
2.27419

>  <r_epik_Charging_Adjusted_Penalty>  (300) 
2.27419

>  <i_epik_Tot_Q>  (300) 
0

>  <i_epik_Tot_abs_Q>  (300) 
0

>  <s_epik_Chemistry_Notes>  (300) 
This compound has an ester and may undergo hydrolysis at high or low pH. This compound has an imine and may undergo hydrolysis.

>  <s_lp_Force_Field>  (300) 
OPLS3e

>  <r_lp_Energy>  (300) 
32.239

>  <b_lp_Chiralities_Consistent>  (300) 
1

>  <s_lp_Variant>  (300) 
102:0-3

>  <s_i_glide_gridfile>  (300) 
pfpi4k_grid

>  <i_i_glide_lignum>  (300) 
20

>  <i_i_glide_rotatable_bonds>  (300) 
0

>  <r_i_docking_score>  (300) 
-2.49632

>  <r_i_glide_ligand_efficiency>  (300) 
-0.0924561

>  <r_i_glide_ligand_efficiency_sa>  (300) 
-0.277368

>  <r_i_glide_ligand_efficiency_ln>  (300) 
-0.581101

>  <r_i_glide_gscore>  (300) 
-2.49632

>  <r_i_glide_lipo>  (300) 
-0.293581

>  <r_i_glide_hbond>  (300) 
0

>  <r_i_glide_metal>  (300) 
-0

>  <r_i_glide_rewards>  (300) 
-0.904102

>  <r_i_glide_evdw>  (300) 
-21.5125

>  <r_i_glide_ecoul>  (300) 
-1.28717

>  <r_i_glide_erotb>  (300) 
0

>  <r_i_glide_esite>  (300) 
-0.0299309

>  <r_i_glide_emodel>  (300) 
-25.3373

>  <r_i_glide_energy>  (300) 
-22.7997

>  <r_i_glide_einternal>  (300) 
0

>  <r_i_glide_intrahb_reward>  (300) 
-0

>  <i_i_glide_confnum>  (300) 
2

>  <i_i_glide_posenum>  (300) 
14

>  <r_i_glide_eff_state_penalty>  (300) 
0

>  <ligand_id>  (300) 
102

>  <original_smiles>  (300) 
Cc1ccc2c(c1)C(=O)C1(CC3C(=O)OC(C)C3C3C(=N1)NC3C)C(=O)N2

>  <smiles>  (300) 
[H]c1c([H])c(C([H])([H])[H])c([H])c2c1N([H])C(=O)C1(N=C3N([H])C([H])(C([H])([H])[H])C3([H])C3([H])C([H])(C([H])([H])[H])OC(=O)C3([H])C1([H])[H])C2=O

$$$$
104:0:0
     RDKit          3D

 70 76  0  0  1  0  0  0  0  0999 V2000
    2.0421    0.7743    1.9640 C   0  0  0  0  0  0  0  0  0  0  0  0
    2.2741   -0.5157    2.5145 O   0  0  0  0  0  0  0  0  0  0  0  0
    3.0821   -1.3867    1.8167 C   0  0  0  0  0  0  0  0  0  0  0  0
    3.8078   -1.0343    0.6415 C   0  0  0  0  0  0  0  0  0  0  0  0
    4.5778   -1.9896   -0.0682 C   0  0  0  0  0  0  0  0  0  0  0  0
    4.6874   -3.2989    0.4324 C   0  0  0  0  0  0  0  0  0  0  0  0
    4.0193   -3.5671    1.6403 C   0  0  0  0  0  0  0  0  0  0  0  0
    3.1754   -2.7082    2.3177 C   0  0  0  0  0  0  0  0  0  0  0  0
    2.5220   -3.2850    3.3694 O   0  0  0  0  0  0  0  0  0  0  0  0
    2.8244   -4.6948    3.3832 C   0  0  1  0  0  0  0  0  0  0  0  0
    1.5514   -5.4987    3.0297 C   0  0  0  0  0  0  0  0  0  0  0  0
    1.6211   -6.9900    3.1909 N   0  0  1  0  0  0  0  0  0  0  0  0
    0.5713   -7.7223    2.4257 C   0  0  0  0  0  0  0  0  0  0  0  0
   -0.2735   -8.6379    3.3460 C   0  0  1  0  0  0  0  0  0  0  0  0
   -1.5493   -9.1306    2.6295 C   0  0  0  0  0  0  0  0  0  0  0  0
    0.5084   -9.8004    4.0137 C   0  0  1  0  0  0  0  0  0  0  0  0
    1.0201  -10.8671    3.0475 C   0  0  0  0  0  0  0  0  0  0  0  0
    2.6313  -10.2947    2.4811 S   0  0  0  0  0  0  0  0  0  0  0  0
    2.9221   -9.1157    3.8127 C   0  0  2  0  0  0  0  0  0  0  0  0
    4.2562   -9.5071    4.4836 C   0  0  0  0  0  0  0  0  0  0  0  0
    1.7537   -9.3440    4.8013 C   0  0  0  0  0  0  0  0  0  0  0  0
    2.9776   -7.6381    3.2748 C   0  0  1  0  0  0  0  0  0  0  0  0
    3.9116   -7.4532    2.0245 C   0  0  0  0  0  0  0  0  0  0  0  0
    4.0443   -6.0362    1.3880 C   0  0  2  0  0  0  0  0  0  0  0  0
    2.9480   -5.9369    0.4828 O   0  0  0  0  0  0  0  0  0  0  0  0
    5.3488   -5.8398    0.5342 C   0  0  1  0  0  0  0  0  0  0  0  0
    5.3033   -4.5113   -0.2685 C   0  0  0  0  0  0  0  0  0  0  0  0
    6.5831   -5.9261    1.3842 N   0  0  1  0  0  0  0  0  0  0  0  0
    7.8742   -5.9677    0.6478 C   0  0  0  0  0  0  0  0  0  0  0  0
    6.6121   -4.9070    2.4508 C   0  0  0  0  0  0  0  0  0  0  0  0
    5.3287   -4.9370    3.2787 C   0  0  0  0  0  0  0  0  0  0  0  0
    4.0403   -4.8630    2.4056 C   0  0  1  0  0  0  0  0  0  0  0  0
    1.3801    1.3266    2.6300 H   0  0  0  0  0  0  0  0  0  0  0  0
    1.5494    0.7140    0.9923 H   0  0  0  0  0  0  0  0  0  0  0  0
    2.9609    1.3553    1.8706 H   0  0  0  0  0  0  0  0  0  0  0  0
    3.7615   -0.0425    0.2293 H   0  0  0  0  0  0  0  0  0  0  0  0
    5.0554   -1.7251   -1.0043 H   0  0  0  0  0  0  0  0  0  0  0  0
    3.1043   -4.9292    4.4149 H   0  0  0  0  0  0  0  0  0  0  0  0
    0.7609   -5.1604    3.6957 H   0  0  0  0  0  0  0  0  0  0  0  0
    1.2069   -5.2072    2.0405 H   0  0  0  0  0  0  0  0  0  0  0  0
   -0.1250   -6.9957    2.0092 H   0  0  0  0  0  0  0  0  0  0  0  0
    0.9774   -8.2402    1.5562 H   0  0  0  0  0  0  0  0  0  0  0  0
   -0.6315   -8.0204    4.1720 H   0  0  0  0  0  0  0  0  0  0  0  0
   -1.3322   -9.6827    1.7135 H   0  0  0  0  0  0  0  0  0  0  0  0
   -2.2017   -8.2996    2.3583 H   0  0  0  0  0  0  0  0  0  0  0  0
   -2.1283   -9.7889    3.2806 H   0  0  0  0  0  0  0  0  0  0  0  0
   -0.1794  -10.2812    4.7109 H   0  0  0  0  0  0  0  0  0  0  0  0
    1.1605  -11.8091    3.5795 H   0  0  0  0  0  0  0  0  0  0  0  0
    0.3502  -11.0751    2.2135 H   0  0  0  0  0  0  0  0  0  0  0  0
    4.4920   -8.8672    5.3331 H   0  0  0  0  0  0  0  0  0  0  0  0
    5.0951   -9.4724    3.7883 H   0  0  0  0  0  0  0  0  0  0  0  0
    4.2243  -10.5352    4.8525 H   0  0  0  0  0  0  0  0  0  0  0  0
    1.5612   -8.4862    5.4414 H   0  0  0  0  0  0  0  0  0  0  0  0
    2.0131  -10.1639    5.4748 H   0  0  0  0  0  0  0  0  0  0  0  0
    3.4663   -7.1119    4.0877 H   0  0  0  0  0  0  0  0  0  0  0  0
    4.8991   -7.7887    2.3342 H   0  0  0  0  0  0  0  0  0  0  0  0
    3.6427   -8.1438    1.2253 H   0  0  0  0  0  0  0  0  0  0  0  0
    3.2113   -6.2366   -0.3774 H   0  0  0  0  0  0  0  0  0  0  0  0
    5.4114   -6.6520   -0.1877 H   0  0  0  0  0  0  0  0  0  0  0  0
    4.6950   -4.6903   -1.1539 H   0  0  0  0  0  0  0  0  0  0  0  0
    6.2824   -4.2345   -0.6574 H   0  0  0  0  0  0  0  0  0  0  0  0
    8.1400   -5.0029    0.2093 H   0  0  0  0  0  0  0  0  0  0  0  0
    7.8538   -6.6977   -0.1523 H   0  0  0  0  0  0  0  0  0  0  0  0
    8.6866   -6.2551    1.3193 H   0  0  0  0  0  0  0  0  0  0  0  0
    7.4645   -5.1061    3.0918 H   0  0  0  0  0  0  0  0  0  0  0  0
    6.7803   -3.9120    2.0364 H   0  0  0  0  0  0  0  0  0  0  0  0
    5.3275   -5.8470    3.8798 H   0  0  0  0  0  0  0  0  0  0  0  0
    5.3579   -4.1124    3.9929 H   0  0  0  0  0  0  0  0  0  0  0  0
    1.2991   -7.1120    4.1441 H   0  0  0  0  0  0  0  0  0  0  0  0
    6.5296   -6.8186    1.8633 H   0  0  0  0  0  0  0  0  0  0  0  0
  1  2  1  0
  1 33  1  0
  1 34  1  0
  1 35  1  0
  2  3  1  0
  3  8  2  0
  3  4  1  0
  4  5  2  0
  4 36  1  0
  5  6  1  0
  5 37  1  0
  6 27  1  0
  6  7  2  0
  7 32  1  0
  7  8  1  0
  8  9  1  0
  9 10  1  0
 10 32  1  0
 10 11  1  0
 10 38  1  1
 11 12  1  0
 11 39  1  0
 11 40  1  0
 12 22  1  0
 12 13  1  0
 12 69  1  1
 13 14  1  0
 13 41  1  0
 13 42  1  0
 14 15  1  0
 14 16  1  0
 14 43  1  1
 15 44  1  0
 15 45  1  0
 15 46  1  0
 16 21  1  0
 16 17  1  0
 16 47  1  1
 17 18  1  0
 17 48  1  0
 17 49  1  0
 18 19  1  0
 19 20  1  1
 19 21  1  0
 19 22  1  0
 20 50  1  0
 20 51  1  0
 20 52  1  0
 21 53  1  0
 21 54  1  0
 22 23  1  0
 22 55  1  1
 23 24  1  0
 23 56  1  0
 23 57  1  0
 24 32  1  0
 24 25  1  6
 24 26  1  0
 25 58  1  0
 26 27  1  0
 26 28  1  0
 26 59  1  6
 27 60  1  0
 27 61  1  0
 28 29  1  0
 28 30  1  0
 28 70  1  1
 29 62  1  0
 29 63  1  0
 29 64  1  0
 30 31  1  0
 30 65  1  0
 30 66  1  0
 32 31  1  1
 31 67  1  0
 31 68  1  0
M  CHG  2  12   1  28   1
M  END
>  <i_m_ct_stereo_status>  (301) 
1

>  <s_m_source_file>  (301) 
/var/tmp/pbs.5076255.sched01/tmpt85fkz7r/123fjz13bl5.sdf

>  <i_m_source_file_index>  (301) 
22

>  <i_lp_mmshare_version>  (301) 
48012

>  <i_f3d_flags>  (301) 
0

>  <s_epik_input>  (301) 
W0NAXTEyM2M0YzVbY0hdW2NIXWMoT1tDSDNdKWM0T1tDQEhdMVtDSDJdTjZbQ0BASF0oW0NAXTcoW0NIM10pU1tDSDJdW0NAQEhdKFtDSDJdNylbQ0BASF0oW0NIMl02KVtDSDNdKVtDSDJdW0NAXTIoW09IXSlbQ0BASF0oW0NIMl01KU4oW0NIM10pW0NIMl1bQ0gyXTM=

>  <s_epik_cmdline>  (301) 
J2VwaWtfcHl0aG9uJywgJy1waHQnLCAnMi4wJywgJy1waCcsICc3LjAnLCAnLXRuJywgJzgnLCAnLW1hJywgJzIwMCcsICctaW1hZScsICc8aW5maWxlLm1hZT4nLCAnLW9tYWUnLCAnPG91dGZpbGUubWFlPic=

>  <r_lp_tautomer_probability>  (301) 
1

>  <r_epik_Ionization_Penalty>  (301) 
0.289221

>  <r_epik_Ionization_Penalty_Charging>  (301) 
0.289216

>  <r_epik_Ionization_Penalty_Neutral>  (301) 
4.6941e-06

>  <r_epik_State_Penalty>  (301) 
0.260875

>  <r_epik_Charging_Adjusted_Penalty>  (301) 
0.550091

>  <i_epik_Tot_Q>  (301) 
2

>  <i_epik_Tot_abs_Q>  (301) 
2

>  <s_lp_Force_Field>  (301) 
OPLS3e

>  <r_lp_Energy>  (301) 
95.9392

>  <b_lp_Chiralities_Consistent>  (301) 
1

>  <s_lp_Variant>  (301) 
104:0-1

>  <s_i_glide_gridfile>  (301) 
pfpi4k_grid

>  <i_i_glide_lignum>  (301) 
22

>  <i_i_glide_rotatable_bonds>  (301) 
2

>  <r_i_docking_score>  (301) 
-2.84093

>  <r_i_glide_ligand_efficiency>  (301) 
-0.0887789

>  <r_i_glide_ligand_efficiency_sa>  (301) 
-0.281856

>  <r_i_glide_ligand_efficiency_ln>  (301) 
-0.636161

>  <r_i_glide_gscore>  (301) 
-2.84093

>  <r_i_glide_lipo>  (301) 
-0.572893

>  <r_i_glide_hbond>  (301) 
-0.169975

>  <r_i_glide_metal>  (301) 
-0

>  <r_i_glide_rewards>  (301) 
-0.281881

>  <r_i_glide_evdw>  (301) 
-25.7365

>  <r_i_glide_ecoul>  (301) 
-3.43983

>  <r_i_glide_erotb>  (301) 
0

>  <r_i_glide_esite>  (301) 
-0.0133772

>  <r_i_glide_emodel>  (301) 
-34.0346

>  <r_i_glide_energy>  (301) 
-29.1763

>  <r_i_glide_einternal>  (301) 
0.867066

>  <r_i_glide_intrahb_reward>  (301) 
-0

>  <i_i_glide_confnum>  (301) 
1

>  <i_i_glide_posenum>  (301) 
30

>  <r_i_glide_eff_state_penalty>  (301) 
0

>  <ligand_id>  (301) 
104

>  <original_smiles>  (301) 
COc1ccc2c3c1OC1CN4CC(C)C5CSC(C)(C5)C4CC4(O)C(C2)N(C)CCC314

>  <smiles>  (301) 
[H]OC12C([H])([H])C3([H])C4(C([H])([H])[H])SC([H])([H])C([H])(C4([H])[H])C([H])(C([H])([H])[H])C([H])([H])[N+]3([H])C([H])([H])C3([H])Oc4c(OC([H])([H])[H])c([H])c([H])c5c4C31C([H])([H])C([H])([H])[N+]([H])(C([H])([H])[H])C2([H])C5([H])[H]

$$$$
104:0:1
     RDKit          3D

 70 76  0  0  1  0  0  0  0  0999 V2000
    5.3257   -0.9541    0.1925 C   0  0  0  0  0  0  0  0  0  0  0  0
    4.9391   -1.9946    1.0800 O   0  0  0  0  0  0  0  0  0  0  0  0
    5.7264   -3.1217    1.1590 C   0  0  0  0  0  0  0  0  0  0  0  0
    6.9059   -3.3259    0.3845 C   0  0  0  0  0  0  0  0  0  0  0  0
    7.6498   -4.5279    0.4780 C   0  0  0  0  0  0  0  0  0  0  0  0
    7.2515   -5.5267    1.3819 C   0  0  0  0  0  0  0  0  0  0  0  0
    6.1264   -5.2383    2.1740 C   0  0  0  0  0  0  0  0  0  0  0  0
    5.3155   -4.1279    2.0642 C   0  0  0  0  0  0  0  0  0  0  0  0
    4.1959   -4.1798    2.8508 O   0  0  0  0  0  0  0  0  0  0  0  0
    4.1377   -5.4765    3.4819 C   0  0  1  0  0  0  0  0  0  0  0  0
    2.9513   -6.2840    2.8996 C   0  0  0  0  0  0  0  0  0  0  0  0
    2.6111   -7.5809    3.5799 N   0  0  1  0  0  0  0  0  0  0  0  0
    1.7894   -8.4967    2.7374 C   0  0  0  0  0  0  0  0  0  0  0  0
    0.4786   -8.9011    3.4552 C   0  0  1  0  0  0  0  0  0  0  0  0
   -0.5172   -9.5679    2.4854 C   0  0  0  0  0  0  0  0  0  0  0  0
    0.6711   -9.7426    4.7430 C   0  0  1  0  0  0  0  0  0  0  0  0
    1.2463  -11.1457    4.5231 C   0  0  0  0  0  0  0  0  0  0  0  0
    3.0447  -10.9886    4.5535 S   0  0  0  0  0  0  0  0  0  0  0  0
    3.0602   -9.3627    5.3906 C   0  0  2  0  0  0  0  0  0  0  0  0
    3.9020   -9.5011    6.6792 C   0  0  0  0  0  0  0  0  0  0  0  0
    1.5901   -9.0827    5.7843 C   0  0  0  0  0  0  0  0  0  0  0  0
    3.6420   -8.2222    4.4731 C   0  0  1  0  0  0  0  0  0  0  0  0
    5.0005   -8.6105    3.7950 C   0  0  0  0  0  0  0  0  0  0  0  0
    5.6959   -7.5902    2.8499 C   0  0  2  0  0  0  0  0  0  0  0  0
    5.1008   -7.8445    1.5875 O   0  0  0  0  0  0  0  0  0  0  0  0
    7.2295   -7.8399    2.6423 C   0  0  1  0  0  0  0  0  0  0  0  0
    7.7938   -6.9537    1.4952 C   0  0  0  0  0  0  0  0  0  0  0  0
    7.9890   -7.6280    3.9129 N   0  0  1  0  0  0  0  0  0  0  0  0
    9.4069   -8.0655    3.8679 C   0  0  0  0  0  0  0  0  0  0  0  0
    7.8538   -6.2545    4.4503 C   0  0  0  0  0  0  0  0  0  0  0  0
    6.3741   -5.8768    4.5812 C   0  0  0  0  0  0  0  0  0  0  0  0
    5.5636   -6.1000    3.2698 C   0  0  1  0  0  0  0  0  0  0  0  0
    4.5923   -0.1505    0.2486 H   0  0  0  0  0  0  0  0  0  0  0  0
    5.3556   -1.2915   -0.8444 H   0  0  0  0  0  0  0  0  0  0  0  0
    6.2933   -0.5303    0.4645 H   0  0  0  0  0  0  0  0  0  0  0  0
    7.2436   -2.5962   -0.3298 H   0  0  0  0  0  0  0  0  0  0  0  0
    8.4920   -4.7023   -0.1808 H   0  0  0  0  0  0  0  0  0  0  0  0
    3.9423   -5.2851    4.5421 H   0  0  0  0  0  0  0  0  0  0  0  0
    2.0671   -5.6576    2.9957 H   0  0  0  0  0  0  0  0  0  0  0  0
    3.0730   -6.3901    1.8221 H   0  0  0  0  0  0  0  0  0  0  0  0
    1.4862   -7.9662    1.8360 H   0  0  0  0  0  0  0  0  0  0  0  0
    2.3631   -9.3502    2.3768 H   0  0  0  0  0  0  0  0  0  0  0  0
   -0.0132   -7.9788    3.7699 H   0  0  0  0  0  0  0  0  0  0  0  0
   -0.1034  -10.4679    2.0274 H   0  0  0  0  0  0  0  0  0  0  0  0
   -0.8080   -8.8870    1.6829 H   0  0  0  0  0  0  0  0  0  0  0  0
   -1.4325   -9.8577    3.0053 H   0  0  0  0  0  0  0  0  0  0  0  0
   -0.3134   -9.8499    5.1973 H   0  0  0  0  0  0  0  0  0  0  0  0
    0.9376  -11.7866    5.3461 H   0  0  0  0  0  0  0  0  0  0  0  0
    0.9072  -11.6420    3.6153 H   0  0  0  0  0  0  0  0  0  0  0  0
    3.9283   -8.5773    7.2598 H   0  0  0  0  0  0  0  0  0  0  0  0
    4.9295   -9.7955    6.4688 H   0  0  0  0  0  0  0  0  0  0  0  0
    3.4959  -10.2788    7.3315 H   0  0  0  0  0  0  0  0  0  0  0  0
    1.3705   -8.0254    5.9335 H   0  0  0  0  0  0  0  0  0  0  0  0
    1.3724   -9.5617    6.7414 H   0  0  0  0  0  0  0  0  0  0  0  0
    3.8859   -7.4389    5.1840 H   0  0  0  0  0  0  0  0  0  0  0  0
    5.6906   -8.8450    4.6022 H   0  0  0  0  0  0  0  0  0  0  0  0
    4.9069   -9.5500    3.2481 H   0  0  0  0  0  0  0  0  0  0  0  0
    4.1721   -7.6937    1.6545 H   0  0  0  0  0  0  0  0  0  0  0  0
    7.3759   -8.8840    2.3652 H   0  0  0  0  0  0  0  0  0  0  0  0
    7.5631   -7.4459    0.5526 H   0  0  0  0  0  0  0  0  0  0  0  0
    8.8791   -6.9010    1.5142 H   0  0  0  0  0  0  0  0  0  0  0  0
   10.0336   -7.3804    3.2904 H   0  0  0  0  0  0  0  0  0  0  0  0
    9.4960   -9.0646    3.4393 H   0  0  0  0  0  0  0  0  0  0  0  0
    9.8174   -8.0990    4.8795 H   0  0  0  0  0  0  0  0  0  0  0  0
    8.3257   -6.2025    5.4311 H   0  0  0  0  0  0  0  0  0  0  0  0
    8.3838   -5.5341    3.8241 H   0  0  0  0  0  0  0  0  0  0  0  0
    5.9374   -6.4642    5.3912 H   0  0  0  0  0  0  0  0  0  0  0  0
    6.3065   -4.8360    4.9028 H   0  0  0  0  0  0  0  0  0  0  0  0
    1.9316   -7.2801    4.2679 H   0  0  0  0  0  0  0  0  0  0  0  0
    7.5539   -8.2385    4.5896 H   0  0  0  0  0  0  0  0  0  0  0  0
  1  2  1  0
  1 33  1  0
  1 34  1  0
  1 35  1  0
  2  3  1  0
  3  8  2  0
  3  4  1  0
  4  5  2  0
  4 36  1  0
  5  6  1  0
  5 37  1  0
  6 27  1  0
  6  7  2  0
  7 32  1  0
  7  8  1  0
  8  9  1  0
  9 10  1  0
 10 32  1  0
 10 11  1  0
 10 38  1  1
 11 12  1  0
 11 39  1  0
 11 40  1  0
 12 22  1  0
 12 13  1  0
 12 69  1  1
 13 14  1  0
 13 41  1  0
 13 42  1  0
 14 15  1  0
 14 16  1  0
 14 43  1  1
 15 44  1  0
 15 45  1  0
 15 46  1  0
 16 21  1  0
 16 17  1  0
 16 47  1  1
 17 18  1  0
 17 48  1  0
 17 49  1  0
 18 19  1  0
 19 20  1  1
 19 21  1  0
 19 22  1  0
 20 50  1  0
 20 51  1  0
 20 52  1  0
 21 53  1  0
 21 54  1  0
 22 23  1  0
 22 55  1  1
 23 24  1  0
 23 56  1  0
 23 57  1  0
 24 32  1  0
 24 25  1  6
 24 26  1  0
 25 58  1  0
 26 27  1  0
 26 28  1  0
 26 59  1  6
 27 60  1  0
 27 61  1  0
 28 29  1  0
 28 30  1  0
 28 70  1  1
 29 62  1  0
 29 63  1  0
 29 64  1  0
 30 31  1  0
 30 65  1  0
 30 66  1  0
 32 31  1  1
 31 67  1  0
 31 68  1  0
M  CHG  2  12   1  28   1
M  END
>  <i_m_ct_stereo_status>  (302) 
1

>  <s_m_source_file>  (302) 
/var/tmp/pbs.5076255.sched01/tmpt85fkz7r/123fjz13bl5.sdf

>  <i_m_source_file_index>  (302) 
22

>  <i_lp_mmshare_version>  (302) 
48012

>  <i_f3d_flags>  (302) 
0

>  <s_epik_input>  (302) 
W0NAXTEyM2M0YzVbY0hdW2NIXWMoT1tDSDNdKWM0T1tDQEhdMVtDSDJdTjZbQ0BASF0oW0NAXTcoW0NIM10pU1tDSDJdW0NAQEhdKFtDSDJdNylbQ0BASF0oW0NIMl02KVtDSDNdKVtDSDJdW0NAXTIoW09IXSlbQ0BASF0oW0NIMl01KU4oW0NIM10pW0NIMl1bQ0gyXTM=

>  <s_epik_cmdline>  (302) 
J2VwaWtfcHl0aG9uJywgJy1waHQnLCAnMi4wJywgJy1waCcsICc3LjAnLCAnLXRuJywgJzgnLCAnLW1hJywgJzIwMCcsICctaW1hZScsICc8aW5maWxlLm1hZT4nLCAnLW9tYWUnLCAnPG91dGZpbGUubWFlPic=

>  <r_lp_tautomer_probability>  (302) 
1

>  <r_epik_Ionization_Penalty>  (302) 
0.289221

>  <r_epik_Ionization_Penalty_Charging>  (302) 
0.289216

>  <r_epik_Ionization_Penalty_Neutral>  (302) 
4.6941e-06

>  <r_epik_State_Penalty>  (302) 
0.260875

>  <r_epik_Charging_Adjusted_Penalty>  (302) 
0.550091

>  <i_epik_Tot_Q>  (302) 
2

>  <i_epik_Tot_abs_Q>  (302) 
2

>  <s_lp_Force_Field>  (302) 
OPLS3e

>  <r_lp_Energy>  (302) 
95.9392

>  <b_lp_Chiralities_Consistent>  (302) 
1

>  <s_lp_Variant>  (302) 
104:0-1

>  <s_i_glide_gridfile>  (302) 
pfpi4k_grid

>  <i_i_glide_lignum>  (302) 
22

>  <i_i_glide_rotatable_bonds>  (302) 
2

>  <r_i_docking_score>  (302) 
-2.69213

>  <r_i_glide_ligand_efficiency>  (302) 
-0.0841291

>  <r_i_glide_ligand_efficiency_sa>  (302) 
-0.267093

>  <r_i_glide_ligand_efficiency_ln>  (302) 
-0.602842

>  <r_i_glide_gscore>  (302) 
-2.69213

>  <r_i_glide_lipo>  (302) 
-0.73992

>  <r_i_glide_hbond>  (302) 
0

>  <r_i_glide_metal>  (302) 
-0

>  <r_i_glide_rewards>  (302) 
-0.281881

>  <r_i_glide_evdw>  (302) 
-24.0922

>  <r_i_glide_ecoul>  (302) 
-3.05882

>  <r_i_glide_erotb>  (302) 
0

>  <r_i_glide_esite>  (302) 
-0.00689968

>  <r_i_glide_emodel>  (302) 
-32.5523

>  <r_i_glide_energy>  (302) 
-27.151

>  <r_i_glide_einternal>  (302) 
0.00671228

>  <r_i_glide_intrahb_reward>  (302) 
-0

>  <i_i_glide_confnum>  (302) 
1

>  <i_i_glide_posenum>  (302) 
13

>  <r_i_glide_eff_state_penalty>  (302) 
0

>  <ligand_id>  (302) 
104

>  <original_smiles>  (302) 
COc1ccc2c3c1OC1CN4CC(C)C5CSC(C)(C5)C4CC4(O)C(C2)N(C)CCC314

>  <smiles>  (302) 
[H]OC12C([H])([H])C3([H])C4(C([H])([H])[H])SC([H])([H])C([H])(C4([H])[H])C([H])(C([H])([H])[H])C([H])([H])[N+]3([H])C([H])([H])C3([H])Oc4c(OC([H])([H])[H])c([H])c([H])c5c4C31C([H])([H])C([H])([H])[N+]([H])(C([H])([H])[H])C2([H])C5([H])[H]

$$$$
104:0:2
     RDKit          3D

 70 76  0  0  1  0  0  0  0  0999 V2000
    2.9832    0.4361    1.4599 C   0  0  0  0  0  0  0  0  0  0  0  0
    3.2241   -0.7041    2.2717 O   0  0  0  0  0  0  0  0  0  0  0  0
    3.8866   -1.7719    1.7106 C   0  0  0  0  0  0  0  0  0  0  0  0
    4.6361   -1.6981    0.4993 C   0  0  0  0  0  0  0  0  0  0  0  0
    5.2581   -2.8464   -0.0538 C   0  0  0  0  0  0  0  0  0  0  0  0
    5.1832   -4.0743    0.6277 C   0  0  0  0  0  0  0  0  0  0  0  0
    4.5024   -4.0662    1.8583 C   0  0  0  0  0  0  0  0  0  0  0  0
    3.8046   -3.0053    2.3966 C   0  0  0  0  0  0  0  0  0  0  0  0
    3.0871   -3.3254    3.5184 O   0  0  0  0  0  0  0  0  0  0  0  0
    3.1819   -4.7482    3.7333 C   0  0  1  0  0  0  0  0  0  0  0  0
    1.8031   -5.4058    3.4793 C   0  0  0  0  0  0  0  0  0  0  0  0
    1.6610   -6.8541    3.8563 N   0  0  1  0  0  0  0  0  0  0  0  0
    0.5091   -7.5288    3.1932 C   0  0  0  0  0  0  0  0  0  0  0  0
   -0.4425   -8.1727    4.2289 C   0  0  1  0  0  0  0  0  0  0  0  0
   -1.7866   -8.5728    3.5829 C   0  0  0  0  0  0  0  0  0  0  0  0
    0.1763   -9.3338    5.0552 C   0  0  1  0  0  0  0  0  0  0  0  0
    0.5207  -10.5979    4.2572 C   0  0  0  0  0  0  0  0  0  0  0  0
    2.1860  -10.3794    3.5997 S   0  0  0  0  0  0  0  0  0  0  0  0
    2.6504   -9.0541    4.7670 C   0  0  2  0  0  0  0  0  0  0  0  0
    3.9189   -9.5170    5.5162 C   0  0  0  0  0  0  0  0  0  0  0  0
    1.4803   -8.9570    5.7769 C   0  0  0  0  0  0  0  0  0  0  0  0
    2.9085   -7.6788    4.0417 C   0  0  1  0  0  0  0  0  0  0  0  0
    3.8514   -7.8014    2.7971 C   0  0  0  0  0  0  0  0  0  0  0  0
    4.1851   -6.5271    1.9722 C   0  0  2  0  0  0  0  0  0  0  0  0
    3.1106   -6.4376    1.0472 O   0  0  0  0  0  0  0  0  0  0  0  0
    5.4879   -6.6480    1.1077 C   0  0  1  0  0  0  0  0  0  0  0  0
    5.6144   -5.4529    0.1204 C   0  0  0  0  0  0  0  0  0  0  0  0
    6.7065   -6.7764    1.9717 N   0  0  1  0  0  0  0  0  0  0  0  0
    7.9578   -7.1264    1.2497 C   0  0  0  0  0  0  0  0  0  0  0  0
    6.9019   -5.6186    2.8764 C   0  0  0  0  0  0  0  0  0  0  0  0
    5.6310   -5.3522    3.6889 C   0  0  0  0  0  0  0  0  0  0  0  0
    4.3538   -5.2257    2.8047 C   0  0  1  0  0  0  0  0  0  0  0  0
    2.4346    1.1762    2.0411 H   0  0  0  0  0  0  0  0  0  0  0  0
    2.3674    0.1698    0.6002 H   0  0  0  0  0  0  0  0  0  0  0  0
    3.8992    0.9194    1.1183 H   0  0  0  0  0  0  0  0  0  0  0  0
    4.7253   -0.7754   -0.0484 H   0  0  0  0  0  0  0  0  0  0  0  0
    5.7674   -2.7911   -1.0090 H   0  0  0  0  0  0  0  0  0  0  0  0
    3.4342   -4.8732    4.7911 H   0  0  0  0  0  0  0  0  0  0  0  0
    1.0762   -4.8678    4.0840 H   0  0  0  0  0  0  0  0  0  0  0  0
    1.4891   -5.2108    2.4551 H   0  0  0  0  0  0  0  0  0  0  0  0
   -0.0798   -6.7754    2.6732 H   0  0  0  0  0  0  0  0  0  0  0  0
    0.8293   -8.2184    2.4125 H   0  0  0  0  0  0  0  0  0  0  0  0
   -0.7003   -7.3971    4.9532 H   0  0  0  0  0  0  0  0  0  0  0  0
   -1.6639   -9.2853    2.7660 H   0  0  0  0  0  0  0  0  0  0  0  0
   -2.3185   -7.7065    3.1846 H   0  0  0  0  0  0  0  0  0  0  0  0
   -2.4469   -9.0449    4.3130 H   0  0  0  0  0  0  0  0  0  0  0  0
   -0.5634   -9.5994    5.8145 H   0  0  0  0  0  0  0  0  0  0  0  0
    0.5214  -11.4559    4.9326 H   0  0  0  0  0  0  0  0  0  0  0  0
   -0.1794  -10.8245    3.4552 H   0  0  0  0  0  0  0  0  0  0  0  0
    4.2434   -8.7951    6.2669 H   0  0  0  0  0  0  0  0  0  0  0  0
    4.7530   -9.6982    4.8388 H   0  0  0  0  0  0  0  0  0  0  0  0
    3.7450  -10.4627    6.0359 H   0  0  0  0  0  0  0  0  0  0  0  0
    1.4204   -7.9958    6.2857 H   0  0  0  0  0  0  0  0  0  0  0  0
    1.6218   -9.6956    6.5690 H   0  0  0  0  0  0  0  0  0  0  0  0
    3.4723   -7.1186    4.7810 H   0  0  0  0  0  0  0  0  0  0  0  0
    4.7829   -8.2264    3.1608 H   0  0  0  0  0  0  0  0  0  0  0  0
    3.4757   -8.5495    2.0985 H   0  0  0  0  0  0  0  0  0  0  0  0
    3.2822   -5.7266    0.4457 H   0  0  0  0  0  0  0  0  0  0  0  0
    5.4228   -7.5692    0.5269 H   0  0  0  0  0  0  0  0  0  0  0  0
    4.9878   -5.6688   -0.7438 H   0  0  0  0  0  0  0  0  0  0  0  0
    6.6203   -5.3591   -0.2791 H   0  0  0  0  0  0  0  0  0  0  0  0
    8.3632   -6.2859    0.6809 H   0  0  0  0  0  0  0  0  0  0  0  0
    7.8175   -7.9715    0.5732 H   0  0  0  0  0  0  0  0  0  0  0  0
    8.7087   -7.4141    1.9854 H   0  0  0  0  0  0  0  0  0  0  0  0
    7.7276   -5.8258    3.5572 H   0  0  0  0  0  0  0  0  0  0  0  0
    7.1878   -4.7325    2.3088 H   0  0  0  0  0  0  0  0  0  0  0  0
    5.5053   -6.1607    4.4112 H   0  0  0  0  0  0  0  0  0  0  0  0
    5.7783   -4.4482    4.2826 H   0  0  0  0  0  0  0  0  0  0  0  0
    1.3355   -6.7879    4.8130 H   0  0  0  0  0  0  0  0  0  0  0  0
    6.5332   -7.5703    2.5738 H   0  0  0  0  0  0  0  0  0  0  0  0
  1  2  1  0
  1 33  1  0
  1 34  1  0
  1 35  1  0
  2  3  1  0
  3  8  2  0
  3  4  1  0
  4  5  2  0
  4 36  1  0
  5  6  1  0
  5 37  1  0
  6 27  1  0
  6  7  2  0
  7 32  1  0
  7  8  1  0
  8  9  1  0
  9 10  1  0
 10 32  1  0
 10 11  1  0
 10 38  1  1
 11 12  1  0
 11 39  1  0
 11 40  1  0
 12 22  1  0
 12 13  1  0
 12 69  1  1
 13 14  1  0
 13 41  1  0
 13 42  1  0
 14 15  1  0
 14 16  1  0
 14 43  1  1
 15 44  1  0
 15 45  1  0
 15 46  1  0
 16 21  1  0
 16 17  1  0
 16 47  1  1
 17 18  1  0
 17 48  1  0
 17 49  1  0
 18 19  1  0
 19 20  1  1
 19 21  1  0
 19 22  1  0
 20 50  1  0
 20 51  1  0
 20 52  1  0
 21 53  1  0
 21 54  1  0
 22 23  1  0
 22 55  1  1
 23 24  1  0
 23 56  1  0
 23 57  1  0
 24 32  1  0
 24 25  1  6
 24 26  1  0
 25 58  1  0
 26 27  1  0
 26 28  1  0
 26 59  1  6
 27 60  1  0
 27 61  1  0
 28 29  1  0
 28 30  1  0
 28 70  1  1
 29 62  1  0
 29 63  1  0
 29 64  1  0
 30 31  1  0
 30 65  1  0
 30 66  1  0
 32 31  1  1
 31 67  1  0
 31 68  1  0
M  CHG  2  12   1  28   1
M  END
>  <i_m_ct_stereo_status>  (303) 
1

>  <s_m_source_file>  (303) 
/var/tmp/pbs.5076255.sched01/tmpt85fkz7r/123fjz13bl5.sdf

>  <i_m_source_file_index>  (303) 
22

>  <i_lp_mmshare_version>  (303) 
48012

>  <i_f3d_flags>  (303) 
0

>  <s_epik_input>  (303) 
W0NAXTEyM2M0YzVbY0hdW2NIXWMoT1tDSDNdKWM0T1tDQEhdMVtDSDJdTjZbQ0BASF0oW0NAXTcoW0NIM10pU1tDSDJdW0NAQEhdKFtDSDJdNylbQ0BASF0oW0NIMl02KVtDSDNdKVtDSDJdW0NAXTIoW09IXSlbQ0BASF0oW0NIMl01KU4oW0NIM10pW0NIMl1bQ0gyXTM=

>  <s_epik_cmdline>  (303) 
J2VwaWtfcHl0aG9uJywgJy1waHQnLCAnMi4wJywgJy1waCcsICc3LjAnLCAnLXRuJywgJzgnLCAnLW1hJywgJzIwMCcsICctaW1hZScsICc8aW5maWxlLm1hZT4nLCAnLW9tYWUnLCAnPG91dGZpbGUubWFlPic=

>  <r_lp_tautomer_probability>  (303) 
1

>  <r_epik_Ionization_Penalty>  (303) 
0.289221

>  <r_epik_Ionization_Penalty_Charging>  (303) 
0.289216

>  <r_epik_Ionization_Penalty_Neutral>  (303) 
4.6941e-06

>  <r_epik_State_Penalty>  (303) 
0.260875

>  <r_epik_Charging_Adjusted_Penalty>  (303) 
0.550091

>  <i_epik_Tot_Q>  (303) 
2

>  <i_epik_Tot_abs_Q>  (303) 
2

>  <s_lp_Force_Field>  (303) 
OPLS3e

>  <r_lp_Energy>  (303) 
95.9392

>  <b_lp_Chiralities_Consistent>  (303) 
1

>  <s_lp_Variant>  (303) 
104:0-1

>  <s_i_glide_gridfile>  (303) 
pfpi4k_grid

>  <i_i_glide_lignum>  (303) 
22

>  <i_i_glide_rotatable_bonds>  (303) 
2

>  <r_i_docking_score>  (303) 
-2.414

>  <r_i_glide_ligand_efficiency>  (303) 
-0.0754374

>  <r_i_glide_ligand_efficiency_sa>  (303) 
-0.239499

>  <r_i_glide_ligand_efficiency_ln>  (303) 
-0.54056

>  <r_i_glide_gscore>  (303) 
-2.414

>  <r_i_glide_lipo>  (303) 
-0.403872

>  <r_i_glide_hbond>  (303) 
0

>  <r_i_glide_metal>  (303) 
-0

>  <r_i_glide_rewards>  (303) 
-0.281881

>  <r_i_glide_evdw>  (303) 
-25.3763

>  <r_i_glide_ecoul>  (303) 
-3.0145

>  <r_i_glide_erotb>  (303) 
0

>  <r_i_glide_esite>  (303) 
-0.00725734

>  <r_i_glide_emodel>  (303) 
-32.8158

>  <r_i_glide_energy>  (303) 
-28.3907

>  <r_i_glide_einternal>  (303) 
0.610181

>  <r_i_glide_intrahb_reward>  (303) 
-0

>  <i_i_glide_confnum>  (303) 
1

>  <i_i_glide_posenum>  (303) 
1

>  <r_i_glide_eff_state_penalty>  (303) 
0

>  <ligand_id>  (303) 
104

>  <original_smiles>  (303) 
COc1ccc2c3c1OC1CN4CC(C)C5CSC(C)(C5)C4CC4(O)C(C2)N(C)CCC314

>  <smiles>  (303) 
[H]OC12C([H])([H])C3([H])C4(C([H])([H])[H])SC([H])([H])C([H])(C4([H])[H])C([H])(C([H])([H])[H])C([H])([H])[N+]3([H])C([H])([H])C3([H])Oc4c(OC([H])([H])[H])c([H])c([H])c5c4C31C([H])([H])C([H])([H])[N+]([H])(C([H])([H])[H])C2([H])C5([H])[H]

$$$$
105:1:0
     RDKit          3D

 55 59  0  0  1  0  0  0  0  0999 V2000
    8.4227   -3.0496   -0.1638 C   0  0  0  0  0  0  0  0  0  0  0  0
    7.5396   -4.1353    0.0718 O   0  0  0  0  0  0  0  0  0  0  0  0
    6.1533   -3.9209   -0.1953 C   0  0  2  0  0  0  0  0  0  0  0  0
    5.7625   -2.5432   -0.7743 C   0  0  0  0  0  0  0  0  0  0  0  0
    4.6462   -2.0067    0.1517 C   0  0  1  0  0  0  0  0  0  0  0  0
    3.7764   -1.1344   -0.5653 O   0  0  0  0  0  0  0  0  0  0  0  0
    4.0051   -3.2774    0.8292 C   0  0  2  0  0  0  0  0  0  0  0  0
    2.9329   -3.8006   -0.1864 C   0  0  0  0  0  0  0  0  0  0  0  0
    3.5582   -3.1769    2.3230 C   0  0  1  0  0  0  0  0  0  0  0  0
    3.0277   -1.7610    2.6607 C   0  0  0  0  0  0  0  0  0  0  0  0
    2.4787   -4.2546    2.6992 C   0  0  0  0  0  0  0  0  0  0  0  0
    1.4076   -3.8959    3.1769 O   0  0  0  0  0  0  0  0  0  0  0  0
    2.7583   -5.7889    2.5496 C   0  0  1  0  0  0  0  0  0  0  0  0
    1.5223   -6.6683    2.2915 C   0  0  0  0  0  0  0  0  0  0  0  0
    0.4920   -6.2630    1.7421 O   0  0  0  0  0  0  0  0  0  0  0  0
    1.7096   -8.1147    2.7666 C   0  0  1  0  0  0  0  0  0  0  0  0
    0.5887   -8.9279    2.4719 O   0  0  0  0  0  0  0  0  0  0  0  0
    3.0027   -8.7132    2.1700 C   0  0  0  0  0  0  0  0  0  0  0  0
    4.2601   -7.8144    2.3558 C   0  0  1  0  0  0  0  0  0  0  0  0
    5.4998   -8.5441    1.7999 C   0  0  0  0  0  0  0  0  0  0  0  0
    4.0224   -6.3634    1.7898 C   0  0  1  0  0  0  0  0  0  0  0  0
    3.8273   -6.5543    0.4004 O   0  0  0  0  0  0  0  0  0  0  0  0
    5.2659   -5.4278    1.9061 C   0  0  2  0  0  0  0  0  0  0  0  0
    5.3488   -4.8805    3.3338 C   0  0  0  0  0  0  0  0  0  0  0  0
    4.9025   -3.4369    3.1040 C   0  0  1  0  0  0  0  0  0  0  0  0
    5.8487   -3.2527    2.0802 O   0  0  0  0  0  0  0  0  0  0  0  0
    5.3000   -4.0899    1.0710 C   0  0  1  0  0  0  0  0  0  0  0  0
    9.4328   -3.3079    0.0491 H   0  0  0  0  0  0  0  0  0  0  0  0
    8.1035   -2.1894    0.4524 H   0  0  0  0  0  0  0  0  0  0  0  0
    8.3459   -2.7220   -1.2123 H   0  0  0  0  0  0  0  0  0  0  0  0
    5.8502   -4.6985   -0.8934 H   0  0  0  0  0  0  0  0  0  0  0  0
    6.5832   -1.8433   -0.7833 H   0  0  0  0  0  0  0  0  0  0  0  0
    5.3376   -2.6672   -1.7883 H   0  0  0  0  0  0  0  0  0  0  0  0
    5.1334   -1.3968    0.9035 H   0  0  0  0  0  0  0  0  0  0  0  0
    2.8826   -1.1996   -0.2515 H   0  0  0  0  0  0  0  0  0  0  0  0
    2.3242   -4.6555    0.1032 H   0  0  0  0  0  0  0  0  0  0  0  0
    3.3920   -4.0467   -1.1440 H   0  0  0  0  0  0  0  0  0  0  0  0
    2.1983   -3.0216   -0.3956 H   0  0  0  0  0  0  0  0  0  0  0  0
    3.8131   -1.0106    2.5902 H   0  0  0  0  0  0  0  0  0  0  0  0
    2.6456   -1.6960    3.6817 H   0  0  0  0  0  0  0  0  0  0  0  0
    2.2276   -1.4682    1.9806 H   0  0  0  0  0  0  0  0  0  0  0  0
    2.9319   -6.0157    3.5994 H   0  0  0  0  0  0  0  0  0  0  0  0
    1.8043   -8.0937    3.8538 H   0  0  0  0  0  0  0  0  0  0  0  0
    0.5604   -9.1098    1.5401 H   0  0  0  0  0  0  0  0  0  0  0  0
    3.1802   -9.6812    2.6390 H   0  0  0  0  0  0  0  0  0  0  0  0
    2.8486   -8.9260    1.1091 H   0  0  0  0  0  0  0  0  0  0  0  0
    4.4187   -7.7319    3.4321 H   0  0  0  0  0  0  0  0  0  0  0  0
    5.4933   -8.5845    0.7102 H   0  0  0  0  0  0  0  0  0  0  0  0
    5.5316   -9.5708    2.1631 H   0  0  0  0  0  0  0  0  0  0  0  0
    6.4267   -8.0747    2.1256 H   0  0  0  0  0  0  0  0  0  0  0  0
    3.7346   -5.7113   -0.0140 H   0  0  0  0  0  0  0  0  0  0  0  0
    6.1773   -5.9764    1.6781 H   0  0  0  0  0  0  0  0  0  0  0  0
    4.7830   -5.4036    4.0997 H   0  0  0  0  0  0  0  0  0  0  0  0
    6.3828   -4.9136    3.6719 H   0  0  0  0  0  0  0  0  0  0  0  0
    5.0908   -2.7800    3.9547 H   0  0  0  0  0  0  0  0  0  0  0  0
  1  2  1  0
  1 28  1  0
  1 29  1  0
  1 30  1  0
  2  3  1  0
  3 27  1  0
  3  4  1  0
  3 31  1  6
  4  5  1  0
  4 32  1  0
  4 33  1  0
  5  6  1  0
  5  7  1  0
  5 34  1  1
  6 35  1  0
  7 27  1  0
  7  8  1  6
  7  9  1  0
  8 36  1  0
  8 37  1  0
  8 38  1  0
  9 25  1  0
  9 10  1  6
  9 11  1  0
 10 39  1  0
 10 40  1  0
 10 41  1  0
 11 12  2  0
 11 13  1  0
 13 21  1  0
 13 14  1  0
 13 42  1  1
 14 15  2  0
 14 16  1  0
 16 17  1  0
 16 18  1  0
 16 43  1  1
 17 44  1  0
 18 19  1  0
 18 45  1  0
 18 46  1  0
 19 20  1  0
 19 21  1  0
 19 47  1  1
 20 48  1  0
 20 49  1  0
 20 50  1  0
 21 22  1  6
 21 23  1  0
 22 51  1  0
 23 27  1  0
 23 24  1  0
 23 52  1  6
 24 25  1  0
 24 53  1  0
 24 54  1  0
 25 26  1  0
 25 55  1  1
 27 26  1  1
M  END
>  <i_m_ct_stereo_status>  (304) 
1

>  <s_m_source_file>  (304) 
/var/tmp/pbs.5076255.sched01/tmpt85fkz7r/123fjz13bl5.sdf

>  <i_m_source_file_index>  (304) 
26

>  <i_lp_mmshare_version>  (304) 
48012

>  <i_f3d_flags>  (304) 
0

>  <s_epik_input>  (304) 
W0NIM11PW0NAQEhdMVtDSDJdW0NAQEhdKFtPSF0pW0NAXShbQ0BdMTIzKShbQ0gzXSlbQ0BdNChbQ0gzXSlbQ0BIXShPMylbQ0gyXVtDQEhdMltDQF01KFtPSF0pW0NAQEhdKEM0PU8pQyg9TylbQ0BASF0oW09IXSlbQ0gyXVtDQEhdNVtDSDNd

>  <s_epik_cmdline>  (304) 
J2VwaWtfcHl0aG9uJywgJy1waHQnLCAnMi4wJywgJy1waCcsICc3LjAnLCAnLXRuJywgJzgnLCAnLW1hJywgJzIwMCcsICctaW1hZScsICc8aW5maWxlLm1hZT4nLCAnLW9tYWUnLCAnPG91dGZpbGUubWFlPic=

>  <r_epik_Ionization_Penalty>  (304) 
0.133048

>  <r_epik_Ionization_Penalty_Charging>  (304) 
0

>  <r_epik_Ionization_Penalty_Neutral>  (304) 
0.133048

>  <r_epik_State_Penalty>  (304) 
1.24995

>  <r_epik_Charging_Adjusted_Penalty>  (304) 
1.24995

>  <i_epik_Tot_Q>  (304) 
0

>  <i_epik_Tot_abs_Q>  (304) 
0

>  <s_lp_Force_Field>  (304) 
OPLS3e

>  <r_lp_Energy>  (304) 
63.734

>  <b_lp_Chiralities_Consistent>  (304) 
1

>  <s_lp_Variant>  (304) 
105:0-2

>  <s_i_glide_gridfile>  (304) 
pfpi4k_grid

>  <i_i_glide_lignum>  (304) 
26

>  <i_i_glide_rotatable_bonds>  (304) 
4

>  <r_i_docking_score>  (304) 
-3.40675

>  <r_i_glide_ligand_efficiency>  (304) 
-0.126176

>  <r_i_glide_ligand_efficiency_sa>  (304) 
-0.378528

>  <r_i_glide_ligand_efficiency_ln>  (304) 
-0.793036

>  <r_i_glide_gscore>  (304) 
-3.40675

>  <r_i_glide_lipo>  (304) 
-0.33005

>  <r_i_glide_hbond>  (304) 
-0.261166

>  <r_i_glide_metal>  (304) 
-0

>  <r_i_glide_rewards>  (304) 
-0.815236

>  <r_i_glide_evdw>  (304) 
-21.5094

>  <r_i_glide_ecoul>  (304) 
-5.92243

>  <r_i_glide_erotb>  (304) 
0

>  <r_i_glide_esite>  (304) 
-0.0364662

>  <r_i_glide_emodel>  (304) 
-20.5303

>  <r_i_glide_energy>  (304) 
-27.4318

>  <r_i_glide_einternal>  (304) 
25.9165

>  <r_i_glide_intrahb_reward>  (304) 
-0

>  <i_i_glide_confnum>  (304) 
1

>  <i_i_glide_posenum>  (304) 
28

>  <r_i_glide_eff_state_penalty>  (304) 
0

>  <ligand_id>  (304) 
105

>  <original_smiles>  (304) 
COC1CC(O)C2(C)C3(C)C(=O)C4C(=O)C(O)CC(C)C4(O)C4CC3OC142

>  <smiles>  (304) 
[H]OC1([H])C(=O)C2([H])C(=O)C3(C([H])([H])[H])C4([H])OC5(C([H])(OC([H])([H])[H])C([H])([H])C([H])(O[H])C53C([H])([H])[H])C([H])(C4([H])[H])C2(O[H])C([H])(C([H])([H])[H])C1([H])[H]

$$$$
105:1:1
     RDKit          3D

 55 59  0  0  1  0  0  0  0  0999 V2000
    8.0073   -2.8170    0.0001 C   0  0  0  0  0  0  0  0  0  0  0  0
    7.1287   -3.9261    0.1152 O   0  0  0  0  0  0  0  0  0  0  0  0
    5.7289   -3.6456    0.0692 C   0  0  2  0  0  0  0  0  0  0  0  0
    5.3139   -2.1785   -0.2136 C   0  0  0  0  0  0  0  0  0  0  0  0
    4.3385   -1.7972    0.9220 C   0  0  1  0  0  0  0  0  0  0  0  0
    3.4042   -0.7771    0.5789 O   0  0  0  0  0  0  0  0  0  0  0  0
    3.7387   -3.1546    1.4441 C   0  0  2  0  0  0  0  0  0  0  0  0
    2.5462   -3.4693    0.4825 C   0  0  0  0  0  0  0  0  0  0  0  0
    3.4564   -3.3209    2.9738 C   0  0  1  0  0  0  0  0  0  0  0  0
    3.0197   -1.9797    3.6129 C   0  0  0  0  0  0  0  0  0  0  0  0
    2.3772   -4.4305    3.2595 C   0  0  0  0  0  0  0  0  0  0  0  0
    1.3466   -4.1337    3.8678 O   0  0  0  0  0  0  0  0  0  0  0  0
    2.6001   -5.9220    2.8383 C   0  0  1  0  0  0  0  0  0  0  0  0
    1.3157   -6.7419    2.5895 C   0  0  0  0  0  0  0  0  0  0  0  0
    0.2460   -6.2517    2.2236 O   0  0  0  0  0  0  0  0  0  0  0  0
    1.5273   -8.2447    2.8065 C   0  0  1  0  0  0  0  0  0  0  0  0
    0.3319   -8.9678    2.5627 O   0  0  0  0  0  0  0  0  0  0  0  0
    2.7079   -8.7444    1.9397 C   0  0  0  0  0  0  0  0  0  0  0  0
    4.0051   -7.8981    2.1182 C   0  0  1  0  0  0  0  0  0  0  0  0
    5.1523   -8.5371    1.3095 C   0  0  0  0  0  0  0  0  0  0  0  0
    3.7492   -6.3633    1.8436 C   0  0  1  0  0  0  0  0  0  0  0  0
    3.3828   -6.2715    0.4839 O   0  0  0  0  0  0  0  0  0  0  0  0
    5.0322   -5.4836    1.9786 C   0  0  2  0  0  0  0  0  0  0  0  0
    5.2984   -5.1940    3.4612 C   0  0  0  0  0  0  0  0  0  0  0  0
    4.8739   -3.7299    3.5341 C   0  0  1  0  0  0  0  0  0  0  0  0
    5.7078   -3.3856    2.4559 O   0  0  0  0  0  0  0  0  0  0  0  0
    5.0213   -4.0201    1.3844 C   0  0  1  0  0  0  0  0  0  0  0  0
    9.0401   -3.1233    0.0486 H   0  0  0  0  0  0  0  0  0  0  0  0
    7.7926   -2.0878    0.7936 H   0  0  0  0  0  0  0  0  0  0  0  0
    7.8369   -2.3083   -0.9549 H   0  0  0  0  0  0  0  0  0  0  0  0
    5.3325   -4.2932   -0.7116 H   0  0  0  0  0  0  0  0  0  0  0  0
    6.1541   -1.4942   -0.1885 H   0  0  0  0  0  0  0  0  0  0  0  0
    4.7905   -2.1160   -1.1782 H   0  0  0  0  0  0  0  0  0  0  0  0
    4.9426   -1.3513    1.6997 H   0  0  0  0  0  0  0  0  0  0  0  0
    2.7773   -1.1095   -0.0499 H   0  0  0  0  0  0  0  0  0  0  0  0
    1.9634   -4.3638    0.6894 H   0  0  0  0  0  0  0  0  0  0  0  0
    2.8869   -3.5632   -0.5486 H   0  0  0  0  0  0  0  0  0  0  0  0
    1.8159   -2.6619    0.5078 H   0  0  0  0  0  0  0  0  0  0  0  0
    3.8175   -1.2389    3.5787 H   0  0  0  0  0  0  0  0  0  0  0  0
    2.7557   -2.0884    4.6669 H   0  0  0  0  0  0  0  0  0  0  0  0
    2.1611   -1.5586    3.0891 H   0  0  0  0  0  0  0  0  0  0  0  0
    2.8903   -6.3246    3.8077 H   0  0  0  0  0  0  0  0  0  0  0  0
    1.7611   -8.4098    3.8569 H   0  0  0  0  0  0  0  0  0  0  0  0
    0.5155   -9.8941    2.6029 H   0  0  0  0  0  0  0  0  0  0  0  0
    2.9183   -9.7824    2.2033 H   0  0  0  0  0  0  0  0  0  0  0  0
    2.4208   -8.7623    0.8856 H   0  0  0  0  0  0  0  0  0  0  0  0
    4.2920   -8.0064    3.1684 H   0  0  0  0  0  0  0  0  0  0  0  0
    5.0122   -8.3922    0.2386 H   0  0  0  0  0  0  0  0  0  0  0  0
    5.1958   -9.6121    1.4882 H   0  0  0  0  0  0  0  0  0  0  0  0
    6.1267   -8.1439    1.5996 H   0  0  0  0  0  0  0  0  0  0  0  0
    4.1159   -6.5492   -0.0463 H   0  0  0  0  0  0  0  0  0  0  0  0
    5.8982   -5.9955    1.5609 H   0  0  0  0  0  0  0  0  0  0  0  0
    4.8089   -5.8365    4.1877 H   0  0  0  0  0  0  0  0  0  0  0  0
    6.3647   -5.2857    3.6683 H   0  0  0  0  0  0  0  0  0  0  0  0
    5.1789   -3.2351    4.4571 H   0  0  0  0  0  0  0  0  0  0  0  0
  1  2  1  0
  1 28  1  0
  1 29  1  0
  1 30  1  0
  2  3  1  0
  3 27  1  0
  3  4  1  0
  3 31  1  6
  4  5  1  0
  4 32  1  0
  4 33  1  0
  5  6  1  0
  5  7  1  0
  5 34  1  1
  6 35  1  0
  7 27  1  0
  7  8  1  6
  7  9  1  0
  8 36  1  0
  8 37  1  0
  8 38  1  0
  9 25  1  0
  9 10  1  1
  9 11  1  0
 10 39  1  0
 10 40  1  0
 10 41  1  0
 11 12  2  0
 11 13  1  0
 13 21  1  0
 13 14  1  0
 13 42  1  1
 14 15  2  0
 14 16  1  0
 16 17  1  0
 16 18  1  0
 16 43  1  1
 17 44  1  0
 18 19  1  0
 18 45  1  0
 18 46  1  0
 19 20  1  0
 19 21  1  0
 19 47  1  1
 20 48  1  0
 20 49  1  0
 20 50  1  0
 21 22  1  6
 21 23  1  0
 22 51  1  0
 23 27  1  0
 23 24  1  0
 23 52  1  6
 24 25  1  0
 24 53  1  0
 24 54  1  0
 25 26  1  0
 25 55  1  1
 27 26  1  1
M  END
>  <i_m_ct_stereo_status>  (305) 
1

>  <s_m_source_file>  (305) 
/var/tmp/pbs.5076255.sched01/tmpt85fkz7r/123fjz13bl5.sdf

>  <i_m_source_file_index>  (305) 
26

>  <i_lp_mmshare_version>  (305) 
48012

>  <i_f3d_flags>  (305) 
0

>  <s_epik_input>  (305) 
W0NIM11PW0NAQEhdMVtDSDJdW0NAQEhdKFtPSF0pW0NAXShbQ0BdMTIzKShbQ0gzXSlbQ0BdNChbQ0gzXSlbQ0BIXShPMylbQ0gyXVtDQEhdMltDQF01KFtPSF0pW0NAQEhdKEM0PU8pQyg9TylbQ0BASF0oW09IXSlbQ0gyXVtDQEhdNVtDSDNd

>  <s_epik_cmdline>  (305) 
J2VwaWtfcHl0aG9uJywgJy1waHQnLCAnMi4wJywgJy1waCcsICc3LjAnLCAnLXRuJywgJzgnLCAnLW1hJywgJzIwMCcsICctaW1hZScsICc8aW5maWxlLm1hZT4nLCAnLW9tYWUnLCAnPG91dGZpbGUubWFlPic=

>  <r_epik_Ionization_Penalty>  (305) 
0.133048

>  <r_epik_Ionization_Penalty_Charging>  (305) 
0

>  <r_epik_Ionization_Penalty_Neutral>  (305) 
0.133048

>  <r_epik_State_Penalty>  (305) 
1.24995

>  <r_epik_Charging_Adjusted_Penalty>  (305) 
1.24995

>  <i_epik_Tot_Q>  (305) 
0

>  <i_epik_Tot_abs_Q>  (305) 
0

>  <s_lp_Force_Field>  (305) 
OPLS3e

>  <r_lp_Energy>  (305) 
63.734

>  <b_lp_Chiralities_Consistent>  (305) 
1

>  <s_lp_Variant>  (305) 
105:0-2

>  <s_i_glide_gridfile>  (305) 
pfpi4k_grid

>  <i_i_glide_lignum>  (305) 
26

>  <i_i_glide_rotatable_bonds>  (305) 
4

>  <r_i_docking_score>  (305) 
-3.06788

>  <r_i_glide_ligand_efficiency>  (305) 
-0.113625

>  <r_i_glide_ligand_efficiency_sa>  (305) 
-0.340876

>  <r_i_glide_ligand_efficiency_ln>  (305) 
-0.714152

>  <r_i_glide_gscore>  (305) 
-3.06788

>  <r_i_glide_lipo>  (305) 
-0.342699

>  <r_i_glide_hbond>  (305) 
-0.296841

>  <r_i_glide_metal>  (305) 
-0

>  <r_i_glide_rewards>  (305) 
-0.815236

>  <r_i_glide_evdw>  (305) 
-20.9287

>  <r_i_glide_ecoul>  (305) 
-3.56155

>  <r_i_glide_erotb>  (305) 
0

>  <r_i_glide_esite>  (305) 
-0.0324392

>  <r_i_glide_emodel>  (305) 
-18.4582

>  <r_i_glide_energy>  (305) 
-24.4903

>  <r_i_glide_einternal>  (305) 
23.3935

>  <r_i_glide_intrahb_reward>  (305) 
-0

>  <i_i_glide_confnum>  (305) 
1

>  <i_i_glide_posenum>  (305) 
36

>  <r_i_glide_eff_state_penalty>  (305) 
0

>  <ligand_id>  (305) 
105

>  <original_smiles>  (305) 
COC1CC(O)C2(C)C3(C)C(=O)C4C(=O)C(O)CC(C)C4(O)C4CC3OC142

>  <smiles>  (305) 
[H]OC1([H])C(=O)C2([H])C(=O)C3(C([H])([H])[H])C4([H])OC5(C([H])(OC([H])([H])[H])C([H])([H])C([H])(O[H])C53C([H])([H])[H])C([H])(C4([H])[H])C2(O[H])C([H])(C([H])([H])[H])C1([H])[H]

$$$$
105:1:2
     RDKit          3D

 55 59  0  0  1  0  0  0  0  0999 V2000
    8.0861   -3.0097   -1.8699 C   0  0  0  0  0  0  0  0  0  0  0  0
    7.3015   -2.9974   -0.7105 O   0  0  0  0  0  0  0  0  0  0  0  0
    5.9433   -3.2479   -0.9641 C   0  0  2  0  0  0  0  0  0  0  0  0
    5.2757   -2.1189   -1.7677 C   0  0  0  0  0  0  0  0  0  0  0  0
    4.0717   -1.6448   -0.9366 C   0  0  1  0  0  0  0  0  0  0  0  0
    3.0629   -1.2881   -1.8424 O   0  0  0  0  0  0  0  0  0  0  0  0
    3.7363   -2.8234    0.0554 C   0  0  2  0  0  0  0  0  0  0  0  0
    2.8297   -3.8082   -0.7302 C   0  0  0  0  0  0  0  0  0  0  0  0
    3.3250   -2.4863    1.5169 C   0  0  1  0  0  0  0  0  0  0  0  0
    2.4881   -1.2013    1.5886 C   0  0  0  0  0  0  0  0  0  0  0  0
    2.5813   -3.6683    2.2387 C   0  0  0  0  0  0  0  0  0  0  0  0
    1.5432   -3.4558    2.8593 O   0  0  0  0  0  0  0  0  0  0  0  0
    3.2253   -5.0853    2.3836 C   0  0  1  0  0  0  0  0  0  0  0  0
    2.2471   -6.2574    2.4514 C   0  0  0  0  0  0  0  0  0  0  0  0
    1.1276   -6.2346    1.9165 O   0  0  0  0  0  0  0  0  0  0  0  0
    2.8044   -7.4557    3.2189 C   0  0  1  0  0  0  0  0  0  0  0  0
    1.9410   -8.5742    3.1723 O   0  0  0  0  0  0  0  0  0  0  0  0
    4.1965   -7.8580    2.6780 C   0  0  0  0  0  0  0  0  0  0  0  0
    5.1853   -6.6687    2.5389 C   0  0  1  0  0  0  0  0  0  0  0  0
    6.5639   -7.1777    2.0732 C   0  0  0  0  0  0  0  0  0  0  0  0
    4.5632   -5.5170    1.6631 C   0  0  1  0  0  0  0  0  0  0  0  0
    4.3668   -6.0971    0.3729 O   0  0  0  0  0  0  0  0  0  0  0  0
    5.5100   -4.3021    1.4542 C   0  0  2  0  0  0  0  0  0  0  0  0
    5.5128   -3.3914    2.6737 C   0  0  0  0  0  0  0  0  0  0  0  0
    4.6978   -2.2124    2.1898 C   0  0  1  0  0  0  0  0  0  0  0  0
    5.5395   -2.0736    1.0705 O   0  0  0  0  0  0  0  0  0  0  0  0
    5.1771   -3.2509    0.3486 C   0  0  1  0  0  0  0  0  0  0  0  0
    9.0666   -2.8095   -1.4928 H   0  0  0  0  0  0  0  0  0  0  0  0
    7.7962   -2.2312   -2.5683 H   0  0  0  0  0  0  0  0  0  0  0  0
    8.0941   -3.9616   -2.3825 H   0  0  0  0  0  0  0  0  0  0  0  0
    5.8368   -4.2118   -1.4590 H   0  0  0  0  0  0  0  0  0  0  0  0
    5.9323   -1.2655   -1.9494 H   0  0  0  0  0  0  0  0  0  0  0  0
    4.9622   -2.5031   -2.7337 H   0  0  0  0  0  0  0  0  0  0  0  0
    4.3960   -0.7306   -0.4155 H   0  0  0  0  0  0  0  0  0  0  0  0
    2.2589   -1.1039   -1.3319 H   0  0  0  0  0  0  0  0  0  0  0  0
    2.4693   -4.6853   -0.2030 H   0  0  0  0  0  0  0  0  0  0  0  0
    3.3364   -4.1597   -1.6358 H   0  0  0  0  0  0  0  0  0  0  0  0
    1.9165   -3.3070   -1.0579 H   0  0  0  0  0  0  0  0  0  0  0  0
    3.0413   -0.3198    1.2597 H   0  0  0  0  0  0  0  0  0  0  0  0
    2.1209   -0.9881    2.5972 H   0  0  0  0  0  0  0  0  0  0  0  0
    1.6356   -1.3337    0.9362 H   0  0  0  0  0  0  0  0  0  0  0  0
    3.5019   -5.0083    3.4370 H   0  0  0  0  0  0  0  0  0  0  0  0
    2.9171   -7.1640    4.2663 H   0  0  0  0  0  0  0  0  0  0  0  0
    2.3020   -9.2734    3.6922 H   0  0  0  0  0  0  0  0  0  0  0  0
    4.6347   -8.6071    3.3400 H   0  0  0  0  0  0  0  0  0  0  0  0
    4.0765   -8.3484    1.7084 H   0  0  0  0  0  0  0  0  0  0  0  0
    5.3425   -6.2780    3.5449 H   0  0  0  0  0  0  0  0  0  0  0  0
    6.5513   -7.4764    1.0241 H   0  0  0  0  0  0  0  0  0  0  0  0
    6.8673   -8.0426    2.6594 H   0  0  0  0  0  0  0  0  0  0  0  0
    7.3442   -6.4284    2.2087 H   0  0  0  0  0  0  0  0  0  0  0  0
    3.9710   -5.4510   -0.1886 H   0  0  0  0  0  0  0  0  0  0  0  0
    6.5240   -4.6470    1.3039 H   0  0  0  0  0  0  0  0  0  0  0  0
    5.1882   -3.8134    3.6109 H   0  0  0  0  0  0  0  0  0  0  0  0
    6.5184   -3.0293    2.8476 H   0  0  0  0  0  0  0  0  0  0  0  0
    4.7260   -1.3530    2.8599 H   0  0  0  0  0  0  0  0  0  0  0  0
  1  2  1  0
  1 28  1  0
  1 29  1  0
  1 30  1  0
  2  3  1  0
  3 27  1  0
  3  4  1  0
  3 31  1  6
  4  5  1  0
  4 32  1  0
  4 33  1  0
  5  6  1  0
  5  7  1  0
  5 34  1  1
  6 35  1  0
  7 27  1  0
  7  8  1  6
  7  9  1  0
  8 36  1  0
  8 37  1  0
  8 38  1  0
  9 25  1  0
  9 10  1  6
  9 11  1  0
 10 39  1  0
 10 40  1  0
 10 41  1  0
 11 12  2  0
 11 13  1  0
 13 21  1  0
 13 14  1  0
 13 42  1  1
 14 15  2  0
 14 16  1  0
 16 17  1  0
 16 18  1  0
 16 43  1  1
 17 44  1  0
 18 19  1  0
 18 45  1  0
 18 46  1  0
 19 20  1  0
 19 21  1  0
 19 47  1  1
 20 48  1  0
 20 49  1  0
 20 50  1  0
 21 22  1  6
 21 23  1  0
 22 51  1  0
 23 27  1  0
 23 24  1  0
 23 52  1  6
 24 25  1  0
 24 53  1  0
 24 54  1  0
 25 26  1  0
 25 55  1  1
 27 26  1  1
M  END
>  <i_m_ct_stereo_status>  (306) 
1

>  <s_m_source_file>  (306) 
/var/tmp/pbs.5076255.sched01/tmpt85fkz7r/123fjz13bl5.sdf

>  <i_m_source_file_index>  (306) 
26

>  <i_lp_mmshare_version>  (306) 
48012

>  <i_f3d_flags>  (306) 
0

>  <s_epik_input>  (306) 
W0NIM11PW0NAQEhdMVtDSDJdW0NAQEhdKFtPSF0pW0NAXShbQ0BdMTIzKShbQ0gzXSlbQ0BdNChbQ0gzXSlbQ0BIXShPMylbQ0gyXVtDQEhdMltDQF01KFtPSF0pW0NAQEhdKEM0PU8pQyg9TylbQ0BASF0oW09IXSlbQ0gyXVtDQEhdNVtDSDNd

>  <s_epik_cmdline>  (306) 
J2VwaWtfcHl0aG9uJywgJy1waHQnLCAnMi4wJywgJy1waCcsICc3LjAnLCAnLXRuJywgJzgnLCAnLW1hJywgJzIwMCcsICctaW1hZScsICc8aW5maWxlLm1hZT4nLCAnLW9tYWUnLCAnPG91dGZpbGUubWFlPic=

>  <r_epik_Ionization_Penalty>  (306) 
0.133048

>  <r_epik_Ionization_Penalty_Charging>  (306) 
0

>  <r_epik_Ionization_Penalty_Neutral>  (306) 
0.133048

>  <r_epik_State_Penalty>  (306) 
1.24995

>  <r_epik_Charging_Adjusted_Penalty>  (306) 
1.24995

>  <i_epik_Tot_Q>  (306) 
0

>  <i_epik_Tot_abs_Q>  (306) 
0

>  <s_lp_Force_Field>  (306) 
OPLS3e

>  <r_lp_Energy>  (306) 
63.734

>  <b_lp_Chiralities_Consistent>  (306) 
1

>  <s_lp_Variant>  (306) 
105:0-2

>  <s_i_glide_gridfile>  (306) 
pfpi4k_grid

>  <i_i_glide_lignum>  (306) 
26

>  <i_i_glide_rotatable_bonds>  (306) 
4

>  <r_i_docking_score>  (306) 
-2.81768

>  <r_i_glide_ligand_efficiency>  (306) 
-0.104359

>  <r_i_glide_ligand_efficiency_sa>  (306) 
-0.313076

>  <r_i_glide_ligand_efficiency_ln>  (306) 
-0.65591

>  <r_i_glide_gscore>  (306) 
-2.81768

>  <r_i_glide_lipo>  (306) 
-0.319312

>  <r_i_glide_hbond>  (306) 
-0.200955

>  <r_i_glide_metal>  (306) 
-0

>  <r_i_glide_rewards>  (306) 
-0.815236

>  <r_i_glide_evdw>  (306) 
-10.3634

>  <r_i_glide_ecoul>  (306) 
-6.32845

>  <r_i_glide_erotb>  (306) 
0

>  <r_i_glide_esite>  (306) 
-0.014743

>  <r_i_glide_emodel>  (306) 
-21.408

>  <r_i_glide_energy>  (306) 
-16.6919

>  <r_i_glide_einternal>  (306) 
0.670807

>  <r_i_glide_intrahb_reward>  (306) 
-0

>  <i_i_glide_confnum>  (306) 
1

>  <i_i_glide_posenum>  (306) 
9

>  <r_i_glide_eff_state_penalty>  (306) 
0

>  <ligand_id>  (306) 
105

>  <original_smiles>  (306) 
COC1CC(O)C2(C)C3(C)C(=O)C4C(=O)C(O)CC(C)C4(O)C4CC3OC142

>  <smiles>  (306) 
[H]OC1([H])C(=O)C2([H])C(=O)C3(C([H])([H])[H])C4([H])OC5(C([H])(OC([H])([H])[H])C([H])([H])C([H])(O[H])C53C([H])([H])[H])C([H])(C4([H])[H])C2(O[H])C([H])(C([H])([H])[H])C1([H])[H]

$$$$
106:0:0
     RDKit          3D

 64 70  0  0  1  0  0  0  0  0999 V2000
    5.0738   -4.1037   -0.7384 C   0  0  0  0  0  0  0  0  0  0  0  0
    4.2336   -4.0107    0.5670 C   0  0  2  0  0  0  0  0  0  0  0  0
    3.0562   -3.0094    0.3149 C   0  0  0  0  0  0  0  0  0  0  0  0
    3.4862   -1.5391    0.0680 C   0  0  0  0  0  0  0  0  0  0  0  0
    4.5434   -1.0642    1.0615 C   0  0  0  0  0  0  0  0  0  0  0  0
    4.4860    0.0463    1.5808 O   0  0  0  0  0  0  0  0  0  0  0  0
    5.6872   -2.0299    1.3532 C   0  0  0  0  0  0  0  0  0  0  0  0
    5.0601   -3.3712    1.6866 C   0  0  0  0  0  0  0  0  0  0  0  0
    5.0659   -3.8359    2.9502 C   0  0  0  0  0  0  0  0  0  0  0  0
    4.2611   -5.0159    3.4459 C   0  0  0  0  0  0  0  0  0  0  0  0
    3.1762   -5.4965    2.4469 C   0  0  2  0  0  0  0  0  0  0  0  0
    2.5645   -6.9038    2.7922 C   0  0  1  0  0  0  0  0  0  0  0  0
    3.6211   -8.0212    2.6351 C   0  0  2  0  0  0  0  0  0  0  0  0
    4.3012   -7.9762    1.2554 C   0  0  0  0  0  0  0  0  0  0  0  0
    4.8175   -6.5733    0.8708 C   0  0  0  0  0  0  0  0  0  0  0  0
    3.7352   -5.4556    0.9865 C   0  0  2  0  0  0  0  0  0  0  0  0
    2.6886   -5.7947    0.0867 O   0  0  0  0  0  0  0  0  0  0  0  0
    3.0803   -9.3341    2.7633 O   0  0  0  0  0  0  0  0  0  0  0  0
    2.0086   -9.6592    3.5278 C   0  0  0  0  0  0  0  0  0  0  0  0
    1.6818  -10.8237    3.7331 O   0  0  0  0  0  0  0  0  0  0  0  0
    1.1719   -8.5109    4.0707 C   0  0  2  0  0  0  0  0  0  0  0  0
    0.2466   -8.8832    5.1079 O   0  0  0  0  0  0  0  0  0  0  0  0
   -0.2989   -8.4755    3.8506 C   0  0  1  0  0  0  0  0  0  0  0  0
   -0.7506   -7.0470    3.7535 C   0  0  0  0  0  0  0  0  0  0  0  0
    0.4688   -6.1804    4.1678 C   0  0  1  0  0  0  0  0  0  0  0  0
    0.2163   -5.3859    5.4558 C   0  0  0  0  0  0  0  0  0  0  0  0
   -0.0553   -6.0215    6.7261 C   0  0  0  0  0  0  0  0  0  0  0  0
   -0.2676   -5.3075    7.8447 C   0  0  0  0  0  0  0  0  0  0  0  0
   -0.2573   -3.8357    7.8183 C   0  0  0  0  0  0  0  0  0  0  0  0
   -0.4848   -3.1594    8.8201 O   0  0  0  0  0  0  0  0  0  0  0  0
   -0.0064   -3.2710    6.5922 O   0  0  0  0  0  0  0  0  0  0  0  0
    0.2222   -4.0333    5.4659 C   0  0  0  0  0  0  0  0  0  0  0  0
    1.7628   -7.1009    4.1289 C   0  0  2  0  0  0  0  0  0  0  0  0
    2.6434   -7.0097    5.4055 C   0  0  0  0  0  0  0  0  0  0  0  0
    4.5585   -4.6684   -1.5151 H   0  0  0  0  0  0  0  0  0  0  0  0
    6.0384   -4.5812   -0.5666 H   0  0  0  0  0  0  0  0  0  0  0  0
    5.2913   -3.1311   -1.1768 H   0  0  0  0  0  0  0  0  0  0  0  0
    2.4450   -3.3287   -0.5327 H   0  0  0  0  0  0  0  0  0  0  0  0
    2.3873   -3.0054    1.1762 H   0  0  0  0  0  0  0  0  0  0  0  0
    3.8944   -1.4200   -0.9339 H   0  0  0  0  0  0  0  0  0  0  0  0
    2.6236   -0.8742    0.1269 H   0  0  0  0  0  0  0  0  0  0  0  0
    6.3377   -2.0953    0.4824 H   0  0  0  0  0  0  0  0  0  0  0  0
    6.2843   -1.6517    2.1847 H   0  0  0  0  0  0  0  0  0  0  0  0
    5.6275   -3.3044    3.7041 H   0  0  0  0  0  0  0  0  0  0  0  0
    4.9563   -5.8070    3.7305 H   0  0  0  0  0  0  0  0  0  0  0  0
    3.7837   -4.6705    4.3589 H   0  0  0  0  0  0  0  0  0  0  0  0
    2.3747   -4.7634    2.4989 H   0  0  0  0  0  0  0  0  0  0  0  0
    1.8217   -7.0928    2.0153 H   0  0  0  0  0  0  0  0  0  0  0  0
    4.3980   -7.9040    3.3891 H   0  0  0  0  0  0  0  0  0  0  0  0
    5.1280   -8.6901    1.2394 H   0  0  0  0  0  0  0  0  0  0  0  0
    3.6100   -8.3338    0.4909 H   0  0  0  0  0  0  0  0  0  0  0  0
    5.6733   -6.3374    1.5054 H   0  0  0  0  0  0  0  0  0  0  0  0
    5.2064   -6.6443   -0.1437 H   0  0  0  0  0  0  0  0  0  0  0  0
    3.0250   -5.8307   -0.8047 H   0  0  0  0  0  0  0  0  0  0  0  0
   -0.8324   -9.2521    3.2987 H   0  0  0  0  0  0  0  0  0  0  0  0
   -1.0320   -6.8477    2.7195 H   0  0  0  0  0  0  0  0  0  0  0  0
   -1.6280   -6.8802    4.3751 H   0  0  0  0  0  0  0  0  0  0  0  0
    0.5610   -5.4234    3.3963 H   0  0  0  0  0  0  0  0  0  0  0  0
   -0.0783   -7.0983    6.7968 H   0  0  0  0  0  0  0  0  0  0  0  0
   -0.4534   -5.7872    8.7916 H   0  0  0  0  0  0  0  0  0  0  0  0
    0.4008   -3.4196    4.5930 H   0  0  0  0  0  0  0  0  0  0  0  0
    2.1466   -7.4808    6.2523 H   0  0  0  0  0  0  0  0  0  0  0  0
    2.8446   -5.9855    5.7024 H   0  0  0  0  0  0  0  0  0  0  0  0
    3.5933   -7.5300    5.3071 H   0  0  0  0  0  0  0  0  0  0  0  0
  2  1  1  6
  1 35  1  0
  1 36  1  0
  1 37  1  0
  2  8  1  0
  2 16  1  0
  2  3  1  0
  3  4  1  0
  3 38  1  0
  3 39  1  0
  4  5  1  0
  4 40  1  0
  4 41  1  0
  5  6  2  0
  5  7  1  0
  7  8  1  0
  7 42  1  0
  7 43  1  0
  8  9  2  0
  9 10  1  0
  9 44  1  0
 10 11  1  0
 10 45  1  0
 10 46  1  0
 11 16  1  0
 11 12  1  0
 11 47  1  6
 12 33  1  0
 12 13  1  0
 12 48  1  6
 13 14  1  0
 13 18  1  0
 13 49  1  1
 14 15  1  0
 14 50  1  0
 14 51  1  0
 15 16  1  0
 15 52  1  0
 15 53  1  0
 16 17  1  6
 17 54  1  0
 18 19  1  0
 19 20  2  0
 19 21  1  0
 21 23  1  0
 21 33  1  0
 21 22  1  1
 22 23  1  0
 23 24  1  0
 23 55  1  6
 24 25  1  0
 24 56  1  0
 24 57  1  0
 25 26  1  0
 25 33  1  0
 25 58  1  6
 26 32  2  0
 26 27  1  0
 27 28  2  0
 27 59  1  0
 28 29  1  0
 28 60  1  0
 29 30  2  0
 29 31  1  0
 31 32  1  0
 32 61  1  0
 33 34  1  1
 34 62  1  0
 34 63  1  0
 34 64  1  0
M  END
>  <i_m_ct_stereo_status>  (307) 
1

>  <s_m_source_file>  (307) 
/var/tmp/pbs.5076255.sched01/tmpt85fkz7r/123fjz13bl5.sdf

>  <i_m_source_file_index>  (307) 
27

>  <i_lp_mmshare_version>  (307) 
48012

>  <i_f3d_flags>  (307) 
0

>  <s_epik_input>  (307) 
W0NIMl0xW0NIMl1DKD1PKVtDSDJdQyg9W0NIXVtDSDJdMilbQ0BAXTEoW0NIM10pW0NAQF0oW09IXSkoW0NIMl1bQ0gyXVtDQEBIXTNPQzQ9TylbQ0BIXTJbQ0BASF0zW0NAQF01KFtDSDNdKVtDQEBIXShbQ0gyXVtDQEBIXShbQ0BAXTQ1NilPNiljN1tjSF1bY0hdYyg9TylvW2NIXTc=

>  <s_epik_cmdline>  (307) 
J2VwaWtfcHl0aG9uJywgJy1waHQnLCAnMi4wJywgJy1waCcsICc3LjAnLCAnLXRuJywgJzgnLCAnLW1hJywgJzIwMCcsICctaW1hZScsICc8aW5maWxlLm1hZT4nLCAnLW9tYWUnLCAnPG91dGZpbGUubWFlPic=

>  <r_lp_tautomer_probability>  (307) 
1

>  <r_epik_Ionization_Penalty>  (307) 
9.88045e-08

>  <r_epik_Ionization_Penalty_Charging>  (307) 
0

>  <r_epik_Ionization_Penalty_Neutral>  (307) 
9.88045e-08

>  <r_epik_State_Penalty>  (307) 
-0

>  <r_epik_Charging_Adjusted_Penalty>  (307) 
0

>  <i_epik_Tot_Q>  (307) 
0

>  <i_epik_Tot_abs_Q>  (307) 
0

>  <s_epik_Chemistry_Notes>  (307) 
This compound has an ester and may undergo hydrolysis at high or low pH.

>  <s_lp_Force_Field>  (307) 
OPLS3e

>  <r_lp_Energy>  (307) 
68.6585

>  <b_lp_Chiralities_Consistent>  (307) 
1

>  <s_lp_Variant>  (307) 
106:0-1

>  <s_i_glide_gridfile>  (307) 
pfpi4k_grid

>  <i_i_glide_lignum>  (307) 
27

>  <i_i_glide_rotatable_bonds>  (307) 
2

>  <r_i_docking_score>  (307) 
-3.49503

>  <r_i_glide_ligand_efficiency>  (307) 
-0.102795

>  <r_i_glide_ligand_efficiency_sa>  (307) 
-0.333016

>  <r_i_glide_ligand_efficiency_ln>  (307) 
-0.772151

>  <r_i_glide_gscore>  (307) 
-3.49503

>  <r_i_glide_lipo>  (307) 
-0.429959

>  <r_i_glide_hbond>  (307) 
-0.523947

>  <r_i_glide_metal>  (307) 
-0

>  <r_i_glide_rewards>  (307) 
-0.297527

>  <r_i_glide_evdw>  (307) 
-31.4946

>  <r_i_glide_ecoul>  (307) 
-5.05138

>  <r_i_glide_erotb>  (307) 
0.0926991

>  <r_i_glide_esite>  (307) 
-0.00386105

>  <r_i_glide_emodel>  (307) 
-44.4497

>  <r_i_glide_energy>  (307) 
-36.546

>  <r_i_glide_einternal>  (307) 
0.0437885

>  <r_i_glide_intrahb_reward>  (307) 
-0

>  <i_i_glide_confnum>  (307) 
5

>  <i_i_glide_posenum>  (307) 
15

>  <r_i_glide_eff_state_penalty>  (307) 
0

>  <ligand_id>  (307) 
106

>  <original_smiles>  (307) 
CC12CCC(=O)CC1=CCC1C3C(CCC12O)OC(=O)C12OC1CC(c1ccc(=O)oc1)C32C

>  <smiles>  (307) 
[H]OC12C([H])([H])C([H])([H])C3([H])OC(=O)C45OC4([H])C([H])([H])C([H])(c4c([H])oc(=O)c([H])c4[H])C5(C([H])([H])[H])C3([H])C1([H])C([H])([H])C([H])=C1C([H])([H])C(=O)C([H])([H])C([H])([H])C12C([H])([H])[H]

$$$$
106:0:1
     RDKit          3D

 64 70  0  0  1  0  0  0  0  0999 V2000
    3.6042   -8.7335    3.1638 C   0  0  0  0  0  0  0  0  0  0  0  0
    3.0276   -7.2892    3.1070 C   0  0  2  0  0  0  0  0  0  0  0  0
    2.5096   -6.9163    4.5362 C   0  0  0  0  0  0  0  0  0  0  0  0
    1.2955   -7.7528    5.0339 C   0  0  0  0  0  0  0  0  0  0  0  0
    0.2130   -7.9066    3.9616 C   0  0  0  0  0  0  0  0  0  0  0  0
   -0.9808   -7.7409    4.2221 O   0  0  0  0  0  0  0  0  0  0  0  0
    0.6941   -8.2453    2.5539 C   0  0  0  0  0  0  0  0  0  0  0  0
    1.7856   -7.2455    2.2096 C   0  0  0  0  0  0  0  0  0  0  0  0
    1.5678   -6.2729    1.3104 C   0  0  0  0  0  0  0  0  0  0  0  0
    2.4724   -5.0794    1.0844 C   0  0  0  0  0  0  0  0  0  0  0  0
    3.5594   -4.9019    2.1775 C   0  0  2  0  0  0  0  0  0  0  0  0
    4.6957   -3.8923    1.7832 C   0  0  1  0  0  0  0  0  0  0  0  0
    5.5405   -4.4354    0.6110 C   0  0  2  0  0  0  0  0  0  0  0  0
    6.0637   -5.8483    0.9058 C   0  0  0  0  0  0  0  0  0  0  0  0
    4.9652   -6.8266    1.3633 C   0  0  0  0  0  0  0  0  0  0  0  0
    4.1433   -6.2942    2.5766 C   0  0  2  0  0  0  0  0  0  0  0  0
    5.0693   -6.1199    3.6331 O   0  0  0  0  0  0  0  0  0  0  0  0
    6.6919   -3.6462    0.3282 O   0  0  0  0  0  0  0  0  0  0  0  0
    6.7696   -2.3107    0.5223 C   0  0  0  0  0  0  0  0  0  0  0  0
    7.7162   -1.6501    0.1026 O   0  0  0  0  0  0  0  0  0  0  0  0
    5.6735   -1.6688    1.3542 C   0  0  2  0  0  0  0  0  0  0  0  0
    5.6275   -0.2410    1.2672 O   0  0  0  0  0  0  0  0  0  0  0  0
    5.9921   -0.8146    2.5270 C   0  0  1  0  0  0  0  0  0  0  0  0
    4.9152   -0.9385    3.5529 C   0  0  0  0  0  0  0  0  0  0  0  0
    3.7706   -1.7141    2.8630 C   0  0  1  0  0  0  0  0  0  0  0  0
    2.5163   -0.8441    2.7183 C   0  0  0  0  0  0  0  0  0  0  0  0
    2.5045    0.4135    1.9887 C   0  0  0  0  0  0  0  0  0  0  0  0
    1.3851    1.1456    1.8767 C   0  0  0  0  0  0  0  0  0  0  0  0
    0.1316    0.7133    2.5137 C   0  0  0  0  0  0  0  0  0  0  0  0
   -0.9114    1.3522    2.4203 O   0  0  0  0  0  0  0  0  0  0  0  0
    0.2014   -0.4597    3.2282 O   0  0  0  0  0  0  0  0  0  0  0  0
    1.3578   -1.2055    3.2943 C   0  0  0  0  0  0  0  0  0  0  0  0
    4.3478   -2.3830    1.5455 C   0  0  2  0  0  0  0  0  0  0  0  0
    3.4909   -2.1203    0.2794 C   0  0  0  0  0  0  0  0  0  0  0  0
    4.5592   -8.7662    3.6893 H   0  0  0  0  0  0  0  0  0  0  0  0
    3.7561   -9.1521    2.1677 H   0  0  0  0  0  0  0  0  0  0  0  0
    2.9489   -9.4296    3.6863 H   0  0  0  0  0  0  0  0  0  0  0  0
    3.3096   -7.0001    5.2732 H   0  0  0  0  0  0  0  0  0  0  0  0
    2.2065   -5.8687    4.5529 H   0  0  0  0  0  0  0  0  0  0  0  0
    1.6177   -8.7500    5.3347 H   0  0  0  0  0  0  0  0  0  0  0  0
    0.8633   -7.2916    5.9231 H   0  0  0  0  0  0  0  0  0  0  0  0
    1.0644   -9.2676    2.5198 H   0  0  0  0  0  0  0  0  0  0  0  0
   -0.1345   -8.1787    1.8498 H   0  0  0  0  0  0  0  0  0  0  0  0
    0.6524   -6.2803    0.7389 H   0  0  0  0  0  0  0  0  0  0  0  0
    2.8916   -5.1602    0.0805 H   0  0  0  0  0  0  0  0  0  0  0  0
    1.8242   -4.2078    1.1006 H   0  0  0  0  0  0  0  0  0  0  0  0
    3.0551   -4.5058    3.0540 H   0  0  0  0  0  0  0  0  0  0  0  0
    5.3694   -3.8692    2.6394 H   0  0  0  0  0  0  0  0  0  0  0  0
    4.9368   -4.4817   -0.2951 H   0  0  0  0  0  0  0  0  0  0  0  0
    6.5445   -6.2481    0.0164 H   0  0  0  0  0  0  0  0  0  0  0  0
    6.8530   -5.8095    1.6587 H   0  0  0  0  0  0  0  0  0  0  0  0
    4.3029   -7.0333    0.5208 H   0  0  0  0  0  0  0  0  0  0  0  0
    5.4536   -7.7744    1.5922 H   0  0  0  0  0  0  0  0  0  0  0  0
    5.4763   -6.9568    3.8086 H   0  0  0  0  0  0  0  0  0  0  0  0
    7.0155   -0.6467    2.8536 H   0  0  0  0  0  0  0  0  0  0  0  0
    5.3082   -1.5048    4.3992 H   0  0  0  0  0  0  0  0  0  0  0  0
    4.6311    0.0449    3.9293 H   0  0  0  0  0  0  0  0  0  0  0  0
    3.4909   -2.4921    3.5666 H   0  0  0  0  0  0  0  0  0  0  0  0
    3.4011    0.7690    1.5073 H   0  0  0  0  0  0  0  0  0  0  0  0
    1.3554    2.0656    1.3149 H   0  0  0  0  0  0  0  0  0  0  0  0
    1.2210   -2.1108    3.8717 H   0  0  0  0  0  0  0  0  0  0  0  0
    3.5609   -1.0742   -0.0265 H   0  0  0  0  0  0  0  0  0  0  0  0
    2.4345   -2.3119    0.4484 H   0  0  0  0  0  0  0  0  0  0  0  0
    3.8157   -2.6998   -0.5842 H   0  0  0  0  0  0  0  0  0  0  0  0
  2  1  1  1
  1 35  1  0
  1 36  1  0
  1 37  1  0
  2  8  1  0
  2 16  1  0
  2  3  1  0
  3  4  1  0
  3 38  1  0
  3 39  1  0
  4  5  1  0
  4 40  1  0
  4 41  1  0
  5  6  2  0
  5  7  1  0
  7  8  1  0
  7 42  1  0
  7 43  1  0
  8  9  2  0
  9 10  1  0
  9 44  1  0
 10 11  1  0
 10 45  1  0
 10 46  1  0
 11 16  1  0
 11 12  1  0
 11 47  1  1
 12 33  1  0
 12 13  1  0
 12 48  1  1
 13 14  1  0
 13 18  1  0
 13 49  1  6
 14 15  1  0
 14 50  1  0
 14 51  1  0
 15 16  1  0
 15 52  1  0
 15 53  1  0
 16 17  1  1
 17 54  1  0
 18 19  1  0
 19 20  2  0
 19 21  1  0
 21 23  1  0
 21 33  1  0
 21 22  1  6
 22 23  1  0
 23 24  1  0
 23 55  1  1
 24 25  1  0
 24 56  1  0
 24 57  1  0
 25 26  1  0
 25 33  1  0
 25 58  1  1
 26 32  2  0
 26 27  1  0
 27 28  2  0
 27 59  1  0
 28 29  1  0
 28 60  1  0
 29 30  2  0
 29 31  1  0
 31 32  1  0
 32 61  1  0
 33 34  1  6
 34 62  1  0
 34 63  1  0
 34 64  1  0
M  END
>  <i_m_ct_stereo_status>  (308) 
1

>  <s_m_source_file>  (308) 
/var/tmp/pbs.5076255.sched01/tmpt85fkz7r/123fjz13bl5.sdf

>  <i_m_source_file_index>  (308) 
27

>  <i_lp_mmshare_version>  (308) 
48012

>  <i_f3d_flags>  (308) 
0

>  <s_epik_input>  (308) 
W0NIMl0xW0NIMl1DKD1PKVtDSDJdQyg9W0NIXVtDSDJdMilbQ0BAXTEoW0NIM10pW0NAQF0oW09IXSkoW0NIMl1bQ0gyXVtDQEBIXTNPQzQ9TylbQ0BIXTJbQ0BASF0zW0NAQF01KFtDSDNdKVtDQEBIXShbQ0gyXVtDQEBIXShbQ0BAXTQ1NilPNiljN1tjSF1bY0hdYyg9TylvW2NIXTc=

>  <s_epik_cmdline>  (308) 
J2VwaWtfcHl0aG9uJywgJy1waHQnLCAnMi4wJywgJy1waCcsICc3LjAnLCAnLXRuJywgJzgnLCAnLW1hJywgJzIwMCcsICctaW1hZScsICc8aW5maWxlLm1hZT4nLCAnLW9tYWUnLCAnPG91dGZpbGUubWFlPic=

>  <r_lp_tautomer_probability>  (308) 
1

>  <r_epik_Ionization_Penalty>  (308) 
9.88045e-08

>  <r_epik_Ionization_Penalty_Charging>  (308) 
0

>  <r_epik_Ionization_Penalty_Neutral>  (308) 
9.88045e-08

>  <r_epik_State_Penalty>  (308) 
-0

>  <r_epik_Charging_Adjusted_Penalty>  (308) 
0

>  <i_epik_Tot_Q>  (308) 
0

>  <i_epik_Tot_abs_Q>  (308) 
0

>  <s_epik_Chemistry_Notes>  (308) 
This compound has an ester and may undergo hydrolysis at high or low pH.

>  <s_lp_Force_Field>  (308) 
OPLS3e

>  <r_lp_Energy>  (308) 
68.6585

>  <b_lp_Chiralities_Consistent>  (308) 
1

>  <s_lp_Variant>  (308) 
106:0-1

>  <s_i_glide_gridfile>  (308) 
pfpi4k_grid

>  <i_i_glide_lignum>  (308) 
27

>  <i_i_glide_rotatable_bonds>  (308) 
2

>  <r_i_docking_score>  (308) 
-3.11617

>  <r_i_glide_ligand_efficiency>  (308) 
-0.0916522

>  <r_i_glide_ligand_efficiency_sa>  (308) 
-0.296917

>  <r_i_glide_ligand_efficiency_ln>  (308) 
-0.68845

>  <r_i_glide_gscore>  (308) 
-3.11617

>  <r_i_glide_lipo>  (308) 
-0.56514

>  <r_i_glide_hbond>  (308) 
-0.319513

>  <r_i_glide_metal>  (308) 
-0

>  <r_i_glide_rewards>  (308) 
-0.350896

>  <r_i_glide_evdw>  (308) 
-34.7301

>  <r_i_glide_ecoul>  (308) 
-1.37094

>  <r_i_glide_erotb>  (308) 
0.0926991

>  <r_i_glide_esite>  (308) 
-0.031176

>  <r_i_glide_emodel>  (308) 
-43.1524

>  <r_i_glide_energy>  (308) 
-36.1011

>  <r_i_glide_einternal>  (308) 
0.00340385

>  <r_i_glide_intrahb_reward>  (308) 
-0

>  <i_i_glide_confnum>  (308) 
3

>  <i_i_glide_posenum>  (308) 
7

>  <r_i_glide_eff_state_penalty>  (308) 
0

>  <ligand_id>  (308) 
106

>  <original_smiles>  (308) 
CC12CCC(=O)CC1=CCC1C3C(CCC12O)OC(=O)C12OC1CC(c1ccc(=O)oc1)C32C

>  <smiles>  (308) 
[H]OC12C([H])([H])C([H])([H])C3([H])OC(=O)C45OC4([H])C([H])([H])C([H])(c4c([H])oc(=O)c([H])c4[H])C5(C([H])([H])[H])C3([H])C1([H])C([H])([H])C([H])=C1C([H])([H])C(=O)C([H])([H])C([H])([H])C12C([H])([H])[H]

$$$$
106:0:2
     RDKit          3D

 64 70  0  0  1  0  0  0  0  0999 V2000
    3.6260   -8.7535    3.1404 C   0  0  0  0  0  0  0  0  0  0  0  0
    3.0438   -7.3123    3.0901 C   0  0  2  0  0  0  0  0  0  0  0  0
    2.5277   -6.9461    4.5215 C   0  0  0  0  0  0  0  0  0  0  0  0
    1.3189   -7.7898    5.0193 C   0  0  0  0  0  0  0  0  0  0  0  0
    0.2349   -7.9446    3.9485 C   0  0  0  0  0  0  0  0  0  0  0  0
   -0.9589   -7.7874    4.2105 O   0  0  0  0  0  0  0  0  0  0  0  0
    0.7136   -8.2750    2.5385 C   0  0  0  0  0  0  0  0  0  0  0  0
    1.7995   -7.2694    2.1964 C   0  0  0  0  0  0  0  0  0  0  0  0
    1.5765   -6.2929    1.3014 C   0  0  0  0  0  0  0  0  0  0  0  0
    2.4765   -5.0953    1.0790 C   0  0  0  0  0  0  0  0  0  0  0  0
    3.5655   -4.9185    2.1688 C   0  0  2  0  0  0  0  0  0  0  0  0
    4.6961   -3.9018    1.7761 C   0  0  1  0  0  0  0  0  0  0  0  0
    5.5411   -4.4381    0.5997 C   0  0  2  0  0  0  0  0  0  0  0  0
    6.0702   -5.8507    0.8887 C   0  0  0  0  0  0  0  0  0  0  0  0
    4.9758   -6.8354    1.3440 C   0  0  0  0  0  0  0  0  0  0  0  0
    4.1540   -6.3111    2.5592 C   0  0  2  0  0  0  0  0  0  0  0  0
    5.0850   -6.1453    3.6127 O   0  0  0  0  0  0  0  0  0  0  0  0
    6.6911   -3.6447    0.3208 O   0  0  0  0  0  0  0  0  0  0  0  0
    6.7636   -2.3096    0.5175 C   0  0  0  0  0  0  0  0  0  0  0  0
    7.7084   -1.6449    0.1004 O   0  0  0  0  0  0  0  0  0  0  0  0
    5.6650   -1.6729    1.3509 C   0  0  2  0  0  0  0  0  0  0  0  0
    5.6153   -0.2457    1.2718 O   0  0  0  0  0  0  0  0  0  0  0  0
    5.9874   -0.8242    2.5288 C   0  0  1  0  0  0  0  0  0  0  0  0
    4.9123   -0.9590    3.5567 C   0  0  0  0  0  0  0  0  0  0  0  0
    3.7669   -1.7349    2.8645 C   0  0  1  0  0  0  0  0  0  0  0  0
    2.5111   -0.8655    2.7277 C   0  0  0  0  0  0  0  0  0  0  0  0
    2.4904    0.3848    1.9925 C   0  0  0  0  0  0  0  0  0  0  0  0
    1.3656    1.1155    1.8839 C   0  0  0  0  0  0  0  0  0  0  0  0
    0.1202    0.6834    2.5355 C   0  0  0  0  0  0  0  0  0  0  0  0
   -0.9238    1.3241    2.4463 O   0  0  0  0  0  0  0  0  0  0  0  0
    0.1980   -0.4850    3.2580 O   0  0  0  0  0  0  0  0  0  0  0  0
    1.3551   -1.2288    3.3182 C   0  0  0  0  0  0  0  0  0  0  0  0
    4.3429   -2.3951    1.5428 C   0  0  2  0  0  0  0  0  0  0  0  0
    3.4816   -2.1326    0.2802 C   0  0  0  0  0  0  0  0  0  0  0  0
    4.5842   -8.7782    3.6621 H   0  0  0  0  0  0  0  0  0  0  0  0
    3.7778   -9.1689    2.1431 H   0  0  0  0  0  0  0  0  0  0  0  0
    2.9784   -9.4552    3.6647 H   0  0  0  0  0  0  0  0  0  0  0  0
    3.3338   -7.0298    5.2543 H   0  0  0  0  0  0  0  0  0  0  0  0
    2.2198   -5.9004    4.5436 H   0  0  0  0  0  0  0  0  0  0  0  0
    1.6456   -8.7870    5.3169 H   0  0  0  0  0  0  0  0  0  0  0  0
    0.8860   -7.3343    5.9110 H   0  0  0  0  0  0  0  0  0  0  0  0
    1.0887   -9.2961    2.4991 H   0  0  0  0  0  0  0  0  0  0  0  0
   -0.1170   -8.2077    1.8365 H   0  0  0  0  0  0  0  0  0  0  0  0
    0.6589   -6.3035    0.7325 H   0  0  0  0  0  0  0  0  0  0  0  0
    2.8937   -5.1714    0.0736 H   0  0  0  0  0  0  0  0  0  0  0  0
    1.8235   -4.2280    1.1010 H   0  0  0  0  0  0  0  0  0  0  0  0
    3.0610   -4.5272    3.0478 H   0  0  0  0  0  0  0  0  0  0  0  0
    5.3715   -3.8718    2.6289 H   0  0  0  0  0  0  0  0  0  0  0  0
    4.9366   -4.4849   -0.3070 H   0  0  0  0  0  0  0  0  0  0  0  0
    6.5452   -6.2458   -0.0058 H   0  0  0  0  0  0  0  0  0  0  0  0
    6.8684   -5.8148    1.6323 H   0  0  0  0  0  0  0  0  0  0  0  0
    4.3130   -7.0439    0.5015 H   0  0  0  0  0  0  0  0  0  0  0  0
    5.4683   -7.7808    1.5736 H   0  0  0  0  0  0  0  0  0  0  0  0
    5.7870   -5.5968    3.2969 H   0  0  0  0  0  0  0  0  0  0  0  0
    7.0132   -0.6584    2.8497 H   0  0  0  0  0  0  0  0  0  0  0  0
    5.3078   -1.5288    4.4001 H   0  0  0  0  0  0  0  0  0  0  0  0
    4.6242    0.0214    3.9391 H   0  0  0  0  0  0  0  0  0  0  0  0
    3.4910   -2.5162    3.5656 H   0  0  0  0  0  0  0  0  0  0  0  0
    3.3794    0.7410    1.4999 H   0  0  0  0  0  0  0  0  0  0  0  0
    1.3314    2.0283    1.3158 H   0  0  0  0  0  0  0  0  0  0  0  0
    1.2285   -2.1302    3.9007 H   0  0  0  0  0  0  0  0  0  0  0  0
    3.5454   -1.0854   -0.0235 H   0  0  0  0  0  0  0  0  0  0  0  0
    2.4272   -2.3304    0.4510 H   0  0  0  0  0  0  0  0  0  0  0  0
    3.8069   -2.7070   -0.5868 H   0  0  0  0  0  0  0  0  0  0  0  0
  2  1  1  1
  1 35  1  0
  1 36  1  0
  1 37  1  0
  2  8  1  0
  2 16  1  0
  2  3  1  0
  3  4  1  0
  3 38  1  0
  3 39  1  0
  4  5  1  0
  4 40  1  0
  4 41  1  0
  5  6  2  0
  5  7  1  0
  7  8  1  0
  7 42  1  0
  7 43  1  0
  8  9  2  0
  9 10  1  0
  9 44  1  0
 10 11  1  0
 10 45  1  0
 10 46  1  0
 11 16  1  0
 11 12  1  0
 11 47  1  1
 12 33  1  0
 12 13  1  0
 12 48  1  1
 13 14  1  0
 13 18  1  0
 13 49  1  6
 14 15  1  0
 14 50  1  0
 14 51  1  0
 15 16  1  0
 15 52  1  0
 15 53  1  0
 16 17  1  1
 17 54  1  0
 18 19  1  0
 19 20  2  0
 19 21  1  0
 21 23  1  0
 21 33  1  0
 21 22  1  6
 22 23  1  0
 23 24  1  0
 23 55  1  1
 24 25  1  0
 24 56  1  0
 24 57  1  0
 25 26  1  0
 25 33  1  0
 25 58  1  1
 26 32  2  0
 26 27  1  0
 27 28  2  0
 27 59  1  0
 28 29  1  0
 28 60  1  0
 29 30  2  0
 29 31  1  0
 31 32  1  0
 32 61  1  0
 33 34  1  6
 34 62  1  0
 34 63  1  0
 34 64  1  0
M  END
>  <i_m_ct_stereo_status>  (309) 
1

>  <s_m_source_file>  (309) 
/var/tmp/pbs.5076255.sched01/tmpt85fkz7r/123fjz13bl5.sdf

>  <i_m_source_file_index>  (309) 
27

>  <i_lp_mmshare_version>  (309) 
48012

>  <i_f3d_flags>  (309) 
0

>  <s_epik_input>  (309) 
W0NIMl0xW0NIMl1DKD1PKVtDSDJdQyg9W0NIXVtDSDJdMilbQ0BAXTEoW0NIM10pW0NAQF0oW09IXSkoW0NIMl1bQ0gyXVtDQEBIXTNPQzQ9TylbQ0BIXTJbQ0BASF0zW0NAQF01KFtDSDNdKVtDQEBIXShbQ0gyXVtDQEBIXShbQ0BAXTQ1NilPNiljN1tjSF1bY0hdYyg9TylvW2NIXTc=

>  <s_epik_cmdline>  (309) 
J2VwaWtfcHl0aG9uJywgJy1waHQnLCAnMi4wJywgJy1waCcsICc3LjAnLCAnLXRuJywgJzgnLCAnLW1hJywgJzIwMCcsICctaW1hZScsICc8aW5maWxlLm1hZT4nLCAnLW9tYWUnLCAnPG91dGZpbGUubWFlPic=

>  <r_lp_tautomer_probability>  (309) 
1

>  <r_epik_Ionization_Penalty>  (309) 
9.88045e-08

>  <r_epik_Ionization_Penalty_Charging>  (309) 
0

>  <r_epik_Ionization_Penalty_Neutral>  (309) 
9.88045e-08

>  <r_epik_State_Penalty>  (309) 
-0

>  <r_epik_Charging_Adjusted_Penalty>  (309) 
0

>  <i_epik_Tot_Q>  (309) 
0

>  <i_epik_Tot_abs_Q>  (309) 
0

>  <s_epik_Chemistry_Notes>  (309) 
This compound has an ester and may undergo hydrolysis at high or low pH.

>  <s_lp_Force_Field>  (309) 
OPLS3e

>  <r_lp_Energy>  (309) 
68.6585

>  <b_lp_Chiralities_Consistent>  (309) 
1

>  <s_lp_Variant>  (309) 
106:0-1

>  <s_i_glide_gridfile>  (309) 
pfpi4k_grid

>  <i_i_glide_lignum>  (309) 
27

>  <i_i_glide_rotatable_bonds>  (309) 
2

>  <r_i_docking_score>  (309) 
-3.09998

>  <r_i_glide_ligand_efficiency>  (309) 
-0.0911759

>  <r_i_glide_ligand_efficiency_sa>  (309) 
-0.295374

>  <r_i_glide_ligand_efficiency_ln>  (309) 
-0.684872

>  <r_i_glide_gscore>  (309) 
-3.09998

>  <r_i_glide_lipo>  (309) 
-0.564042

>  <r_i_glide_hbond>  (309) 
-0.315853

>  <r_i_glide_metal>  (309) 
-0

>  <r_i_glide_rewards>  (309) 
-0.350804

>  <r_i_glide_evdw>  (309) 
-34.7184

>  <r_i_glide_ecoul>  (309) 
-1.30132

>  <r_i_glide_erotb>  (309) 
0.0926991

>  <r_i_glide_esite>  (309) 
-0.0308602

>  <r_i_glide_emodel>  (309) 
-43.0151

>  <r_i_glide_energy>  (309) 
-36.0197

>  <r_i_glide_einternal>  (309) 
0.0179619

>  <r_i_glide_intrahb_reward>  (309) 
-0

>  <i_i_glide_confnum>  (309) 
1

>  <i_i_glide_posenum>  (309) 
27

>  <r_i_glide_eff_state_penalty>  (309) 
0

>  <ligand_id>  (309) 
106

>  <original_smiles>  (309) 
CC12CCC(=O)CC1=CCC1C3C(CCC12O)OC(=O)C12OC1CC(c1ccc(=O)oc1)C32C

>  <smiles>  (309) 
[H]OC12C([H])([H])C([H])([H])C3([H])OC(=O)C45OC4([H])C([H])([H])C([H])(c4c([H])oc(=O)c([H])c4[H])C5(C([H])([H])[H])C3([H])C1([H])C([H])([H])C([H])=C1C([H])([H])C(=O)C([H])([H])C([H])([H])C12C([H])([H])[H]

$$$$
107:0:0
     RDKit          3D

 44 47  0  0  1  0  0  0  0  0999 V2000
   -1.8548    0.0893    6.3945 O   0  0  0  0  0  0  0  0  0  0  0  0
   -1.0875    0.6494    5.6278 C   0  0  0  0  0  0  0  0  0  0  0  0
    0.0854   -0.0650    4.9631 C   0  0  0  0  0  0  0  0  0  0  0  0
    0.2278    0.8717    3.7687 C   0  0  1  0  0  0  0  0  0  0  0  0
    0.0031    2.2097    4.4086 C   0  0  1  0  0  0  0  0  0  0  0  0
    0.0149    3.0988    3.1787 C   0  0  0  0  0  0  0  0  0  0  0  0
    1.1832    2.4347    2.3781 C   0  0  0  0  0  0  0  0  0  0  0  0
    1.4762    1.1195    3.0362 N   0  0  2  0  0  0  0  0  0  0  0  0
    1.9036    0.0381    2.1094 C   0  0  0  0  0  0  0  0  0  0  0  0
    1.9780   -1.3274    2.8193 C   0  0  0  0  0  0  0  0  0  0  0  0
    2.5539   -2.4057    1.9058 C   0  0  0  0  0  0  0  0  0  0  0  0
    3.8306   -2.0162    1.4248 O   0  0  0  0  0  0  0  0  0  0  0  0
    3.7742   -0.8303    0.6459 C   0  0  0  0  0  0  0  0  0  0  0  0
    3.2815    0.3409    1.5003 C   0  0  0  0  0  0  0  0  0  0  0  0
   -1.1510    1.9445    5.2295 N   0  0  0  0  0  0  0  0  0  0  0  0
   -1.9724    2.9805    5.8178 C   0  0  0  0  0  0  0  0  0  0  0  0
   -1.5382    3.3675    7.2245 C   0  0  0  0  0  0  0  0  0  0  0  0
   -1.8420    2.4733    8.4119 C   0  0  0  0  0  0  0  0  0  0  0  0
   -2.5472    3.7937    8.2671 C   0  0  0  0  0  0  0  0  0  0  0  0
    0.9467   -0.0803    5.6355 H   0  0  0  0  0  0  0  0  0  0  0  0
   -0.2403   -1.0752    4.7226 H   0  0  0  0  0  0  0  0  0  0  0  0
   -0.5632    0.6345    3.0414 H   0  0  0  0  0  0  0  0  0  0  0  0
    0.8239    2.5032    5.0754 H   0  0  0  0  0  0  0  0  0  0  0  0
   -0.9182    3.0147    2.6192 H   0  0  0  0  0  0  0  0  0  0  0  0
    0.1989    4.1547    3.3948 H   0  0  0  0  0  0  0  0  0  0  0  0
    0.8552    2.2524    1.3427 H   0  0  0  0  0  0  0  0  0  0  0  0
    2.0758    3.0653    2.3366 H   0  0  0  0  0  0  0  0  0  0  0  0
    1.1718   -0.0534    1.2995 H   0  0  0  0  0  0  0  0  0  0  0  0
    2.5938   -1.2501    3.7219 H   0  0  0  0  0  0  0  0  0  0  0  0
    0.9854   -1.6813    3.1030 H   0  0  0  0  0  0  0  0  0  0  0  0
    2.6273   -3.3355    2.4650 H   0  0  0  0  0  0  0  0  0  0  0  0
    1.8665   -2.5754    1.0839 H   0  0  0  0  0  0  0  0  0  0  0  0
    4.7695   -0.6128    0.2606 H   0  0  0  0  0  0  0  0  0  0  0  0
    3.1175   -0.9765   -0.2097 H   0  0  0  0  0  0  0  0  0  0  0  0
    3.2162    1.2344    0.8852 H   0  0  0  0  0  0  0  0  0  0  0  0
    4.0022    0.5405    2.2937 H   0  0  0  0  0  0  0  0  0  0  0  0
   -1.9553    3.8704    5.1895 H   0  0  0  0  0  0  0  0  0  0  0  0
   -3.0061    2.6367    5.8425 H   0  0  0  0  0  0  0  0  0  0  0  0
   -0.5711    3.8688    7.2519 H   0  0  0  0  0  0  0  0  0  0  0  0
   -2.4631    1.5912    8.2834 H   0  0  0  0  0  0  0  0  0  0  0  0
   -1.0592    2.3893    9.1667 H   0  0  0  0  0  0  0  0  0  0  0  0
   -2.2705    4.5858    8.9641 H   0  0  0  0  0  0  0  0  0  0  0  0
   -3.5987    3.7483    8.0105 H   0  0  0  0  0  0  0  0  0  0  0  0
    2.1991    1.2958    3.7242 H   0  0  0  0  0  0  0  0  0  0  0  0
  1  2  2  0
  2 15  1  0
  2  3  1  0
  3  4  1  0
  3 20  1  0
  3 21  1  0
  4  8  1  0
  4  5  1  0
  4 22  1  6
  5  6  1  0
  5 15  1  0
  5 23  1  1
  6  7  1  0
  6 24  1  0
  6 25  1  0
  7  8  1  0
  7 26  1  0
  7 27  1  0
  8  9  1  0
  8 44  1  1
  9 14  1  0
  9 10  1  0
  9 28  1  0
 10 11  1  0
 10 29  1  0
 10 30  1  0
 11 12  1  0
 11 31  1  0
 11 32  1  0
 12 13  1  0
 13 14  1  0
 13 33  1  0
 13 34  1  0
 14 35  1  0
 14 36  1  0
 15 16  1  0
 16 17  1  0
 16 37  1  0
 16 38  1  0
 17 19  1  0
 17 18  1  0
 17 39  1  0
 18 19  1  0
 18 40  1  0
 18 41  1  0
 19 42  1  0
 19 43  1  0
M  CHG  1   8   1
M  END
>  <i_m_ct_stereo_status>  (310) 
1

>  <s_m_source_file>  (310) 
/var/tmp/pbs.5076255.sched01/tmpt85fkz7r/123fjz13bl5.sdf

>  <i_m_source_file_index>  (310) 
28

>  <i_lp_mmshare_version>  (310) 
48012

>  <i_f3d_flags>  (310) 
0

>  <s_epik_input>  (310) 
W0NIMl0xW0NIMl1bQ0hdMVtDSDJdTihDKD1PKVtDSDJdMilbQ0BASF0oW0NASF0yMylbQ0gyXVtDSDJdTjNbQ0hdNFtDSDJdW0NIMl1PW0NIMl1bQ0gyXTQ=

>  <s_epik_cmdline>  (310) 
J2VwaWtfcHl0aG9uJywgJy1waHQnLCAnMi4wJywgJy1waCcsICc3LjAnLCAnLXRuJywgJzgnLCAnLW1hJywgJzIwMCcsICctaW1hZScsICc8aW5maWxlLm1hZT4nLCAnLW9tYWUnLCAnPG91dGZpbGUubWFlPic=

>  <r_epik_Ionization_Penalty>  (310) 
0.0203546

>  <r_epik_Ionization_Penalty_Charging>  (310) 
0.0203546

>  <r_epik_Ionization_Penalty_Neutral>  (310) 
1.3991e-10

>  <r_epik_State_Penalty>  (310) 
0.0163098

>  <r_epik_Charging_Adjusted_Penalty>  (310) 
0.0366644

>  <i_epik_Tot_Q>  (310) 
1

>  <i_epik_Tot_abs_Q>  (310) 
1

>  <s_lp_Force_Field>  (310) 
OPLS3e

>  <r_lp_Energy>  (310) 
30.8907

>  <b_lp_Chiralities_Consistent>  (310) 
1

>  <s_lp_Variant>  (310) 
107:0-1

>  <s_i_glide_gridfile>  (310) 
pfpi4k_grid

>  <i_i_glide_lignum>  (310) 
28

>  <i_i_glide_rotatable_bonds>  (310) 
3

>  <r_i_docking_score>  (310) 
-3.28644

>  <r_i_glide_ligand_efficiency>  (310) 
-0.172971

>  <r_i_glide_ligand_efficiency_sa>  (310) 
-0.461555

>  <r_i_glide_ligand_efficiency_ln>  (310) 
-0.833184

>  <r_i_glide_gscore>  (310) 
-3.28644

>  <r_i_glide_lipo>  (310) 
-0.237278

>  <r_i_glide_hbond>  (310) 
-0.16

>  <r_i_glide_metal>  (310) 
-0

>  <r_i_glide_rewards>  (310) 
-1.59974

>  <r_i_glide_evdw>  (310) 
-14.8519

>  <r_i_glide_ecoul>  (310) 
-8.28844

>  <r_i_glide_erotb>  (310) 
0.758052

>  <r_i_glide_esite>  (310) 
-0.0616145

>  <r_i_glide_emodel>  (310) 
-28.2853

>  <r_i_glide_energy>  (310) 
-23.1404

>  <r_i_glide_einternal>  (310) 
1.27203

>  <r_i_glide_intrahb_reward>  (310) 
-0

>  <i_i_glide_confnum>  (310) 
4

>  <i_i_glide_posenum>  (310) 
10

>  <r_i_glide_eff_state_penalty>  (310) 
0

>  <ligand_id>  (310) 
107

>  <original_smiles>  (310) 
O=C1CC2C(CCN2C2CCOCC2)N1CC1CC1

>  <smiles>  (310) 
[H]C1([H])OC([H])([H])C([H])([H])C([H])([N+]2([H])C([H])([H])C([H])([H])C3([H])N(C([H])([H])C4([H])C([H])([H])C4([H])[H])C(=O)C([H])([H])C32[H])C1([H])[H]

$$$$
107:0:1
     RDKit          3D

 44 47  0  0  1  0  0  0  0  0999 V2000
    6.2640   -2.7254   -2.0752 O   0  0  0  0  0  0  0  0  0  0  0  0
    5.4098   -3.0934   -1.2924 C   0  0  0  0  0  0  0  0  0  0  0  0
    5.4667   -4.4570   -0.6170 C   0  0  0  0  0  0  0  0  0  0  0  0
    4.6357   -4.1052    0.6070 C   0  0  1  0  0  0  0  0  0  0  0  0
    3.5667   -3.2431    0.0127 C   0  0  1  0  0  0  0  0  0  0  0  0
    2.8502   -2.7980    1.2828 C   0  0  0  0  0  0  0  0  0  0  0  0
    2.8759   -4.1337    2.0907 C   0  0  0  0  0  0  0  0  0  0  0  0
    3.8356   -5.0612    1.3909 N   0  0  2  0  0  0  0  0  0  0  0  0
    4.6020   -5.9728    2.2838 C   0  0  0  0  0  0  0  0  0  0  0  0
    5.5385   -6.8909    1.4799 C   0  0  0  0  0  0  0  0  0  0  0  0
    6.2357   -7.8996    2.3909 C   0  0  0  0  0  0  0  0  0  0  0  0
    5.2690   -8.6570    3.1018 O   0  0  0  0  0  0  0  0  0  0  0  0
    4.4570   -7.8601    3.9509 C   0  0  0  0  0  0  0  0  0  0  0  0
    3.6618   -6.8487    3.1287 C   0  0  0  0  0  0  0  0  0  0  0  0
    4.3388   -2.3915   -0.8542 N   0  0  0  0  0  0  0  0  0  0  0  0
    3.8228   -1.1630   -1.4162 C   0  0  0  0  0  0  0  0  0  0  0  0
    3.1205   -1.3659   -2.7463 C   0  0  0  0  0  0  0  0  0  0  0  0
    3.9089   -1.5946   -4.0170 C   0  0  0  0  0  0  0  0  0  0  0  0
    3.1588   -0.3026   -3.8190 C   0  0  0  0  0  0  0  0  0  0  0  0
    5.0252   -5.2296   -1.2506 H   0  0  0  0  0  0  0  0  0  0  0  0
    6.5059   -4.6702   -0.3776 H   0  0  0  0  0  0  0  0  0  0  0  0
    5.2746   -3.5408    1.3056 H   0  0  0  0  0  0  0  0  0  0  0  0
    2.8705   -3.8167   -0.6129 H   0  0  0  0  0  0  0  0  0  0  0  0
    3.4161   -2.0263    1.8072 H   0  0  0  0  0  0  0  0  0  0  0  0
    1.8379   -2.4284    1.1065 H   0  0  0  0  0  0  0  0  0  0  0  0
    3.2366   -3.9217    3.1092 H   0  0  0  0  0  0  0  0  0  0  0  0
    1.8933   -4.5997    2.1768 H   0  0  0  0  0  0  0  0  0  0  0  0
    5.2132   -5.3622    2.9556 H   0  0  0  0  0  0  0  0  0  0  0  0
    4.9809   -7.4212    0.7042 H   0  0  0  0  0  0  0  0  0  0  0  0
    6.3402   -6.3363    0.9933 H   0  0  0  0  0  0  0  0  0  0  0  0
    6.8586   -8.5598    1.7904 H   0  0  0  0  0  0  0  0  0  0  0  0
    6.8976   -7.3788    3.0808 H   0  0  0  0  0  0  0  0  0  0  0  0
    3.7756   -8.5078    4.4981 H   0  0  0  0  0  0  0  0  0  0  0  0
    5.0752   -7.3488    4.6874 H   0  0  0  0  0  0  0  0  0  0  0  0
    3.0693   -6.2305    3.8087 H   0  0  0  0  0  0  0  0  0  0  0  0
    2.9593   -7.3721    2.4802 H   0  0  0  0  0  0  0  0  0  0  0  0
    3.1226   -0.7095   -0.7175 H   0  0  0  0  0  0  0  0  0  0  0  0
    4.6401   -0.4527   -1.5425 H   0  0  0  0  0  0  0  0  0  0  0  0
    2.2027   -1.9461   -2.6651 H   0  0  0  0  0  0  0  0  0  0  0  0
    4.9910   -1.5486   -3.9702 H   0  0  0  0  0  0  0  0  0  0  0  0
    3.4987   -2.3269   -4.7101 H   0  0  0  0  0  0  0  0  0  0  0  0
    2.2625   -0.1481   -4.4192 H   0  0  0  0  0  0  0  0  0  0  0  0
    3.7344    0.5917   -3.6020 H   0  0  0  0  0  0  0  0  0  0  0  0
    3.2987   -5.6068    0.7247 H   0  0  0  0  0  0  0  0  0  0  0  0
  1  2  2  0
  2 15  1  0
  2  3  1  0
  3  4  1  0
  3 20  1  0
  3 21  1  0
  4  8  1  0
  4  5  1  0
  4 22  1  1
  5  6  1  0
  5 15  1  0
  5 23  1  6
  6  7  1  0
  6 24  1  0
  6 25  1  0
  7  8  1  0
  7 26  1  0
  7 27  1  0
  8  9  1  0
  8 44  1  6
  9 14  1  0
  9 10  1  0
  9 28  1  0
 10 11  1  0
 10 29  1  0
 10 30  1  0
 11 12  1  0
 11 31  1  0
 11 32  1  0
 12 13  1  0
 13 14  1  0
 13 33  1  0
 13 34  1  0
 14 35  1  0
 14 36  1  0
 15 16  1  0
 16 17  1  0
 16 37  1  0
 16 38  1  0
 17 19  1  0
 17 18  1  0
 17 39  1  0
 18 19  1  0
 18 40  1  0
 18 41  1  0
 19 42  1  0
 19 43  1  0
M  CHG  1   8   1
M  END
>  <i_m_ct_stereo_status>  (311) 
1

>  <s_m_source_file>  (311) 
/var/tmp/pbs.5076255.sched01/tmpt85fkz7r/123fjz13bl5.sdf

>  <i_m_source_file_index>  (311) 
28

>  <i_lp_mmshare_version>  (311) 
48012

>  <i_f3d_flags>  (311) 
0

>  <s_epik_input>  (311) 
W0NIMl0xW0NIMl1bQ0hdMVtDSDJdTihDKD1PKVtDSDJdMilbQ0BASF0oW0NASF0yMylbQ0gyXVtDSDJdTjNbQ0hdNFtDSDJdW0NIMl1PW0NIMl1bQ0gyXTQ=

>  <s_epik_cmdline>  (311) 
J2VwaWtfcHl0aG9uJywgJy1waHQnLCAnMi4wJywgJy1waCcsICc3LjAnLCAnLXRuJywgJzgnLCAnLW1hJywgJzIwMCcsICctaW1hZScsICc8aW5maWxlLm1hZT4nLCAnLW9tYWUnLCAnPG91dGZpbGUubWFlPic=

>  <r_epik_Ionization_Penalty>  (311) 
0.0203546

>  <r_epik_Ionization_Penalty_Charging>  (311) 
0.0203546

>  <r_epik_Ionization_Penalty_Neutral>  (311) 
1.3991e-10

>  <r_epik_State_Penalty>  (311) 
0.0163098

>  <r_epik_Charging_Adjusted_Penalty>  (311) 
0.0366644

>  <i_epik_Tot_Q>  (311) 
1

>  <i_epik_Tot_abs_Q>  (311) 
1

>  <s_lp_Force_Field>  (311) 
OPLS3e

>  <r_lp_Energy>  (311) 
30.8907

>  <b_lp_Chiralities_Consistent>  (311) 
1

>  <s_lp_Variant>  (311) 
107:0-1

>  <s_i_glide_gridfile>  (311) 
pfpi4k_grid

>  <i_i_glide_lignum>  (311) 
28

>  <i_i_glide_rotatable_bonds>  (311) 
3

>  <r_i_docking_score>  (311) 
-2.87397

>  <r_i_glide_ligand_efficiency>  (311) 
-0.151262

>  <r_i_glide_ligand_efficiency_sa>  (311) 
-0.403627

>  <r_i_glide_ligand_efficiency_ln>  (311) 
-0.728614

>  <r_i_glide_gscore>  (311) 
-2.87397

>  <r_i_glide_lipo>  (311) 
-0.474177

>  <r_i_glide_hbond>  (311) 
0

>  <r_i_glide_metal>  (311) 
-0

>  <r_i_glide_rewards>  (311) 
-1.67118

>  <r_i_glide_evdw>  (311) 
-19.5281

>  <r_i_glide_ecoul>  (311) 
-3.27335

>  <r_i_glide_erotb>  (311) 
0.758052

>  <r_i_glide_esite>  (311) 
-0.0192593

>  <r_i_glide_emodel>  (311) 
-27.607

>  <r_i_glide_energy>  (311) 
-22.8014

>  <r_i_glide_einternal>  (311) 
0.738657

>  <r_i_glide_intrahb_reward>  (311) 
-0

>  <i_i_glide_confnum>  (311) 
4

>  <i_i_glide_posenum>  (311) 
2

>  <r_i_glide_eff_state_penalty>  (311) 
0

>  <ligand_id>  (311) 
107

>  <original_smiles>  (311) 
O=C1CC2C(CCN2C2CCOCC2)N1CC1CC1

>  <smiles>  (311) 
[H]C1([H])OC([H])([H])C([H])([H])C([H])([N+]2([H])C([H])([H])C([H])([H])C3([H])N(C([H])([H])C4([H])C([H])([H])C4([H])[H])C(=O)C([H])([H])C32[H])C1([H])[H]

$$$$
107:0:2
     RDKit          3D

 44 47  0  0  1  0  0  0  0  0999 V2000
    4.6305   -3.4557   -3.3903 O   0  0  0  0  0  0  0  0  0  0  0  0
    4.4668   -3.0097   -2.2491 C   0  0  0  0  0  0  0  0  0  0  0  0
    4.2867   -3.9131   -1.0657 C   0  0  0  0  0  0  0  0  0  0  0  0
    4.7088   -2.9028    0.0073 C   0  0  1  0  0  0  0  0  0  0  0  0
    4.1179   -1.6370   -0.5122 C   0  0  1  0  0  0  0  0  0  0  0  0
    4.6803   -0.6346    0.4991 C   0  0  0  0  0  0  0  0  0  0  0  0
    4.5343   -1.4551    1.8101 C   0  0  0  0  0  0  0  0  0  0  0  0
    4.2540   -2.8942    1.4207 N   0  0  2  0  0  0  0  0  0  0  0  0
    4.8144   -3.9296    2.3150 C   0  0  0  0  0  0  0  0  0  0  0  0
    4.4029   -5.3415    1.8722 C   0  0  0  0  0  0  0  0  0  0  0  0
    4.9054   -6.3959    2.8533 C   0  0  0  0  0  0  0  0  0  0  0  0
    4.4049   -6.1114    4.1502 O   0  0  0  0  0  0  0  0  0  0  0  0
    4.8647   -4.8631    4.6544 C   0  0  0  0  0  0  0  0  0  0  0  0
    4.3662   -3.7373    3.7670 C   0  0  0  0  0  0  0  0  0  0  0  0
    4.4549   -1.7139   -1.9049 N   0  0  0  0  0  0  0  0  0  0  0  0
    4.3766   -0.5744   -2.7777 C   0  0  0  0  0  0  0  0  0  0  0  0
    3.0430   -0.3415   -3.3643 C   0  0  0  0  0  0  0  0  0  0  0  0
    2.6504   -1.0421   -4.6332 C   0  0  0  0  0  0  0  0  0  0  0  0
    2.8516    0.4466   -4.6481 C   0  0  0  0  0  0  0  0  0  0  0  0
    3.2469   -4.2422   -0.9778 H   0  0  0  0  0  0  0  0  0  0  0  0
    4.9531   -4.7699   -1.1759 H   0  0  0  0  0  0  0  0  0  0  0  0
    5.8151   -2.8676    0.0251 H   0  0  0  0  0  0  0  0  0  0  0  0
    3.0169   -1.6377   -0.4317 H   0  0  0  0  0  0  0  0  0  0  0  0
    5.7291   -0.4176    0.2974 H   0  0  0  0  0  0  0  0  0  0  0  0
    4.1249    0.3024    0.5340 H   0  0  0  0  0  0  0  0  0  0  0  0
    5.4911   -1.4185    2.3519 H   0  0  0  0  0  0  0  0  0  0  0  0
    3.7600   -1.0827    2.4746 H   0  0  0  0  0  0  0  0  0  0  0  0
    5.9076   -3.8528    2.2698 H   0  0  0  0  0  0  0  0  0  0  0  0
    3.3169   -5.4130    1.7708 H   0  0  0  0  0  0  0  0  0  0  0  0
    4.8455   -5.6269    0.9231 H   0  0  0  0  0  0  0  0  0  0  0  0
    4.5667   -7.3790    2.5267 H   0  0  0  0  0  0  0  0  0  0  0  0
    5.9983   -6.4166    2.8474 H   0  0  0  0  0  0  0  0  0  0  0  0
    4.4906   -4.7390    5.6684 H   0  0  0  0  0  0  0  0  0  0  0  0
    5.9559   -4.8567    4.7074 H   0  0  0  0  0  0  0  0  0  0  0  0
    4.7537   -2.7913    4.1680 H   0  0  0  0  0  0  0  0  0  0  0  0
    3.2761   -3.6738    3.8210 H   0  0  0  0  0  0  0  0  0  0  0  0
    4.7041    0.3354   -2.3084 H   0  0  0  0  0  0  0  0  0  0  0  0
    5.0151   -0.7709   -3.6403 H   0  0  0  0  0  0  0  0  0  0  0  0
    2.2729   -0.2544   -2.6031 H   0  0  0  0  0  0  0  0  0  0  0  0
    3.4140   -1.6651   -5.0994 H   0  0  0  0  0  0  0  0  0  0  0  0
    1.6368   -1.4250   -4.7094 H   0  0  0  0  0  0  0  0  0  0  0  0
    1.9650    1.0663   -4.7335 H   0  0  0  0  0  0  0  0  0  0  0  0
    3.7502    0.8328   -5.1214 H   0  0  0  0  0  0  0  0  0  0  0  0
    3.2362   -2.9596    1.3815 H   0  0  0  0  0  0  0  0  0  0  0  0
  1  2  2  0
  2 15  1  0
  2  3  1  0
  3  4  1  0
  3 20  1  0
  3 21  1  0
  4  8  1  0
  4  5  1  0
  4 22  1  1
  5  6  1  0
  5 15  1  0
  5 23  1  6
  6  7  1  0
  6 24  1  0
  6 25  1  0
  7  8  1  0
  7 26  1  0
  7 27  1  0
  8  9  1  0
  8 44  1  6
  9 14  1  0
  9 10  1  0
  9 28  1  0
 10 11  1  0
 10 29  1  0
 10 30  1  0
 11 12  1  0
 11 31  1  0
 11 32  1  0
 12 13  1  0
 13 14  1  0
 13 33  1  0
 13 34  1  0
 14 35  1  0
 14 36  1  0
 15 16  1  0
 16 17  1  0
 16 37  1  0
 16 38  1  0
 17 19  1  0
 17 18  1  0
 17 39  1  0
 18 19  1  0
 18 40  1  0
 18 41  1  0
 19 42  1  0
 19 43  1  0
M  CHG  1   8   1
M  END
>  <i_m_ct_stereo_status>  (312) 
1

>  <s_m_source_file>  (312) 
/var/tmp/pbs.5076255.sched01/tmpt85fkz7r/123fjz13bl5.sdf

>  <i_m_source_file_index>  (312) 
28

>  <i_lp_mmshare_version>  (312) 
48012

>  <i_f3d_flags>  (312) 
0

>  <s_epik_input>  (312) 
W0NIMl0xW0NIMl1bQ0hdMVtDSDJdTihDKD1PKVtDSDJdMilbQ0BASF0oW0NASF0yMylbQ0gyXVtDSDJdTjNbQ0hdNFtDSDJdW0NIMl1PW0NIMl1bQ0gyXTQ=

>  <s_epik_cmdline>  (312) 
J2VwaWtfcHl0aG9uJywgJy1waHQnLCAnMi4wJywgJy1waCcsICc3LjAnLCAnLXRuJywgJzgnLCAnLW1hJywgJzIwMCcsICctaW1hZScsICc8aW5maWxlLm1hZT4nLCAnLW9tYWUnLCAnPG91dGZpbGUubWFlPic=

>  <r_epik_Ionization_Penalty>  (312) 
0.0203546

>  <r_epik_Ionization_Penalty_Charging>  (312) 
0.0203546

>  <r_epik_Ionization_Penalty_Neutral>  (312) 
1.3991e-10

>  <r_epik_State_Penalty>  (312) 
0.0163098

>  <r_epik_Charging_Adjusted_Penalty>  (312) 
0.0366644

>  <i_epik_Tot_Q>  (312) 
1

>  <i_epik_Tot_abs_Q>  (312) 
1

>  <s_lp_Force_Field>  (312) 
OPLS3e

>  <r_lp_Energy>  (312) 
30.8907

>  <b_lp_Chiralities_Consistent>  (312) 
1

>  <s_lp_Variant>  (312) 
107:0-1

>  <s_i_glide_gridfile>  (312) 
pfpi4k_grid

>  <i_i_glide_lignum>  (312) 
28

>  <i_i_glide_rotatable_bonds>  (312) 
3

>  <r_i_docking_score>  (312) 
-2.62041

>  <r_i_glide_ligand_efficiency>  (312) 
-0.137917

>  <r_i_glide_ligand_efficiency_sa>  (312) 
-0.368017

>  <r_i_glide_ligand_efficiency_ln>  (312) 
-0.664331

>  <r_i_glide_gscore>  (312) 
-2.62041

>  <r_i_glide_lipo>  (312) 
-0.423783

>  <r_i_glide_hbond>  (312) 
0

>  <r_i_glide_metal>  (312) 
-0

>  <r_i_glide_rewards>  (312) 
-1.61601

>  <r_i_glide_evdw>  (312) 
-17.4236

>  <r_i_glide_ecoul>  (312) 
-2.90598

>  <r_i_glide_erotb>  (312) 
0.758052

>  <r_i_glide_esite>  (312) 
-0.0315929

>  <r_i_glide_emodel>  (312) 
-24.6633

>  <r_i_glide_energy>  (312) 
-20.3296

>  <r_i_glide_einternal>  (312) 
0.593537

>  <r_i_glide_intrahb_reward>  (312) 
-0

>  <i_i_glide_confnum>  (312) 
4

>  <i_i_glide_posenum>  (312) 
11

>  <r_i_glide_eff_state_penalty>  (312) 
0

>  <ligand_id>  (312) 
107

>  <original_smiles>  (312) 
O=C1CC2C(CCN2C2CCOCC2)N1CC1CC1

>  <smiles>  (312) 
[H]C1([H])OC([H])([H])C([H])([H])C([H])([N+]2([H])C([H])([H])C([H])([H])C3([H])N(C([H])([H])C4([H])C([H])([H])C4([H])[H])C(=O)C([H])([H])C32[H])C1([H])[H]

$$$$
107:1:0
     RDKit          3D

 43 46  0  0  1  0  0  0  0  0999 V2000
    2.2035   -5.8668    1.9958 O   0  0  0  0  0  0  0  0  0  0  0  0
    2.7770   -4.8073    1.6698 C   0  0  0  0  0  0  0  0  0  0  0  0
    3.0132   -4.4382    0.2180 C   0  0  0  0  0  0  0  0  0  0  0  0
    3.2834   -2.9366    0.3793 C   0  0  1  0  0  0  0  0  0  0  0  0
    3.9962   -2.9156    1.7038 C   0  0  1  0  0  0  0  0  0  0  0  0
    4.0650   -1.4158    1.9023 C   0  0  0  0  0  0  0  0  0  0  0  0
    4.3750   -0.9950    0.4397 C   0  0  0  0  0  0  0  0  0  0  0  0
    4.2021   -2.1722   -0.4392 N   0  0  0  0  0  0  0  0  0  0  0  0
    3.5992   -1.8441   -1.7427 C   0  0  0  0  0  0  0  0  0  0  0  0
    3.4638   -3.0586   -2.6902 C   0  0  0  0  0  0  0  0  0  0  0  0
    2.8379   -2.6101   -4.0167 C   0  0  0  0  0  0  0  0  0  0  0  0
    3.6487   -1.6005   -4.6095 O   0  0  0  0  0  0  0  0  0  0  0  0
    3.7086   -0.4240   -3.8206 C   0  0  0  0  0  0  0  0  0  0  0  0
    4.3946   -0.7643   -2.4910 C   0  0  0  0  0  0  0  0  0  0  0  0
    3.2076   -3.8549    2.4997 N   0  0  0  0  0  0  0  0  0  0  0  0
    3.2192   -3.8595    3.9755 C   0  0  0  0  0  0  0  0  0  0  0  0
    1.8734   -3.7241    4.7026 C   0  0  0  0  0  0  0  0  0  0  0  0
    0.6949   -4.6565    4.4257 C   0  0  0  0  0  0  0  0  0  0  0  0
    0.6501   -3.1972    3.9792 C   0  0  0  0  0  0  0  0  0  0  0  0
    3.8861   -5.0065   -0.1257 H   0  0  0  0  0  0  0  0  0  0  0  0
    2.1222   -4.6538   -0.3819 H   0  0  0  0  0  0  0  0  0  0  0  0
    2.3174   -2.4135    0.4513 H   0  0  0  0  0  0  0  0  0  0  0  0
    5.0097   -3.3235    1.6505 H   0  0  0  0  0  0  0  0  0  0  0  0
    3.1140   -0.9831    2.2260 H   0  0  0  0  0  0  0  0  0  0  0  0
    4.8461   -1.1070    2.5960 H   0  0  0  0  0  0  0  0  0  0  0  0
    3.6893   -0.2032    0.1553 H   0  0  0  0  0  0  0  0  0  0  0  0
    5.3914   -0.6248    0.3239 H   0  0  0  0  0  0  0  0  0  0  0  0
    2.6271   -1.4386   -1.5523 H   0  0  0  0  0  0  0  0  0  0  0  0
    4.4336   -3.5267   -2.8674 H   0  0  0  0  0  0  0  0  0  0  0  0
    2.8175   -3.8270   -2.2797 H   0  0  0  0  0  0  0  0  0  0  0  0
    2.7595   -3.4564   -4.6955 H   0  0  0  0  0  0  0  0  0  0  0  0
    1.8215   -2.2544   -3.8507 H   0  0  0  0  0  0  0  0  0  0  0  0
    4.2702    0.3347   -4.3601 H   0  0  0  0  0  0  0  0  0  0  0  0
    2.7150   -0.0116   -3.6419 H   0  0  0  0  0  0  0  0  0  0  0  0
    4.4677    0.1292   -1.9053 H   0  0  0  0  0  0  0  0  0  0  0  0
    5.4109   -1.1114   -2.6608 H   0  0  0  0  0  0  0  0  0  0  0  0
    3.6822   -4.7956    4.3027 H   0  0  0  0  0  0  0  0  0  0  0  0
    3.8898   -3.0762    4.3372 H   0  0  0  0  0  0  0  0  0  0  0  0
    2.0024   -3.4133    5.7557 H   0  0  0  0  0  0  0  0  0  0  0  0
    0.8252   -5.4213    3.6769 H   0  0  0  0  0  0  0  0  0  0  0  0
    0.0560   -4.8548    5.3179 H   0  0  0  0  0  0  0  0  0  0  0  0
   -0.0355   -2.5119    4.4924 H   0  0  0  0  0  0  0  0  0  0  0  0
    0.7797   -2.9702    2.9156 H   0  0  0  0  0  0  0  0  0  0  0  0
  1  2  2  0
  2 15  1  0
  2  3  1  0
  3  4  1  0
  3 20  1  0
  3 21  1  0
  4  8  1  0
  4  5  1  0
  4 22  1  1
  5  6  1  0
  5 15  1  0
  5 23  1  6
  6  7  1  0
  6 24  1  0
  6 25  1  0
  7  8  1  0
  7 26  1  0
  7 27  1  0
  8  9  1  0
  9 14  1  0
  9 10  1  0
  9 28  1  0
 10 11  1  0
 10 29  1  0
 10 30  1  0
 11 12  1  0
 11 31  1  0
 11 32  1  0
 12 13  1  0
 13 14  1  0
 13 33  1  0
 13 34  1  0
 14 35  1  0
 14 36  1  0
 15 16  1  0
 16 17  1  0
 16 37  1  0
 16 38  1  0
 17 19  1  0
 17 18  1  0
 17 39  1  0
 18 19  1  0
 18 40  1  0
 18 41  1  0
 19 42  1  0
 19 43  1  0
M  END
>  <i_m_ct_stereo_status>  (313) 
1

>  <s_m_source_file>  (313) 
/var/tmp/pbs.5076255.sched01/tmpt85fkz7r/123fjz13bl5.sdf

>  <i_m_source_file_index>  (313) 
29

>  <i_lp_mmshare_version>  (313) 
48012

>  <i_f3d_flags>  (313) 
0

>  <s_epik_input>  (313) 
W0NIMl0xW0NIMl1bQ0hdMVtDSDJdTihDKD1PKVtDSDJdMilbQ0BASF0oW0NASF0yMylbQ0gyXVtDSDJdTjNbQ0hdNFtDSDJdW0NIMl1PW0NIMl1bQ0gyXTQ=

>  <s_epik_cmdline>  (313) 
J2VwaWtfcHl0aG9uJywgJy1waHQnLCAnMi4wJywgJy1waCcsICc3LjAnLCAnLXRuJywgJzgnLCAnLW1hJywgJzIwMCcsICctaW1hZScsICc8aW5maWxlLm1hZT4nLCAnLW9tYWUnLCAnPG91dGZpbGUubWFlPic=

>  <r_epik_Ionization_Penalty>  (313) 
2.00743

>  <r_epik_Ionization_Penalty_Charging>  (313) 
0

>  <r_epik_Ionization_Penalty_Neutral>  (313) 
2.00743

>  <r_epik_State_Penalty>  (313) 
2.13668

>  <r_epik_Charging_Adjusted_Penalty>  (313) 
2.13668

>  <i_epik_Tot_Q>  (313) 
0

>  <i_epik_Tot_abs_Q>  (313) 
0

>  <s_lp_Force_Field>  (313) 
OPLS3e

>  <r_lp_Energy>  (313) 
31.9189

>  <b_lp_Chiralities_Consistent>  (313) 
1

>  <s_lp_Variant>  (313) 
107:0-2

>  <s_i_glide_gridfile>  (313) 
pfpi4k_grid

>  <i_i_glide_lignum>  (313) 
29

>  <i_i_glide_rotatable_bonds>  (313) 
3

>  <r_i_docking_score>  (313) 
-3.26895

>  <r_i_glide_ligand_efficiency>  (313) 
-0.17205

>  <r_i_glide_ligand_efficiency_sa>  (313) 
-0.459098

>  <r_i_glide_ligand_efficiency_ln>  (313) 
-0.828748

>  <r_i_glide_gscore>  (313) 
-3.26895

>  <r_i_glide_lipo>  (313) 
-0.415617

>  <r_i_glide_hbond>  (313) 
-0.32

>  <r_i_glide_metal>  (313) 
-0

>  <r_i_glide_rewards>  (313) 
-1.60677

>  <r_i_glide_evdw>  (313) 
-19.897

>  <r_i_glide_ecoul>  (313) 
-4.56386

>  <r_i_glide_erotb>  (313) 
0.763048

>  <r_i_glide_esite>  (313) 
-0.0101737

>  <r_i_glide_emodel>  (313) 
-25.3986

>  <r_i_glide_energy>  (313) 
-24.4609

>  <r_i_glide_einternal>  (313) 
6.74795

>  <r_i_glide_intrahb_reward>  (313) 
-0

>  <i_i_glide_confnum>  (313) 
5

>  <i_i_glide_posenum>  (313) 
13

>  <r_i_glide_eff_state_penalty>  (313) 
0

>  <ligand_id>  (313) 
107

>  <original_smiles>  (313) 
O=C1CC2C(CCN2C2CCOCC2)N1CC1CC1

>  <smiles>  (313) 
[H]C1([H])OC([H])([H])C([H])([H])C([H])(N2C([H])([H])C([H])([H])C3([H])N(C([H])([H])C4([H])C([H])([H])C4([H])[H])C(=O)C([H])([H])C23[H])C1([H])[H]

$$$$
107:1:1
     RDKit          3D

 43 46  0  0  1  0  0  0  0  0999 V2000
    1.9712   -5.7609    2.2682 O   0  0  0  0  0  0  0  0  0  0  0  0
    2.5507   -4.7243    1.9457 C   0  0  0  0  0  0  0  0  0  0  0  0
    3.0386   -4.4629    0.5209 C   0  0  0  0  0  0  0  0  0  0  0  0
    3.1342   -2.9381    0.5892 C   0  0  1  0  0  0  0  0  0  0  0  0
    3.6447   -2.7425    1.9939 C   0  0  1  0  0  0  0  0  0  0  0  0
    3.5213   -1.2438    2.0878 C   0  0  0  0  0  0  0  0  0  0  0  0
    3.9832   -0.8621    0.6548 C   0  0  0  0  0  0  0  0  0  0  0  0
    4.0679   -2.0998   -0.1562 N   0  0  0  0  0  0  0  0  0  0  0  0
    3.6289   -1.8644   -1.5433 C   0  0  0  0  0  0  0  0  0  0  0  0
    3.6073   -3.1467   -2.3938 C   0  0  0  0  0  0  0  0  0  0  0  0
    3.1404   -2.8364   -3.8194 C   0  0  0  0  0  0  0  0  0  0  0  0
    3.9959   -1.8643   -4.4105 O   0  0  0  0  0  0  0  0  0  0  0  0
    3.9797   -0.6316   -3.7045 C   0  0  0  0  0  0  0  0  0  0  0  0
    4.5063   -0.8329   -2.2733 C   0  0  0  0  0  0  0  0  0  0  0  0
    2.8208   -3.6744    2.7459 N   0  0  0  0  0  0  0  0  0  0  0  0
    2.7089   -3.6484    4.1986 C   0  0  0  0  0  0  0  0  0  0  0  0
    1.2886   -3.7543    4.7385 C   0  0  0  0  0  0  0  0  0  0  0  0
    1.0634   -3.9560    6.2213 C   0  0  0  0  0  0  0  0  0  0  0  0
    0.7612   -5.0754    5.2559 C   0  0  0  0  0  0  0  0  0  0  0  0
    4.0068   -4.9441    0.3632 H   0  0  0  0  0  0  0  0  0  0  0  0
    2.2956   -4.8380   -0.1823 H   0  0  0  0  0  0  0  0  0  0  0  0
    2.1232   -2.5252    0.4833 H   0  0  0  0  0  0  0  0  0  0  0  0
    4.6913   -3.0396    2.1003 H   0  0  0  0  0  0  0  0  0  0  0  0
    2.4894   -0.9266    2.2527 H   0  0  0  0  0  0  0  0  0  0  0  0
    4.1497   -0.8086    2.8658 H   0  0  0  0  0  0  0  0  0  0  0  0
    3.2479   -0.1784    0.2344 H   0  0  0  0  0  0  0  0  0  0  0  0
    4.9531   -0.3646    0.6593 H   0  0  0  0  0  0  0  0  0  0  0  0
    2.6196   -1.4745   -1.5206 H   0  0  0  0  0  0  0  0  0  0  0  0
    4.5900   -3.6167   -2.4115 H   0  0  0  0  0  0  0  0  0  0  0  0
    2.8927   -3.8561   -1.9942 H   0  0  0  0  0  0  0  0  0  0  0  0
    3.1582   -3.7531   -4.4068 H   0  0  0  0  0  0  0  0  0  0  0  0
    2.1059   -2.4851   -3.8063 H   0  0  0  0  0  0  0  0  0  0  0  0
    4.6046    0.0727   -4.2490 H   0  0  0  0  0  0  0  0  0  0  0  0
    2.9697   -0.2163   -3.6849 H   0  0  0  0  0  0  0  0  0  0  0  0
    4.5040    0.1312   -1.7689 H   0  0  0  0  0  0  0  0  0  0  0  0
    5.5338   -1.1813   -2.2960 H   0  0  0  0  0  0  0  0  0  0  0  0
    3.2920   -4.4839    4.5936 H   0  0  0  0  0  0  0  0  0  0  0  0
    3.1621   -2.7403    4.5977 H   0  0  0  0  0  0  0  0  0  0  0  0
    0.5725   -3.1051    4.2349 H   0  0  0  0  0  0  0  0  0  0  0  0
    1.9462   -4.0455    6.8532 H   0  0  0  0  0  0  0  0  0  0  0  0
    0.2173   -3.4383    6.6740 H   0  0  0  0  0  0  0  0  0  0  0  0
   -0.2865   -5.3059    5.0618 H   0  0  0  0  0  0  0  0  0  0  0  0
    1.4360   -5.9309    5.2328 H   0  0  0  0  0  0  0  0  0  0  0  0
  1  2  2  0
  2 15  1  0
  2  3  1  0
  3  4  1  0
  3 20  1  0
  3 21  1  0
  4  8  1  0
  4  5  1  0
  4 22  1  1
  5  6  1  0
  5 15  1  0
  5 23  1  6
  6  7  1  0
  6 24  1  0
  6 25  1  0
  7  8  1  0
  7 26  1  0
  7 27  1  0
  8  9  1  0
  9 14  1  0
  9 10  1  0
  9 28  1  0
 10 11  1  0
 10 29  1  0
 10 30  1  0
 11 12  1  0
 11 31  1  0
 11 32  1  0
 12 13  1  0
 13 14  1  0
 13 33  1  0
 13 34  1  0
 14 35  1  0
 14 36  1  0
 15 16  1  0
 16 17  1  0
 16 37  1  0
 16 38  1  0
 17 19  1  0
 17 18  1  0
 17 39  1  0
 18 19  1  0
 18 40  1  0
 18 41  1  0
 19 42  1  0
 19 43  1  0
M  END
>  <i_m_ct_stereo_status>  (314) 
1

>  <s_m_source_file>  (314) 
/var/tmp/pbs.5076255.sched01/tmpt85fkz7r/123fjz13bl5.sdf

>  <i_m_source_file_index>  (314) 
29

>  <i_lp_mmshare_version>  (314) 
48012

>  <i_f3d_flags>  (314) 
0

>  <s_epik_input>  (314) 
W0NIMl0xW0NIMl1bQ0hdMVtDSDJdTihDKD1PKVtDSDJdMilbQ0BASF0oW0NASF0yMylbQ0gyXVtDSDJdTjNbQ0hdNFtDSDJdW0NIMl1PW0NIMl1bQ0gyXTQ=

>  <s_epik_cmdline>  (314) 
J2VwaWtfcHl0aG9uJywgJy1waHQnLCAnMi4wJywgJy1waCcsICc3LjAnLCAnLXRuJywgJzgnLCAnLW1hJywgJzIwMCcsICctaW1hZScsICc8aW5maWxlLm1hZT4nLCAnLW9tYWUnLCAnPG91dGZpbGUubWFlPic=

>  <r_epik_Ionization_Penalty>  (314) 
2.00743

>  <r_epik_Ionization_Penalty_Charging>  (314) 
0

>  <r_epik_Ionization_Penalty_Neutral>  (314) 
2.00743

>  <r_epik_State_Penalty>  (314) 
2.13668

>  <r_epik_Charging_Adjusted_Penalty>  (314) 
2.13668

>  <i_epik_Tot_Q>  (314) 
0

>  <i_epik_Tot_abs_Q>  (314) 
0

>  <s_lp_Force_Field>  (314) 
OPLS3e

>  <r_lp_Energy>  (314) 
31.9189

>  <b_lp_Chiralities_Consistent>  (314) 
1

>  <s_lp_Variant>  (314) 
107:0-2

>  <s_i_glide_gridfile>  (314) 
pfpi4k_grid

>  <i_i_glide_lignum>  (314) 
29

>  <i_i_glide_rotatable_bonds>  (314) 
3

>  <r_i_docking_score>  (314) 
-3.217

>  <r_i_glide_ligand_efficiency>  (314) 
-0.169316

>  <r_i_glide_ligand_efficiency_sa>  (314) 
-0.451803

>  <r_i_glide_ligand_efficiency_ln>  (314) 
-0.815579

>  <r_i_glide_gscore>  (314) 
-3.217

>  <r_i_glide_lipo>  (314) 
-0.405357

>  <r_i_glide_hbond>  (314) 
-0.32

>  <r_i_glide_metal>  (314) 
-0

>  <r_i_glide_rewards>  (314) 
-1.60661

>  <r_i_glide_evdw>  (314) 
-18.008

>  <r_i_glide_ecoul>  (314) 
-4.88824

>  <r_i_glide_erotb>  (314) 
0.763048

>  <r_i_glide_esite>  (314) 
-0.0144428

>  <r_i_glide_emodel>  (314) 
-27.4437

>  <r_i_glide_energy>  (314) 
-22.8962

>  <r_i_glide_einternal>  (314) 
0.139005

>  <r_i_glide_intrahb_reward>  (314) 
-0

>  <i_i_glide_confnum>  (314) 
5

>  <i_i_glide_posenum>  (314) 
1

>  <r_i_glide_eff_state_penalty>  (314) 
0

>  <ligand_id>  (314) 
107

>  <original_smiles>  (314) 
O=C1CC2C(CCN2C2CCOCC2)N1CC1CC1

>  <smiles>  (314) 
[H]C1([H])OC([H])([H])C([H])([H])C([H])(N2C([H])([H])C([H])([H])C3([H])N(C([H])([H])C4([H])C([H])([H])C4([H])[H])C(=O)C([H])([H])C23[H])C1([H])[H]

$$$$
107:1:2
     RDKit          3D

 43 46  0  0  1  0  0  0  0  0999 V2000
    6.3179   -2.7746   -2.0322 O   0  0  0  0  0  0  0  0  0  0  0  0
    5.4384   -3.1616   -1.2621 C   0  0  0  0  0  0  0  0  0  0  0  0
    5.4456   -4.5528   -0.6246 C   0  0  0  0  0  0  0  0  0  0  0  0
    4.5441   -4.2608    0.5673 C   0  0  1  0  0  0  0  0  0  0  0  0
    3.5348   -3.3318   -0.0473 C   0  0  1  0  0  0  0  0  0  0  0  0
    2.8113   -2.9009    1.2038 C   0  0  0  0  0  0  0  0  0  0  0  0
    2.7847   -4.2616    1.9625 C   0  0  0  0  0  0  0  0  0  0  0  0
    3.6770   -5.2091    1.2460 N   0  0  0  0  0  0  0  0  0  0  0  0
    4.4033   -6.0868    2.1818 C   0  0  0  0  0  0  0  0  0  0  0  0
    5.4173   -7.0164    1.4779 C   0  0  0  0  0  0  0  0  0  0  0  0
    6.1298   -7.9011    2.5082 C   0  0  0  0  0  0  0  0  0  0  0  0
    5.1837   -8.6710    3.2402 O   0  0  0  0  0  0  0  0  0  0  0  0
    4.2583   -7.8663    3.9617 C   0  0  0  0  0  0  0  0  0  0  0  0
    3.4485   -6.9794    2.9997 C   0  0  0  0  0  0  0  0  0  0  0  0
    4.3685   -2.4583   -0.8484 N   0  0  0  0  0  0  0  0  0  0  0  0
    3.9159   -1.1878   -1.3956 C   0  0  0  0  0  0  0  0  0  0  0  0
    3.1694   -1.3316   -2.7113 C   0  0  0  0  0  0  0  0  0  0  0  0
    3.9169   -1.5776   -4.0021 C   0  0  0  0  0  0  0  0  0  0  0  0
    3.2392   -0.2503   -3.7654 C   0  0  0  0  0  0  0  0  0  0  0  0
    5.0226   -5.2887   -1.3154 H   0  0  0  0  0  0  0  0  0  0  0  0
    6.4587   -4.8089   -0.3254 H   0  0  0  0  0  0  0  0  0  0  0  0
    5.1482   -3.7373    1.3180 H   0  0  0  0  0  0  0  0  0  0  0  0
    2.8439   -3.8532   -0.7173 H   0  0  0  0  0  0  0  0  0  0  0  0
    3.3791   -2.1562    1.7678 H   0  0  0  0  0  0  0  0  0  0  0  0
    1.8160   -2.4981    1.0030 H   0  0  0  0  0  0  0  0  0  0  0  0
    3.1297   -4.0979    2.9878 H   0  0  0  0  0  0  0  0  0  0  0  0
    1.7776   -4.6795    2.0091 H   0  0  0  0  0  0  0  0  0  0  0  0
    4.9548   -5.4502    2.8735 H   0  0  0  0  0  0  0  0  0  0  0  0
    4.9142   -7.6375    0.7354 H   0  0  0  0  0  0  0  0  0  0  0  0
    6.1967   -6.4621    0.9623 H   0  0  0  0  0  0  0  0  0  0  0  0
    6.8334   -8.5663    2.0076 H   0  0  0  0  0  0  0  0  0  0  0  0
    6.7127   -7.2750    3.1849 H   0  0  0  0  0  0  0  0  0  0  0  0
    3.5975   -8.5209    4.5297 H   0  0  0  0  0  0  0  0  0  0  0  0
    4.7904   -7.2431    4.6828 H   0  0  0  0  0  0  0  0  0  0  0  0
    2.7419   -6.3895    3.5817 H   0  0  0  0  0  0  0  0  0  0  0  0
    2.8558   -7.6029    2.3320 H   0  0  0  0  0  0  0  0  0  0  0  0
    3.2712   -0.6850   -0.6789 H   0  0  0  0  0  0  0  0  0  0  0  0
    4.7794   -0.5356   -1.5364 H   0  0  0  0  0  0  0  0  0  0  0  0
    2.2189   -1.8569   -2.6148 H   0  0  0  0  0  0  0  0  0  0  0  0
    5.0024   -1.6090   -3.9647 H   0  0  0  0  0  0  0  0  0  0  0  0
    3.4532   -2.2658   -4.7063 H   0  0  0  0  0  0  0  0  0  0  0  0
    2.3315   -0.0408   -4.3299 H   0  0  0  0  0  0  0  0  0  0  0  0
    3.8619    0.6174   -3.5528 H   0  0  0  0  0  0  0  0  0  0  0  0
  1  2  2  0
  2 15  1  0
  2  3  1  0
  3  4  1  0
  3 20  1  0
  3 21  1  0
  4  8  1  0
  4  5  1  0
  4 22  1  1
  5  6  1  0
  5 15  1  0
  5 23  1  6
  6  7  1  0
  6 24  1  0
  6 25  1  0
  7  8  1  0
  7 26  1  0
  7 27  1  0
  8  9  1  0
  9 14  1  0
  9 10  1  0
  9 28  1  0
 10 11  1  0
 10 29  1  0
 10 30  1  0
 11 12  1  0
 11 31  1  0
 11 32  1  0
 12 13  1  0
 13 14  1  0
 13 33  1  0
 13 34  1  0
 14 35  1  0
 14 36  1  0
 15 16  1  0
 16 17  1  0
 16 37  1  0
 16 38  1  0
 17 19  1  0
 17 18  1  0
 17 39  1  0
 18 19  1  0
 18 40  1  0
 18 41  1  0
 19 42  1  0
 19 43  1  0
M  END
>  <i_m_ct_stereo_status>  (315) 
1

>  <s_m_source_file>  (315) 
/var/tmp/pbs.5076255.sched01/tmpt85fkz7r/123fjz13bl5.sdf

>  <i_m_source_file_index>  (315) 
29

>  <i_lp_mmshare_version>  (315) 
48012

>  <i_f3d_flags>  (315) 
0

>  <s_epik_input>  (315) 
W0NIMl0xW0NIMl1bQ0hdMVtDSDJdTihDKD1PKVtDSDJdMilbQ0BASF0oW0NASF0yMylbQ0gyXVtDSDJdTjNbQ0hdNFtDSDJdW0NIMl1PW0NIMl1bQ0gyXTQ=

>  <s_epik_cmdline>  (315) 
J2VwaWtfcHl0aG9uJywgJy1waHQnLCAnMi4wJywgJy1waCcsICc3LjAnLCAnLXRuJywgJzgnLCAnLW1hJywgJzIwMCcsICctaW1hZScsICc8aW5maWxlLm1hZT4nLCAnLW9tYWUnLCAnPG91dGZpbGUubWFlPic=

>  <r_epik_Ionization_Penalty>  (315) 
2.00743

>  <r_epik_Ionization_Penalty_Charging>  (315) 
0

>  <r_epik_Ionization_Penalty_Neutral>  (315) 
2.00743

>  <r_epik_State_Penalty>  (315) 
2.13668

>  <r_epik_Charging_Adjusted_Penalty>  (315) 
2.13668

>  <i_epik_Tot_Q>  (315) 
0

>  <i_epik_Tot_abs_Q>  (315) 
0

>  <s_lp_Force_Field>  (315) 
OPLS3e

>  <r_lp_Energy>  (315) 
31.9189

>  <b_lp_Chiralities_Consistent>  (315) 
1

>  <s_lp_Variant>  (315) 
107:0-2

>  <s_i_glide_gridfile>  (315) 
pfpi4k_grid

>  <i_i_glide_lignum>  (315) 
29

>  <i_i_glide_rotatable_bonds>  (315) 
3

>  <r_i_docking_score>  (315) 
-2.60734

>  <r_i_glide_ligand_efficiency>  (315) 
-0.137229

>  <r_i_glide_ligand_efficiency_sa>  (315) 
-0.366181

>  <r_i_glide_ligand_efficiency_ln>  (315) 
-0.661018

>  <r_i_glide_gscore>  (315) 
-2.60734

>  <r_i_glide_lipo>  (315) 
-0.455832

>  <r_i_glide_hbond>  (315) 
0

>  <r_i_glide_metal>  (315) 
-0

>  <r_i_glide_rewards>  (315) 
-1.69493

>  <r_i_glide_evdw>  (315) 
-20.3994

>  <r_i_glide_ecoul>  (315) 
-1.21783

>  <r_i_glide_erotb>  (315) 
0.763048

>  <r_i_glide_esite>  (315) 
-0.0169884

>  <r_i_glide_emodel>  (315) 
-24.3772

>  <r_i_glide_energy>  (315) 
-21.6172

>  <r_i_glide_einternal>  (315) 
1.74094

>  <r_i_glide_intrahb_reward>  (315) 
-0

>  <i_i_glide_confnum>  (315) 
4

>  <i_i_glide_posenum>  (315) 
2

>  <r_i_glide_eff_state_penalty>  (315) 
0

>  <ligand_id>  (315) 
107

>  <original_smiles>  (315) 
O=C1CC2C(CCN2C2CCOCC2)N1CC1CC1

>  <smiles>  (315) 
[H]C1([H])OC([H])([H])C([H])([H])C([H])(N2C([H])([H])C([H])([H])C3([H])N(C([H])([H])C4([H])C([H])([H])C4([H])[H])C(=O)C([H])([H])C23[H])C1([H])[H]

$$$$
109:0:0
     RDKit          3D

 86 90  0  0  1  0  0  0  0  0999 V2000
   -1.8178   -0.4100    4.9857 C   0  0  0  0  0  0  0  0  0  0  0  0
   -1.0997   -1.4693    5.6095 O   0  0  0  0  0  0  0  0  0  0  0  0
    0.3223   -1.3062    5.6421 C   0  0  2  0  0  0  0  0  0  0  0  0
    0.9411   -1.4362    4.2447 C   0  0  0  0  0  0  0  0  0  0  0  0
    2.4210   -1.0880    4.3542 C   0  0  0  0  0  0  0  0  0  0  0  0
    3.2710   -2.0937    5.1892 C   0  0  1  0  0  0  0  0  0  0  0  0
    4.6325   -1.3557    5.3577 C   0  0  0  0  0  0  0  0  0  0  0  0
    2.5599   -2.2536    6.5853 C   0  0  2  0  0  0  0  0  0  0  0  0
    3.2835   -3.3294    7.4274 C   0  0  0  0  0  0  0  0  0  0  0  0
    3.5220   -4.6805    6.7205 C   0  0  0  0  0  0  0  0  0  0  0  0
    4.2243   -4.6454    5.3255 C   0  0  2  0  0  0  0  0  0  0  0  0
    5.7169   -4.2608    5.5818 C   0  0  0  0  0  0  0  0  0  0  0  0
    3.4526   -3.5181    4.5013 C   0  0  2  0  0  0  0  0  0  0  0  0
    3.8779   -3.4677    3.0173 C   0  0  0  0  0  0  0  0  0  0  0  0
    3.2727   -4.5457    2.1361 C   0  0  0  0  0  0  0  0  0  0  0  0
    2.7976   -5.7708    2.4478 C   0  0  0  0  0  0  0  0  0  0  0  0
    2.2666   -6.6056    1.2655 C   0  0  0  0  0  0  0  0  0  0  0  0
    1.0634   -7.5326    1.5413 C   0  0  0  0  0  0  0  0  0  0  0  0
    0.7503   -7.6415    3.0382 C   0  0  1  0  0  0  0  0  0  0  0  0
   -0.1414   -6.4322    3.4402 C   0  0  0  0  0  0  0  0  0  0  0  0
   -0.0667   -8.8379    3.4600 C   0  0  0  0  0  0  0  0  0  0  0  0
   -1.1654   -9.4349    2.6035 C   0  0  0  0  0  0  0  0  0  0  0  0
    0.2994   -9.2232    4.6851 C   0  0  0  0  0  0  0  0  0  0  0  0
    1.4754   -8.4210    5.1994 C   0  0  1  0  0  0  0  0  0  0  0  0
    2.3132   -9.2755    5.9548 O   0  0  0  0  0  0  0  0  0  0  0  0
    2.0864   -7.8207    3.8731 C   0  0  1  0  0  0  0  0  0  0  0  0
    2.9826   -8.9396    3.2277 C   0  0  0  0  0  0  0  0  0  0  0  0
    2.8105   -6.4003    3.8831 C   0  0  1  0  0  0  0  0  0  0  0  0
    4.1870   -6.1252    4.6491 C   0  0  0  0  0  0  0  0  0  0  0  0
    5.3793   -6.3714    3.6668 C   0  0  0  0  0  0  0  0  0  0  0  0
    4.4586   -7.1780    5.7611 C   0  0  0  0  0  0  0  0  0  0  0  0
    0.9658   -2.3172    6.6413 C   0  0  0  0  0  0  0  0  0  0  0  0
    0.5120   -1.8800    8.0572 C   0  0  0  0  0  0  0  0  0  0  0  0
    0.3646   -3.7263    6.3976 C   0  0  0  0  0  0  0  0  0  0  0  0
   -2.8886   -0.5916    5.0884 H   0  0  0  0  0  0  0  0  0  0  0  0
   -1.6147   -0.3430    3.9167 H   0  0  0  0  0  0  0  0  0  0  0  0
   -1.5924    0.5547    5.4459 H   0  0  0  0  0  0  0  0  0  0  0  0
    0.5228   -0.2978    6.0111 H   0  0  0  0  0  0  0  0  0  0  0  0
    0.7807   -2.4270    3.8215 H   0  0  0  0  0  0  0  0  0  0  0  0
    0.4907   -0.7296    3.5513 H   0  0  0  0  0  0  0  0  0  0  0  0
    2.8363   -0.8820    3.3716 H   0  0  0  0  0  0  0  0  0  0  0  0
    2.4618   -0.1077    4.8326 H   0  0  0  0  0  0  0  0  0  0  0  0
    5.1589   -1.6147    6.2683 H   0  0  0  0  0  0  0  0  0  0  0  0
    4.5147   -0.2753    5.4330 H   0  0  0  0  0  0  0  0  0  0  0  0
    5.2997   -1.5340    4.5162 H   0  0  0  0  0  0  0  0  0  0  0  0
    2.7791   -1.3163    7.0973 H   0  0  0  0  0  0  0  0  0  0  0  0
    4.2388   -2.9341    7.7667 H   0  0  0  0  0  0  0  0  0  0  0  0
    2.7462   -3.5184    8.3528 H   0  0  0  0  0  0  0  0  0  0  0  0
    4.1115   -5.2668    7.4251 H   0  0  0  0  0  0  0  0  0  0  0  0
    2.5813   -5.2132    6.6237 H   0  0  0  0  0  0  0  0  0  0  0  0
    6.1844   -3.8308    4.6994 H   0  0  0  0  0  0  0  0  0  0  0  0
    6.3361   -5.1026    5.8850 H   0  0  0  0  0  0  0  0  0  0  0  0
    5.8491   -3.5551    6.3943 H   0  0  0  0  0  0  0  0  0  0  0  0
    2.4226   -3.8250    4.4381 H   0  0  0  0  0  0  0  0  0  0  0  0
    3.5187   -2.5708    2.5298 H   0  0  0  0  0  0  0  0  0  0  0  0
    4.9580   -3.4258    2.8873 H   0  0  0  0  0  0  0  0  0  0  0  0
    3.2506   -4.2526    1.0974 H   0  0  0  0  0  0  0  0  0  0  0  0
    2.0070   -5.9503    0.4347 H   0  0  0  0  0  0  0  0  0  0  0  0
    3.0949   -7.1968    0.8804 H   0  0  0  0  0  0  0  0  0  0  0  0
    0.1834   -7.1842    0.9990 H   0  0  0  0  0  0  0  0  0  0  0  0
    1.2800   -8.5160    1.1266 H   0  0  0  0  0  0  0  0  0  0  0  0
    0.2657   -5.4683    3.1382 H   0  0  0  0  0  0  0  0  0  0  0  0
   -0.3168   -6.3888    4.5151 H   0  0  0  0  0  0  0  0  0  0  0  0
   -1.1218   -6.5372    2.9792 H   0  0  0  0  0  0  0  0  0  0  0  0
   -1.9002   -8.6831    2.3148 H   0  0  0  0  0  0  0  0  0  0  0  0
   -1.6748  -10.2219    3.1512 H   0  0  0  0  0  0  0  0  0  0  0  0
   -0.7466   -9.8861    1.7046 H   0  0  0  0  0  0  0  0  0  0  0  0
   -0.1583  -10.0288    5.2416 H   0  0  0  0  0  0  0  0  0  0  0  0
    1.0915   -7.6360    5.8525 H   0  0  0  0  0  0  0  0  0  0  0  0
    1.8091  -10.0136    6.2709 H   0  0  0  0  0  0  0  0  0  0  0  0
    3.7224   -9.3502    3.9085 H   0  0  0  0  0  0  0  0  0  0  0  0
    3.5521   -8.6163    2.3632 H   0  0  0  0  0  0  0  0  0  0  0  0
    2.3912   -9.7959    2.9008 H   0  0  0  0  0  0  0  0  0  0  0  0
    2.0928   -5.8351    4.4650 H   0  0  0  0  0  0  0  0  0  0  0  0
    5.2366   -7.2876    3.1012 H   0  0  0  0  0  0  0  0  0  0  0  0
    6.3293   -6.5005    4.1833 H   0  0  0  0  0  0  0  0  0  0  0  0
    5.5381   -5.5776    2.9442 H   0  0  0  0  0  0  0  0  0  0  0  0
    4.6366   -8.1696    5.3577 H   0  0  0  0  0  0  0  0  0  0  0  0
    3.6436   -7.2546    6.4771 H   0  0  0  0  0  0  0  0  0  0  0  0
    5.3557   -6.9559    6.3375 H   0  0  0  0  0  0  0  0  0  0  0  0
    0.8422   -2.5667    8.8371 H   0  0  0  0  0  0  0  0  0  0  0  0
   -0.5735   -1.8330    8.1142 H   0  0  0  0  0  0  0  0  0  0  0  0
    0.8912   -0.8879    8.3123 H   0  0  0  0  0  0  0  0  0  0  0  0
    0.6785   -4.4404    7.1563 H   0  0  0  0  0  0  0  0  0  0  0  0
    0.6077   -4.1276    5.4182 H   0  0  0  0  0  0  0  0  0  0  0  0
   -0.7245   -3.7135    6.4529 H   0  0  0  0  0  0  0  0  0  0  0  0
  1  2  1  0
  1 35  1  0
  1 36  1  0
  1 37  1  0
  2  3  1  0
  3 32  1  0
  3  4  1  0
  3 38  1  1
  4  5  1  0
  4 39  1  0
  4 40  1  0
  5  6  1  0
  5 41  1  0
  5 42  1  0
  6 13  1  0
  6  7  1  1
  6  8  1  0
  7 43  1  0
  7 44  1  0
  7 45  1  0
  8  9  1  0
  8 32  1  0
  8 46  1  1
  9 10  1  0
  9 47  1  0
  9 48  1  0
 10 11  1  0
 10 49  1  0
 10 50  1  0
 11 29  1  0
 11 12  1  1
 11 13  1  0
 12 51  1  0
 12 52  1  0
 12 53  1  0
 13 14  1  0
 13 54  1  6
 14 15  1  0
 14 55  1  0
 14 56  1  0
 15 16  2  0
 15 57  1  0
 16 28  1  0
 16 17  1  0
 17 18  1  0
 17 58  1  0
 17 59  1  0
 18 19  1  0
 18 60  1  0
 18 61  1  0
 19 26  1  0
 19 20  1  1
 19 21  1  0
 20 62  1  0
 20 63  1  0
 20 64  1  0
 21 22  1  0
 21 23  2  0
 22 65  1  0
 22 66  1  0
 22 67  1  0
 23 24  1  0
 23 68  1  0
 24 25  1  0
 24 26  1  0
 24 69  1  1
 25 70  1  0
 26 27  1  6
 26 28  1  0
 27 71  1  0
 27 72  1  0
 27 73  1  0
 28 29  1  0
 28 74  1  1
 29 30  1  0
 29 31  1  0
 30 75  1  0
 30 76  1  0
 30 77  1  0
 31 78  1  0
 31 79  1  0
 31 80  1  0
 32 33  1  0
 32 34  1  0
 33 81  1  0
 33 82  1  0
 33 83  1  0
 34 84  1  0
 34 85  1  0
 34 86  1  0
M  END
>  <i_m_ct_stereo_status>  (316) 
1

>  <s_m_source_file>  (316) 
/var/tmp/pbs.5076255.sched01/tmpt85fkz7r/123fjz13bl5.sdf

>  <i_m_source_file_index>  (316) 
31

>  <i_lp_mmshare_version>  (316) 
48012

>  <i_f3d_flags>  (316) 
0

>  <s_epik_input>  (316) 
W0NIM11PW0NASF0oW0NIMl1bQ0gyXTEpQyhbQ0gzXSkoW0NIM10pW0NASF0oW0NAXTEyW0NIM10pW0NIMl1bQ0gyXVtDQF0zKFtDSDNdKVtDQEBIXTJbQ0gyXVtDSF09QzRbQ0BIXShDMyhbQ0gzXSlbQ0gzXSlbQ0BdNShbQ0gzXSlbQ0BAXShbQ0gzXSkoW0NIMl1bQ0gyXTQpQyhbQ0gzXSk9W0NIXVtDQEhdNVtPSF0=

>  <s_epik_cmdline>  (316) 
J2VwaWtfcHl0aG9uJywgJy1waHQnLCAnMi4wJywgJy1waCcsICc3LjAnLCAnLXRuJywgJzgnLCAnLW1hJywgJzIwMCcsICctaW1hZScsICc8aW5maWxlLm1hZT4nLCAnLW9tYWUnLCAnPG91dGZpbGUubWFlPic=

>  <r_lp_tautomer_probability>  (316) 
1

>  <r_epik_Ionization_Penalty>  (316) 
4.03153e-07

>  <r_epik_Ionization_Penalty_Charging>  (316) 
0

>  <r_epik_Ionization_Penalty_Neutral>  (316) 
4.03153e-07

>  <r_epik_State_Penalty>  (316) 
-0

>  <r_epik_Charging_Adjusted_Penalty>  (316) 
0

>  <i_epik_Tot_Q>  (316) 
0

>  <i_epik_Tot_abs_Q>  (316) 
0

>  <s_lp_Force_Field>  (316) 
OPLS3e

>  <r_lp_Energy>  (316) 
124.98

>  <b_lp_Chiralities_Consistent>  (316) 
1

>  <s_lp_Variant>  (316) 
109:0-1

>  <s_i_glide_gridfile>  (316) 
pfpi4k_grid

>  <i_i_glide_lignum>  (316) 
31

>  <i_i_glide_rotatable_bonds>  (316) 
2

>  <r_i_docking_score>  (316) 
-1.66504

>  <r_i_glide_ligand_efficiency>  (316) 
-0.0489716

>  <r_i_glide_ligand_efficiency_sa>  (316) 
-0.158649

>  <r_i_glide_ligand_efficiency_ln>  (316) 
-0.367853

>  <r_i_glide_gscore>  (316) 
-1.66504

>  <r_i_glide_lipo>  (316) 
-0.162998

>  <r_i_glide_hbond>  (316) 
0

>  <r_i_glide_metal>  (316) 
-0

>  <r_i_glide_rewards>  (316) 
-0.21304

>  <r_i_glide_evdw>  (316) 
-19.6735

>  <r_i_glide_ecoul>  (316) 
-2.03548

>  <r_i_glide_erotb>  (316) 
0

>  <r_i_glide_esite>  (316) 
0

>  <r_i_glide_emodel>  (316) 
-23.3433

>  <r_i_glide_energy>  (316) 
-21.709

>  <r_i_glide_einternal>  (316) 
1.07534

>  <r_i_glide_intrahb_reward>  (316) 
-0

>  <i_i_glide_confnum>  (316) 
2

>  <i_i_glide_posenum>  (316) 
35

>  <r_i_glide_eff_state_penalty>  (316) 
0

>  <ligand_id>  (316) 
109

>  <original_smiles>  (316) 
COC1CCC2(C)C(CCC3(C)C2CC=C2CCC4(C)C(C)=CC(O)C4(C)C2C3(C)C)C1(C)C

>  <smiles>  (316) 
[H]OC1([H])C([H])=C(C([H])([H])[H])C2(C([H])([H])[H])C([H])([H])C([H])([H])C3=C([H])C([H])([H])C4([H])C5(C([H])([H])[H])C([H])([H])C([H])([H])C([H])(OC([H])([H])[H])C(C([H])([H])[H])(C([H])([H])[H])C5([H])C([H])([H])C([H])([H])C4(C([H])([H])[H])C(C([H])([H])[H])(C([H])([H])[H])C3([H])C12C([H])([H])[H]

$$$$
109:0:1
     RDKit          3D

 86 90  0  0  1  0  0  0  0  0999 V2000
    0.3278    0.2352    2.3389 C   0  0  0  0  0  0  0  0  0  0  0  0
    0.3681   -0.8205    3.2944 O   0  0  0  0  0  0  0  0  0  0  0  0
    1.6270   -1.0123    3.9384 C   0  0  2  0  0  0  0  0  0  0  0  0
    2.6135   -1.7453    3.0237 C   0  0  0  0  0  0  0  0  0  0  0  0
    3.9692   -1.7561    3.7221 C   0  0  0  0  0  0  0  0  0  0  0  0
    4.0214   -2.6028    5.0354 C   0  0  1  0  0  0  0  0  0  0  0  0
    5.3910   -2.2055    5.6629 C   0  0  0  0  0  0  0  0  0  0  0  0
    2.8409   -2.1131    5.9543 C   0  0  2  0  0  0  0  0  0  0  0  0
    2.7592   -2.9898    7.2257 C   0  0  0  0  0  0  0  0  0  0  0  0
    2.7372   -4.5143    6.9833 C   0  0  0  0  0  0  0  0  0  0  0  0
    3.8640   -5.1141    6.0844 C   0  0  2  0  0  0  0  0  0  0  0  0
    5.1905   -5.0422    6.9102 C   0  0  0  0  0  0  0  0  0  0  0  0
    3.9164   -4.1745    4.7972 C   0  0  2  0  0  0  0  0  0  0  0  0
    4.8469   -4.7258    3.6945 C   0  0  0  0  0  0  0  0  0  0  0  0
    4.2632   -5.8565    2.8646 C   0  0  0  0  0  0  0  0  0  0  0  0
    3.3001   -6.7561    3.1539 C   0  0  0  0  0  0  0  0  0  0  0  0
    2.9766   -7.7822    2.0481 C   0  0  0  0  0  0  0  0  0  0  0  0
    1.5080   -8.2436    1.9139 C   0  0  0  0  0  0  0  0  0  0  0  0
    0.6524   -7.7671    3.0922 C   0  0  1  0  0  0  0  0  0  0  0  0
    0.1904   -6.3094    2.7948 C   0  0  0  0  0  0  0  0  0  0  0  0
   -0.6384   -8.5117    3.3283 C   0  0  0  0  0  0  0  0  0  0  0  0
   -1.4894   -9.0928    2.2125 C   0  0  0  0  0  0  0  0  0  0  0  0
   -0.9111   -8.5306    4.6278 C   0  0  0  0  0  0  0  0  0  0  0  0
    0.1969   -7.9241    5.4572 C   0  0  1  0  0  0  0  0  0  0  0  0
    0.2970   -8.6493    6.6712 O   0  0  0  0  0  0  0  0  0  0  0  0
    1.4247   -7.9746    4.4669 C   0  0  1  0  0  0  0  0  0  0  0  0
    2.0205   -9.4269    4.5378 C   0  0  0  0  0  0  0  0  0  0  0  0
    2.5531   -6.8538    4.5295 C   0  0  1  0  0  0  0  0  0  0  0  0
    3.5463   -6.6797    5.7710 C   0  0  0  0  0  0  0  0  0  0  0  0
    4.8393   -7.5194    5.5126 C   0  0  0  0  0  0  0  0  0  0  0  0
    2.9857   -7.3348    7.0649 C   0  0  0  0  0  0  0  0  0  0  0  0
    1.4345   -1.7641    5.2889 C   0  0  0  0  0  0  0  0  0  0  0  0
    0.6751   -0.7850    6.2219 C   0  0  0  0  0  0  0  0  0  0  0  0
    0.4976   -2.9835    5.0743 C   0  0  0  0  0  0  0  0  0  0  0  0
   -0.6908    0.3518    1.9654 H   0  0  0  0  0  0  0  0  0  0  0  0
    0.9679    0.0385    1.4789 H   0  0  0  0  0  0  0  0  0  0  0  0
    0.6195    1.1866    2.7852 H   0  0  0  0  0  0  0  0  0  0  0  0
    2.0360   -0.0239    4.1616 H   0  0  0  0  0  0  0  0  0  0  0  0
    2.2720   -2.7495    2.7781 H   0  0  0  0  0  0  0  0  0  0  0  0
    2.7152   -1.2183    2.0762 H   0  0  0  0  0  0  0  0  0  0  0  0
    4.7628   -1.9961    3.0208 H   0  0  0  0  0  0  0  0  0  0  0  0
    4.1854   -0.7145    3.9683 H   0  0  0  0  0  0  0  0  0  0  0  0
    5.4091   -2.2638    6.7446 H   0  0  0  0  0  0  0  0  0  0  0  0
    5.6576   -1.1696    5.4618 H   0  0  0  0  0  0  0  0  0  0  0  0
    6.2040   -2.8172    5.2800 H   0  0  0  0  0  0  0  0  0  0  0  0
    3.1791   -1.1409    6.3171 H   0  0  0  0  0  0  0  0  0  0  0  0
    3.5935   -2.7488    7.8798 H   0  0  0  0  0  0  0  0  0  0  0  0
    1.8891   -2.7244    7.8190 H   0  0  0  0  0  0  0  0  0  0  0  0
    2.7696   -4.9581    7.9785 H   0  0  0  0  0  0  0  0  0  0  0  0
    1.7752   -4.8037    6.5743 H   0  0  0  0  0  0  0  0  0  0  0  0
    6.0764   -5.0587    6.2764 H   0  0  0  0  0  0  0  0  0  0  0  0
    5.3003   -5.8573    7.6216 H   0  0  0  0  0  0  0  0  0  0  0  0
    5.2568   -4.1616    7.5409 H   0  0  0  0  0  0  0  0  0  0  0  0
    2.9464   -4.2253    4.3329 H   0  0  0  0  0  0  0  0  0  0  0  0
    5.0442   -3.9822    2.9344 H   0  0  0  0  0  0  0  0  0  0  0  0
    5.8318   -4.9923    4.0683 H   0  0  0  0  0  0  0  0  0  0  0  0
    4.7320   -5.9266    1.8934 H   0  0  0  0  0  0  0  0  0  0  0  0
    3.2930   -7.3886    1.0820 H   0  0  0  0  0  0  0  0  0  0  0  0
    3.6147   -8.6499    2.2021 H   0  0  0  0  0  0  0  0  0  0  0  0
    1.0856   -7.8741    0.9780 H   0  0  0  0  0  0  0  0  0  0  0  0
    1.4754   -9.3294    1.8188 H   0  0  0  0  0  0  0  0  0  0  0  0
    1.0031   -5.6293    2.5415 H   0  0  0  0  0  0  0  0  0  0  0  0
   -0.3391   -5.8795    3.6449 H   0  0  0  0  0  0  0  0  0  0  0  0
   -0.4941   -6.3008    1.9466 H   0  0  0  0  0  0  0  0  0  0  0  0
   -1.7145   -8.3291    1.4735 H   0  0  0  0  0  0  0  0  0  0  0  0
   -2.4272   -9.4824    2.6089 H   0  0  0  0  0  0  0  0  0  0  0  0
   -0.9660   -9.9061    1.7096 H   0  0  0  0  0  0  0  0  0  0  0  0
   -1.7848   -8.9790    5.0752 H   0  0  0  0  0  0  0  0  0  0  0  0
   -0.0749   -6.8932    5.6935 H   0  0  0  0  0  0  0  0  0  0  0  0
    0.4837   -9.5536    6.4692 H   0  0  0  0  0  0  0  0  0  0  0  0
    2.2582   -9.7543    5.5464 H   0  0  0  0  0  0  0  0  0  0  0  0
    2.9438   -9.5557    3.9807 H   0  0  0  0  0  0  0  0  0  0  0  0
    1.3238  -10.1720    4.1491 H   0  0  0  0  0  0  0  0  0  0  0  0
    1.9297   -5.9704    4.5956 H   0  0  0  0  0  0  0  0  0  0  0  0
    4.5935   -8.5076    5.1333 H   0  0  0  0  0  0  0  0  0  0  0  0
    5.4140   -7.6960    6.4208 H   0  0  0  0  0  0  0  0  0  0  0  0
    5.5305   -7.0755    4.8037 H   0  0  0  0  0  0  0  0  0  0  0  0
    2.9279   -8.4160    6.9911 H   0  0  0  0  0  0  0  0  0  0  0  0
    1.9962   -6.9693    7.3306 H   0  0  0  0  0  0  0  0  0  0  0  0
    3.6211   -7.1581    7.9314 H   0  0  0  0  0  0  0  0  0  0  0  0
    0.4240   -1.2319    7.1825 H   0  0  0  0  0  0  0  0  0  0  0  0
   -0.2601   -0.4533    5.7676 H   0  0  0  0  0  0  0  0  0  0  0  0
    1.2675    0.1117    6.4193 H   0  0  0  0  0  0  0  0  0  0  0  0
    0.2268   -3.4595    6.0138 H   0  0  0  0  0  0  0  0  0  0  0  0
    0.9213   -3.7352    4.4114 H   0  0  0  0  0  0  0  0  0  0  0  0
   -0.4484   -2.6848    4.6207 H   0  0  0  0  0  0  0  0  0  0  0  0
  1  2  1  0
  1 35  1  0
  1 36  1  0
  1 37  1  0
  2  3  1  0
  3 32  1  0
  3  4  1  0
  3 38  1  1
  4  5  1  0
  4 39  1  0
  4 40  1  0
  5  6  1  0
  5 41  1  0
  5 42  1  0
  6 13  1  0
  6  7  1  1
  6  8  1  0
  7 43  1  0
  7 44  1  0
  7 45  1  0
  8  9  1  0
  8 32  1  0
  8 46  1  1
  9 10  1  0
  9 47  1  0
  9 48  1  0
 10 11  1  0
 10 49  1  0
 10 50  1  0
 11 29  1  0
 11 12  1  1
 11 13  1  0
 12 51  1  0
 12 52  1  0
 12 53  1  0
 13 14  1  0
 13 54  1  6
 14 15  1  0
 14 55  1  0
 14 56  1  0
 15 16  2  0
 15 57  1  0
 16 28  1  0
 16 17  1  0
 17 18  1  0
 17 58  1  0
 17 59  1  0
 18 19  1  0
 18 60  1  0
 18 61  1  0
 19 26  1  0
 19 20  1  6
 19 21  1  0
 20 62  1  0
 20 63  1  0
 20 64  1  0
 21 22  1  0
 21 23  2  0
 22 65  1  0
 22 66  1  0
 22 67  1  0
 23 24  1  0
 23 68  1  0
 24 25  1  0
 24 26  1  0
 24 69  1  1
 25 70  1  0
 26 27  1  6
 26 28  1  0
 27 71  1  0
 27 72  1  0
 27 73  1  0
 28 29  1  0
 28 74  1  6
 29 30  1  0
 29 31  1  0
 30 75  1  0
 30 76  1  0
 30 77  1  0
 31 78  1  0
 31 79  1  0
 31 80  1  0
 32 33  1  0
 32 34  1  0
 33 81  1  0
 33 82  1  0
 33 83  1  0
 34 84  1  0
 34 85  1  0
 34 86  1  0
M  END
>  <i_m_ct_stereo_status>  (317) 
1

>  <s_m_source_file>  (317) 
/var/tmp/pbs.5076255.sched01/tmpt85fkz7r/123fjz13bl5.sdf

>  <i_m_source_file_index>  (317) 
31

>  <i_lp_mmshare_version>  (317) 
48012

>  <i_f3d_flags>  (317) 
0

>  <s_epik_input>  (317) 
W0NIM11PW0NASF0oW0NIMl1bQ0gyXTEpQyhbQ0gzXSkoW0NIM10pW0NASF0oW0NAXTEyW0NIM10pW0NIMl1bQ0gyXVtDQF0zKFtDSDNdKVtDQEBIXTJbQ0gyXVtDSF09QzRbQ0BIXShDMyhbQ0gzXSlbQ0gzXSlbQ0BdNShbQ0gzXSlbQ0BAXShbQ0gzXSkoW0NIMl1bQ0gyXTQpQyhbQ0gzXSk9W0NIXVtDQEhdNVtPSF0=

>  <s_epik_cmdline>  (317) 
J2VwaWtfcHl0aG9uJywgJy1waHQnLCAnMi4wJywgJy1waCcsICc3LjAnLCAnLXRuJywgJzgnLCAnLW1hJywgJzIwMCcsICctaW1hZScsICc8aW5maWxlLm1hZT4nLCAnLW9tYWUnLCAnPG91dGZpbGUubWFlPic=

>  <r_lp_tautomer_probability>  (317) 
1

>  <r_epik_Ionization_Penalty>  (317) 
4.03153e-07

>  <r_epik_Ionization_Penalty_Charging>  (317) 
0

>  <r_epik_Ionization_Penalty_Neutral>  (317) 
4.03153e-07

>  <r_epik_State_Penalty>  (317) 
-0

>  <r_epik_Charging_Adjusted_Penalty>  (317) 
0

>  <i_epik_Tot_Q>  (317) 
0

>  <i_epik_Tot_abs_Q>  (317) 
0

>  <s_lp_Force_Field>  (317) 
OPLS3e

>  <r_lp_Energy>  (317) 
124.98

>  <b_lp_Chiralities_Consistent>  (317) 
1

>  <s_lp_Variant>  (317) 
109:0-1

>  <s_i_glide_gridfile>  (317) 
pfpi4k_grid

>  <i_i_glide_lignum>  (317) 
31

>  <i_i_glide_rotatable_bonds>  (317) 
2

>  <r_i_docking_score>  (317) 
-1.51028

>  <r_i_glide_ligand_efficiency>  (317) 
-0.0444201

>  <r_i_glide_ligand_efficiency_sa>  (317) 
-0.143904

>  <r_i_glide_ligand_efficiency_ln>  (317) 
-0.333664

>  <r_i_glide_gscore>  (317) 
-1.51028

>  <r_i_glide_lipo>  (317) 
-0.227603

>  <r_i_glide_hbond>  (317) 
0

>  <r_i_glide_metal>  (317) 
-0

>  <r_i_glide_rewards>  (317) 
-0.21304

>  <r_i_glide_evdw>  (317) 
-19.8696

>  <r_i_glide_ecoul>  (317) 
-0.507728

>  <r_i_glide_erotb>  (317) 
0

>  <r_i_glide_esite>  (317) 
0

>  <r_i_glide_emodel>  (317) 
-22.3983

>  <r_i_glide_energy>  (317) 
-20.3773

>  <r_i_glide_einternal>  (317) 
0.0673457

>  <r_i_glide_intrahb_reward>  (317) 
-0

>  <i_i_glide_confnum>  (317) 
1

>  <i_i_glide_posenum>  (317) 
12

>  <r_i_glide_eff_state_penalty>  (317) 
0

>  <ligand_id>  (317) 
109

>  <original_smiles>  (317) 
COC1CCC2(C)C(CCC3(C)C2CC=C2CCC4(C)C(C)=CC(O)C4(C)C2C3(C)C)C1(C)C

>  <smiles>  (317) 
[H]OC1([H])C([H])=C(C([H])([H])[H])C2(C([H])([H])[H])C([H])([H])C([H])([H])C3=C([H])C([H])([H])C4([H])C5(C([H])([H])[H])C([H])([H])C([H])([H])C([H])(OC([H])([H])[H])C(C([H])([H])[H])(C([H])([H])[H])C5([H])C([H])([H])C([H])([H])C4(C([H])([H])[H])C(C([H])([H])[H])(C([H])([H])[H])C3([H])C12C([H])([H])[H]

$$$$
110:0:0
     RDKit          3D

 80 85  0  0  1  0  0  0  0  0999 V2000
    6.0485   -2.8271   -2.2047 C   0  0  0  0  0  0  0  0  0  0  0  0
    5.9179   -2.4413   -0.8331 O   0  0  0  0  0  0  0  0  0  0  0  0
    4.7147   -2.8516   -0.2473 C   0  0  1  0  0  0  0  0  0  0  0  0
    3.5083   -2.1333   -0.8827 C   0  0  0  0  0  0  0  0  0  0  0  0
    4.5495   -4.2137   -0.3465 O   0  0  0  0  0  0  0  0  0  0  0  0
    5.3651   -4.8243    0.6492 C   0  0  1  0  0  0  0  0  0  0  0  0
    5.5667   -3.8140    1.7579 C   0  0  2  0  0  0  0  0  0  0  0  0
    5.0759   -4.4900    3.0390 C   0  0  0  0  0  0  0  0  0  0  0  0
    5.1599   -6.0212    2.8121 C   0  0  1  0  0  0  0  0  0  0  0  0
    6.6186   -6.4994    3.0167 C   0  0  0  0  0  0  0  0  0  0  0  0
    4.2275   -6.8363    3.7698 C   0  0  0  0  0  0  0  0  0  0  0  0
    3.6768   -8.0227    3.4238 C   0  0  0  0  0  0  0  0  0  0  0  0
    4.0965   -8.9217    2.2628 C   0  0  0  0  0  0  0  0  0  0  0  0
    3.9987  -10.3233    2.8390 C   0  0  0  0  0  0  0  0  0  0  0  0
    2.8710  -10.2382    3.8389 C   0  0  2  0  0  0  0  0  0  0  0  0
    1.5837  -10.2298    3.2142 O   0  0  0  0  0  0  0  0  0  0  0  0
    1.2864   -8.9396    3.7478 C   0  0  1  0  0  0  0  0  0  0  0  0
    0.7266   -8.0601    2.5861 C   0  0  0  0  0  0  0  0  0  0  0  0
    0.7505   -6.5370    2.8800 C   0  0  0  0  0  0  0  0  0  0  0  0
   -0.6830   -8.4465    2.1059 C   0  0  0  0  0  0  0  0  0  0  0  0
    0.1803   -9.1309    4.8150 C   0  0  0  0  0  0  0  0  0  0  0  0
    0.6902   -9.5150    6.1884 C   0  0  0  0  0  0  0  0  0  0  0  0
    1.9313   -9.2105    6.6378 C   0  0  0  0  0  0  0  0  0  0  0  0
    2.4331   -9.6324    8.0014 C   0  0  0  0  0  0  0  0  0  0  0  0
    2.9252   -8.4641    5.7712 C   0  0  2  0  0  0  0  0  0  0  0  0
    2.8025   -6.9545    5.9385 C   0  0  0  0  0  0  0  0  0  0  0  0
    3.9103   -6.2182    5.1564 C   0  0  1  0  0  0  0  0  0  0  0  0
    5.1571   -6.1374    6.0679 C   0  0  0  0  0  0  0  0  0  0  0  0
    2.7269   -8.8027    4.3124 C   0  0  2  0  0  0  0  0  0  0  0  0
    4.7535   -6.0652    1.2861 C   0  0  1  0  0  0  0  0  0  0  0  0
    3.3377   -5.9653    1.1078 O   0  0  0  0  0  0  0  0  0  0  0  0
    4.7606   -2.6212    1.2776 C   0  0  1  0  0  0  0  0  0  0  0  0
    5.3824   -1.3838    1.6514 O   0  0  0  0  0  0  0  0  0  0  0  0
    5.1063   -0.7701    2.8220 C   0  0  0  0  0  0  0  0  0  0  0  0
    3.8861   -1.2396    3.6142 C   0  0  0  0  0  0  0  0  0  0  0  0
    5.8025    0.1331    3.2704 O   0  0  0  0  0  0  0  0  0  0  0  0
    7.0758   -2.6552   -2.5205 H   0  0  0  0  0  0  0  0  0  0  0  0
    5.3883   -2.2403   -2.8377 H   0  0  0  0  0  0  0  0  0  0  0  0
    5.8277   -3.8929   -2.3720 H   0  0  0  0  0  0  0  0  0  0  0  0
    3.3246   -2.4817   -1.8974 H   0  0  0  0  0  0  0  0  0  0  0  0
    3.6688   -1.0541   -0.8833 H   0  0  0  0  0  0  0  0  0  0  0  0
    2.6213   -2.3472   -0.3007 H   0  0  0  0  0  0  0  0  0  0  0  0
    6.3335   -5.0674    0.2141 H   0  0  0  0  0  0  0  0  0  0  0  0
    6.6366   -3.5765    1.8313 H   0  0  0  0  0  0  0  0  0  0  0  0
    5.6303   -4.1330    3.9123 H   0  0  0  0  0  0  0  0  0  0  0  0
    4.0207   -4.2461    3.1791 H   0  0  0  0  0  0  0  0  0  0  0  0
    7.3194   -5.9286    2.4261 H   0  0  0  0  0  0  0  0  0  0  0  0
    6.7349   -7.5465    2.7506 H   0  0  0  0  0  0  0  0  0  0  0  0
    6.9501   -6.4177    4.0520 H   0  0  0  0  0  0  0  0  0  0  0  0
    3.3856   -8.8208    1.4302 H   0  0  0  0  0  0  0  0  0  0  0  0
    5.1094   -8.7675    1.8936 H   0  0  0  0  0  0  0  0  0  0  0  0
    3.8762  -11.1018    2.1099 H   0  0  0  0  0  0  0  0  0  0  0  0
    4.9547  -10.4990    3.3560 H   0  0  0  0  0  0  0  0  0  0  0  0
    2.9455  -10.9597    4.6640 H   0  0  0  0  0  0  0  0  0  0  0  0
    1.3646   -8.2133    1.7242 H   0  0  0  0  0  0  0  0  0  0  0  0
    0.0780   -6.2652    3.6838 H   0  0  0  0  0  0  0  0  0  0  0  0
    0.4633   -5.9856    1.9775 H   0  0  0  0  0  0  0  0  0  0  0  0
    1.7405   -6.1858    3.1515 H   0  0  0  0  0  0  0  0  0  0  0  0
   -1.4527   -8.2184    2.8411 H   0  0  0  0  0  0  0  0  0  0  0  0
   -0.7479   -9.5113    1.8746 H   0  0  0  0  0  0  0  0  0  0  0  0
   -0.9420   -7.8954    1.1925 H   0  0  0  0  0  0  0  0  0  0  0  0
   -0.3759   -8.1955    4.9746 H   0  0  0  0  0  0  0  0  0  0  0  0
   -0.5491   -9.8620    4.4879 H   0  0  0  0  0  0  0  0  0  0  0  0
   -0.0021  -10.0577    6.8260 H   0  0  0  0  0  0  0  0  0  0  0  0
    2.7743   -8.7715    8.5867 H   0  0  0  0  0  0  0  0  0  0  0  0
    3.2688  -10.3262    7.8776 H   0  0  0  0  0  0  0  0  0  0  0  0
    1.6497  -10.1601    8.5664 H   0  0  0  0  0  0  0  0  0  0  0  0
    3.9158   -8.7906    6.0736 H   0  0  0  0  0  0  0  0  0  0  0  0
    1.8288   -6.6489    5.5620 H   0  0  0  0  0  0  0  0  0  0  0  0
    2.7900   -6.6764    6.9987 H   0  0  0  0  0  0  0  0  0  0  0  0
    3.5274   -5.2096    5.0464 H   0  0  0  0  0  0  0  0  0  0  0  0
    5.8685   -5.3996    5.7122 H   0  0  0  0  0  0  0  0  0  0  0  0
    5.6660   -7.1088    6.1152 H   0  0  0  0  0  0  0  0  0  0  0  0
    4.9007   -5.8472    7.0859 H   0  0  0  0  0  0  0  0  0  0  0  0
    5.1472   -6.8994    0.7158 H   0  0  0  0  0  0  0  0  0  0  0  0
    3.0268   -5.2147    1.5684 H   0  0  0  0  0  0  0  0  0  0  0  0
    3.7234   -2.7294    1.5846 H   0  0  0  0  0  0  0  0  0  0  0  0
    4.0416   -2.2536    3.9395 H   0  0  0  0  0  0  0  0  0  0  0  0
    2.9912   -1.1733    2.9967 H   0  0  0  0  0  0  0  0  0  0  0  0
    3.7419   -0.6419    4.5022 H   0  0  0  0  0  0  0  0  0  0  0  0
  1  2  1  0
  1 37  1  0
  1 38  1  0
  1 39  1  0
  3  2  1  6
  3 32  1  0
  3  4  1  0
  3  5  1  0
  4 40  1  0
  4 41  1  0
  4 42  1  0
  5  6  1  0
  6 30  1  0
  6  7  1  0
  6 43  1  6
  7  8  1  0
  7 32  1  0
  7 44  1  1
  8  9  1  0
  8 45  1  0
  8 46  1  0
  9 10  1  6
  9 11  1  0
  9 30  1  0
 10 47  1  0
 10 48  1  0
 10 49  1  0
 11 27  1  0
 11 12  2  0
 29 12  1  6
 12 13  1  0
 13 14  1  0
 13 50  1  0
 13 51  1  0
 14 15  1  0
 14 52  1  0
 14 53  1  0
 15 29  1  0
 15 16  1  0
 15 54  1  1
 16 17  1  0
 17 29  1  0
 17 18  1  6
 17 21  1  0
 18 19  1  0
 18 20  1  0
 18 55  1  0
 19 56  1  0
 19 57  1  0
 19 58  1  0
 20 59  1  0
 20 60  1  0
 20 61  1  0
 21 22  1  0
 21 62  1  0
 21 63  1  0
 22 23  2  0
 22 64  1  0
 23 24  1  0
 23 25  1  0
 24 65  1  0
 24 66  1  0
 24 67  1  0
 25 26  1  0
 25 29  1  0
 25 68  1  1
 26 27  1  0
 26 69  1  0
 26 70  1  0
 27 28  1  0
 27 71  1  6
 28 72  1  0
 28 73  1  0
 28 74  1  0
 30 31  1  0
 30 75  1  6
 31 76  1  0
 32 33  1  0
 32 77  1  1
 33 34  1  0
 34 35  1  0
 34 36  2  0
 35 78  1  0
 35 79  1  0
 35 80  1  0
M  END
>  <i_m_ct_stereo_status>  (318) 
1

>  <s_m_source_file>  (318) 
/var/tmp/pbs.5076255.sched01/tmpt85fkz7r/123fjz13bl5.sdf

>  <i_m_source_file_index>  (318) 
32

>  <i_lp_mmshare_version>  (318) 
48012

>  <i_f3d_flags>  (318) 
0

>  <s_epik_input>  (318) 
W0NIM11PW0NAXShPMSkoW0NIM10pW0NASF0oT0MoPU8pW0NIM10pW0NASF0oW0NASF0xMilbQ0gyXVtDQF0oW0NIM10pKFtDQEhdMltPSF0pQyg9QzNbQ0BdNDU2KVtDQEhdKFtDSDNdKVtDSDJdW0NASF02QyhbQ0gzXSk9W0NIXVtDSDJdW0NAXTUoW0NIXShbQ0gzXSlbQ0gzXSlPW0NASF00W0NIMl1bQ0gyXTM=

>  <s_epik_cmdline>  (318) 
J2VwaWtfcHl0aG9uJywgJy1waHQnLCAnMi4wJywgJy1waCcsICc3LjAnLCAnLXRuJywgJzgnLCAnLW1hJywgJzIwMCcsICctaW1hZScsICc8aW5maWxlLm1hZT4nLCAnLW9tYWUnLCAnPG91dGZpbGUubWFlPic=

>  <r_lp_tautomer_probability>  (318) 
1

>  <r_epik_Ionization_Penalty>  (318) 
4.54273e-08

>  <r_epik_Ionization_Penalty_Charging>  (318) 
0

>  <r_epik_Ionization_Penalty_Neutral>  (318) 
4.54273e-08

>  <r_epik_State_Penalty>  (318) 
-0

>  <r_epik_Charging_Adjusted_Penalty>  (318) 
0

>  <i_epik_Tot_Q>  (318) 
0

>  <i_epik_Tot_abs_Q>  (318) 
0

>  <s_epik_Chemistry_Notes>  (318) 
This compound has an ester and may undergo hydrolysis at high or low pH.

>  <s_lp_Force_Field>  (318) 
OPLS3e

>  <r_lp_Energy>  (318) 
43.3956

>  <b_lp_Chiralities_Consistent>  (318) 
1

>  <s_lp_Variant>  (318) 
110:0-1

>  <s_i_glide_gridfile>  (318) 
pfpi4k_grid

>  <i_i_glide_lignum>  (318) 
32

>  <i_i_glide_rotatable_bonds>  (318) 
6

>  <r_i_docking_score>  (318) 
-1.88547

>  <r_i_glide_ligand_efficiency>  (318) 
-0.0523742

>  <r_i_glide_ligand_efficiency_sa>  (318) 
-0.172936

>  <r_i_glide_ligand_efficiency_ln>  (318) 
-0.411359

>  <r_i_glide_gscore>  (318) 
-1.88547

>  <r_i_glide_lipo>  (318) 
-0.318462

>  <r_i_glide_hbond>  (318) 
-0.128329

>  <r_i_glide_metal>  (318) 
-0

>  <r_i_glide_rewards>  (318) 
-0.17971

>  <r_i_glide_evdw>  (318) 
-26.5027

>  <r_i_glide_ecoul>  (318) 
-0.645139

>  <r_i_glide_erotb>  (318) 
0.162935

>  <r_i_glide_esite>  (318) 
0

>  <r_i_glide_emodel>  (318) 
-25.7241

>  <r_i_glide_energy>  (318) 
-27.1478

>  <r_i_glide_einternal>  (318) 
6.2768

>  <r_i_glide_intrahb_reward>  (318) 
-0

>  <i_i_glide_confnum>  (318) 
5

>  <i_i_glide_posenum>  (318) 
25

>  <r_i_glide_eff_state_penalty>  (318) 
0

>  <ligand_id>  (318) 
110

>  <original_smiles>  (318) 
COC1(C)OC2C(CC(C)(C3=C4CCC5OC6(C(C)C)CC=C(C)C(CC3C)C456)C2O)C1OC(C)=O

>  <smiles>  (318) 
[H]OC1([H])C2([H])OC(OC([H])([H])[H])(C([H])([H])[H])C([H])(OC(=O)C([H])([H])[H])C2([H])C([H])([H])C1(C1=C2C([H])([H])C([H])([H])C3([H])OC4(C([H])(C([H])([H])[H])C([H])([H])[H])C([H])([H])C([H])=C(C([H])([H])[H])C([H])(C([H])([H])C1([H])C([H])([H])[H])C234)C([H])([H])[H]

$$$$
110:0:1
     RDKit          3D

 80 85  0  0  1  0  0  0  0  0999 V2000
    6.6714   -2.4356   -1.8030 C   0  0  0  0  0  0  0  0  0  0  0  0
    6.3283   -3.6599   -1.1769 O   0  0  0  0  0  0  0  0  0  0  0  0
    5.0580   -3.8956   -0.5870 C   0  0  1  0  0  0  0  0  0  0  0  0
    3.9114   -3.4090   -1.4845 C   0  0  0  0  0  0  0  0  0  0  0  0
    4.9263   -5.2701   -0.4298 O   0  0  0  0  0  0  0  0  0  0  0  0
    5.6075   -5.6818    0.7503 C   0  0  1  0  0  0  0  0  0  0  0  0
    5.7635   -4.4709    1.6625 C   0  0  2  0  0  0  0  0  0  0  0  0
    5.1435   -4.8705    3.0054 C   0  0  0  0  0  0  0  0  0  0  0  0
    5.1701   -6.4293    3.0519 C   0  0  1  0  0  0  0  0  0  0  0  0
    6.5714   -6.9314    3.4489 C   0  0  0  0  0  0  0  0  0  0  0  0
    4.1323   -7.0225    4.0471 C   0  0  0  0  0  0  0  0  0  0  0  0
    3.5005   -8.2133    3.8289 C   0  0  0  0  0  0  0  0  0  0  0  0
    3.8464   -9.3003    2.8159 C   0  0  0  0  0  0  0  0  0  0  0  0
    3.5729  -10.6105    3.5421 C   0  0  0  0  0  0  0  0  0  0  0  0
    2.4423  -10.2849    4.5152 C   0  0  2  0  0  0  0  0  0  0  0  0
    1.1514  -10.2347    3.8197 O   0  0  0  0  0  0  0  0  0  0  0  0
    0.9755   -8.8291    4.1882 C   0  0  1  0  0  0  0  0  0  0  0  0
    0.5603   -8.0672    2.8860 C   0  0  0  0  0  0  0  0  0  0  0  0
    0.5898   -6.5267    3.0370 C   0  0  0  0  0  0  0  0  0  0  0  0
   -0.7936   -8.5133    2.3095 C   0  0  0  0  0  0  0  0  0  0  0  0
   -0.1641   -8.7724    5.2303 C   0  0  0  0  0  0  0  0  0  0  0  0
    0.2645   -9.0420    6.6567 C   0  0  0  0  0  0  0  0  0  0  0  0
    1.5213   -8.8160    7.1167 C   0  0  0  0  0  0  0  0  0  0  0  0
    1.9335   -9.0925    8.5453 C   0  0  0  0  0  0  0  0  0  0  0  0
    2.6016   -8.2781    6.1966 C   0  0  2  0  0  0  0  0  0  0  0  0
    2.6206   -6.7522    6.1667 C   0  0  0  0  0  0  0  0  0  0  0  0
    3.8222   -6.2193    5.3461 C   0  0  1  0  0  0  0  0  0  0  0  0
    5.0347   -6.1234    6.2976 C   0  0  0  0  0  0  0  0  0  0  0  0
    2.4096   -8.7856    4.7480 C   0  0  2  0  0  0  0  0  0  0  0  0
    4.8850   -6.7630    1.5506 C   0  0  1  0  0  0  0  0  0  0  0  0
    3.4982   -6.6501    1.2777 O   0  0  0  0  0  0  0  0  0  0  0  0
    4.9804   -3.4045    0.8976 C   0  0  1  0  0  0  0  0  0  0  0  0
    5.5588   -2.1340    1.1209 O   0  0  0  0  0  0  0  0  0  0  0  0
    4.8607   -0.9698    1.1136 C   0  0  0  0  0  0  0  0  0  0  0  0
    3.3489   -1.0853    0.8858 C   0  0  0  0  0  0  0  0  0  0  0  0
    5.4204    0.1195    1.2193 O   0  0  0  0  0  0  0  0  0  0  0  0
    7.6748   -2.5741   -2.2542 H   0  0  0  0  0  0  0  0  0  0  0  0
    6.7608   -1.6593   -1.0444 H   0  0  0  0  0  0  0  0  0  0  0  0
    5.9112   -2.1722   -2.5404 H   0  0  0  0  0  0  0  0  0  0  0  0
    3.9160   -3.9698   -2.4167 H   0  0  0  0  0  0  0  0  0  0  0  0
    3.9927   -2.3395   -1.7266 H   0  0  0  0  0  0  0  0  0  0  0  0
    2.9599   -3.6396   -0.9905 H   0  0  0  0  0  0  0  0  0  0  0  0
    6.5850   -6.0343    0.4563 H   0  0  0  0  0  0  0  0  0  0  0  0
    6.8416   -4.2614    1.7735 H   0  0  0  0  0  0  0  0  0  0  0  0
    5.6470   -4.4061    3.8509 H   0  0  0  0  0  0  0  0  0  0  0  0
    4.1097   -4.5278    3.0391 H   0  0  0  0  0  0  0  0  0  0  0  0
    7.3344   -6.5240    2.7922 H   0  0  0  0  0  0  0  0  0  0  0  0
    6.6451   -8.0180    3.3664 H   0  0  0  0  0  0  0  0  0  0  0  0
    6.8675   -6.6716    4.4592 H   0  0  0  0  0  0  0  0  0  0  0  0
    3.1695   -9.2676    1.9573 H   0  0  0  0  0  0  0  0  0  0  0  0
    4.8846   -9.2335    2.4780 H   0  0  0  0  0  0  0  0  0  0  0  0
    3.3803  -11.4577    2.8823 H   0  0  0  0  0  0  0  0  0  0  0  0
    4.4694  -10.8355    4.1311 H   0  0  0  0  0  0  0  0  0  0  0  0
    2.3881  -10.8992    5.4210 H   0  0  0  0  0  0  0  0  0  0  0  0
    1.2764   -8.3071    2.1167 H   0  0  0  0  0  0  0  0  0  0  0  0
   -0.1536   -6.1737    3.7489 H   0  0  0  0  0  0  0  0  0  0  0  0
    0.3799   -6.0699    2.0698 H   0  0  0  0  0  0  0  0  0  0  0  0
    1.5691   -6.1688    3.3546 H   0  0  0  0  0  0  0  0  0  0  0  0
   -1.6338   -8.2454    2.9487 H   0  0  0  0  0  0  0  0  0  0  0  0
   -0.8176   -9.5961    2.1549 H   0  0  0  0  0  0  0  0  0  0  0  0
   -0.9563   -8.0525    1.3390 H   0  0  0  0  0  0  0  0  0  0  0  0
   -0.6184   -7.7744    5.2427 H   0  0  0  0  0  0  0  0  0  0  0  0
   -0.9705   -9.4258    4.9527 H   0  0  0  0  0  0  0  0  0  0  0  0
   -0.4978   -9.4295    7.3168 H   0  0  0  0  0  0  0  0  0  0  0  0
    2.3423   -8.1949    9.0188 H   0  0  0  0  0  0  0  0  0  0  0  0
    2.7014   -9.8679    8.5310 H   0  0  0  0  0  0  0  0  0  0  0  0
    1.0838   -9.4632    9.1284 H   0  0  0  0  0  0  0  0  0  0  0  0
    3.5491   -8.6403    6.5865 H   0  0  0  0  0  0  0  0  0  0  0  0
    1.6925   -6.3950    5.7188 H   0  0  0  0  0  0  0  0  0  0  0  0
    2.6121   -6.3248    7.1850 H   0  0  0  0  0  0  0  0  0  0  0  0
    3.5519   -5.2036    5.0697 H   0  0  0  0  0  0  0  0  0  0  0  0
    5.8088   -5.4762    5.8881 H   0  0  0  0  0  0  0  0  0  0  0  0
    5.4653   -7.1104    6.4740 H   0  0  0  0  0  0  0  0  0  0  0  0
    4.7544   -5.7137    7.2771 H   0  0  0  0  0  0  0  0  0  0  0  0
    5.2447   -7.7392    1.2219 H   0  0  0  0  0  0  0  0  0  0  0  0
    3.0433   -7.3400    1.7533 H   0  0  0  0  0  0  0  0  0  0  0  0
    3.9343   -3.4406    1.2168 H   0  0  0  0  0  0  0  0  0  0  0  0
    2.8897   -1.6820    1.6875 H   0  0  0  0  0  0  0  0  0  0  0  0
    3.1212   -1.5218   -0.0914 H   0  0  0  0  0  0  0  0  0  0  0  0
    2.9139   -0.0792    0.9456 H   0  0  0  0  0  0  0  0  0  0  0  0
  1  2  1  0
  1 37  1  0
  1 38  1  0
  1 39  1  0
  3  2  1  6
  3 32  1  0
  3  4  1  0
  3  5  1  0
  4 40  1  0
  4 41  1  0
  4 42  1  0
  5  6  1  0
  6 30  1  0
  6  7  1  0
  6 43  1  6
  7  8  1  0
  7 32  1  0
  7 44  1  1
  8  9  1  0
  8 45  1  0
  8 46  1  0
  9 10  1  1
  9 11  1  0
  9 30  1  0
 10 47  1  0
 10 48  1  0
 10 49  1  0
 11 27  1  0
 11 12  2  0
 29 12  1  6
 12 13  1  0
 13 14  1  0
 13 50  1  0
 13 51  1  0
 14 15  1  0
 14 52  1  0
 14 53  1  0
 15 29  1  0
 15 16  1  0
 15 54  1  1
 16 17  1  0
 17 29  1  0
 17 18  1  6
 17 21  1  0
 18 19  1  0
 18 20  1  0
 18 55  1  0
 19 56  1  0
 19 57  1  0
 19 58  1  0
 20 59  1  0
 20 60  1  0
 20 61  1  0
 21 22  1  0
 21 62  1  0
 21 63  1  0
 22 23  2  0
 22 64  1  0
 23 24  1  0
 23 25  1  0
 24 65  1  0
 24 66  1  0
 24 67  1  0
 25 26  1  0
 25 29  1  0
 25 68  1  1
 26 27  1  0
 26 69  1  0
 26 70  1  0
 27 28  1  0
 27 71  1  6
 28 72  1  0
 28 73  1  0
 28 74  1  0
 30 31  1  0
 30 75  1  6
 31 76  1  0
 32 33  1  0
 32 77  1  1
 33 34  1  0
 34 35  1  0
 34 36  2  0
 35 78  1  0
 35 79  1  0
 35 80  1  0
M  END
>  <i_m_ct_stereo_status>  (319) 
1

>  <s_m_source_file>  (319) 
/var/tmp/pbs.5076255.sched01/tmpt85fkz7r/123fjz13bl5.sdf

>  <i_m_source_file_index>  (319) 
32

>  <i_lp_mmshare_version>  (319) 
48012

>  <i_f3d_flags>  (319) 
0

>  <s_epik_input>  (319) 
W0NIM11PW0NAXShPMSkoW0NIM10pW0NASF0oT0MoPU8pW0NIM10pW0NASF0oW0NASF0xMilbQ0gyXVtDQF0oW0NIM10pKFtDQEhdMltPSF0pQyg9QzNbQ0BdNDU2KVtDQEhdKFtDSDNdKVtDSDJdW0NASF02QyhbQ0gzXSk9W0NIXVtDSDJdW0NAXTUoW0NIXShbQ0gzXSlbQ0gzXSlPW0NASF00W0NIMl1bQ0gyXTM=

>  <s_epik_cmdline>  (319) 
J2VwaWtfcHl0aG9uJywgJy1waHQnLCAnMi4wJywgJy1waCcsICc3LjAnLCAnLXRuJywgJzgnLCAnLW1hJywgJzIwMCcsICctaW1hZScsICc8aW5maWxlLm1hZT4nLCAnLW9tYWUnLCAnPG91dGZpbGUubWFlPic=

>  <r_lp_tautomer_probability>  (319) 
1

>  <r_epik_Ionization_Penalty>  (319) 
4.54273e-08

>  <r_epik_Ionization_Penalty_Charging>  (319) 
0

>  <r_epik_Ionization_Penalty_Neutral>  (319) 
4.54273e-08

>  <r_epik_State_Penalty>  (319) 
-0

>  <r_epik_Charging_Adjusted_Penalty>  (319) 
0

>  <i_epik_Tot_Q>  (319) 
0

>  <i_epik_Tot_abs_Q>  (319) 
0

>  <s_epik_Chemistry_Notes>  (319) 
This compound has an ester and may undergo hydrolysis at high or low pH.

>  <s_lp_Force_Field>  (319) 
OPLS3e

>  <r_lp_Energy>  (319) 
43.3956

>  <b_lp_Chiralities_Consistent>  (319) 
1

>  <s_lp_Variant>  (319) 
110:0-1

>  <s_i_glide_gridfile>  (319) 
pfpi4k_grid

>  <i_i_glide_lignum>  (319) 
32

>  <i_i_glide_rotatable_bonds>  (319) 
6

>  <r_i_docking_score>  (319) 
-1.81558

>  <r_i_glide_ligand_efficiency>  (319) 
-0.0504327

>  <r_i_glide_ligand_efficiency_sa>  (319) 
-0.166525

>  <r_i_glide_ligand_efficiency_ln>  (319) 
-0.39611

>  <r_i_glide_gscore>  (319) 
-1.81558

>  <r_i_glide_lipo>  (319) 
-0.259716

>  <r_i_glide_hbond>  (319) 
-0.234788

>  <r_i_glide_metal>  (319) 
-0

>  <r_i_glide_rewards>  (319) 
-0.211134

>  <r_i_glide_evdw>  (319) 
-26.1565

>  <r_i_glide_ecoul>  (319) 
0.233

>  <r_i_glide_erotb>  (319) 
0.162935

>  <r_i_glide_esite>  (319) 
0

>  <r_i_glide_emodel>  (319) 
-21.5844

>  <r_i_glide_energy>  (319) 
-25.9235

>  <r_i_glide_einternal>  (319) 
12.2196

>  <r_i_glide_intrahb_reward>  (319) 
-0

>  <i_i_glide_confnum>  (319) 
3

>  <i_i_glide_posenum>  (319) 
36

>  <r_i_glide_eff_state_penalty>  (319) 
0

>  <ligand_id>  (319) 
110

>  <original_smiles>  (319) 
COC1(C)OC2C(CC(C)(C3=C4CCC5OC6(C(C)C)CC=C(C)C(CC3C)C456)C2O)C1OC(C)=O

>  <smiles>  (319) 
[H]OC1([H])C2([H])OC(OC([H])([H])[H])(C([H])([H])[H])C([H])(OC(=O)C([H])([H])[H])C2([H])C([H])([H])C1(C1=C2C([H])([H])C([H])([H])C3([H])OC4(C([H])(C([H])([H])[H])C([H])([H])[H])C([H])([H])C([H])=C(C([H])([H])[H])C([H])(C([H])([H])C1([H])C([H])([H])[H])C234)C([H])([H])[H]

$$$$
110:0:2
     RDKit          3D

 80 85  0  0  1  0  0  0  0  0999 V2000
    6.8571   -2.4236   -1.8343 C   0  0  0  0  0  0  0  0  0  0  0  0
    6.5154   -3.6409   -1.1994 O   0  0  0  0  0  0  0  0  0  0  0  0
    5.2242   -3.8855   -0.6939 C   0  0  1  0  0  0  0  0  0  0  0  0
    4.1270   -3.4313   -1.6787 C   0  0  0  0  0  0  0  0  0  0  0  0
    5.0839   -5.2609   -0.5562 O   0  0  0  0  0  0  0  0  0  0  0  0
    5.7224   -5.6730    0.6519 C   0  0  1  0  0  0  0  0  0  0  0  0
    5.8084   -4.4685    1.5788 C   0  0  2  0  0  0  0  0  0  0  0  0
    5.1227   -4.8976    2.8910 C   0  0  0  0  0  0  0  0  0  0  0  0
    5.1674   -6.4536    2.9236 C   0  0  1  0  0  0  0  0  0  0  0  0
    6.5642   -6.9443    3.3817 C   0  0  0  0  0  0  0  0  0  0  0  0
    4.0979   -7.0757    3.8576 C   0  0  0  0  0  0  0  0  0  0  0  0
    3.4388   -8.2524    3.5596 C   0  0  0  0  0  0  0  0  0  0  0  0
    3.8196   -9.2840    2.5082 C   0  0  0  0  0  0  0  0  0  0  0  0
    3.4858  -10.6289    3.1782 C   0  0  0  0  0  0  0  0  0  0  0  0
    2.3197  -10.3261    4.1085 C   0  0  2  0  0  0  0  0  0  0  0  0
    1.0648  -10.2144    3.3882 O   0  0  0  0  0  0  0  0  0  0  0  0
    0.9044   -8.8236    3.7901 C   0  0  1  0  0  0  0  0  0  0  0  0
    0.5441   -8.0026    2.5202 C   0  0  0  0  0  0  0  0  0  0  0  0
    0.6837   -6.4801    2.7030 C   0  0  0  0  0  0  0  0  0  0  0  0
   -0.8503   -8.3265    1.9346 C   0  0  0  0  0  0  0  0  0  0  0  0
   -0.2671   -8.7835    4.7879 C   0  0  0  0  0  0  0  0  0  0  0  0
    0.1065   -9.1242    6.2232 C   0  0  0  0  0  0  0  0  0  0  0  0
    1.3305   -8.9399    6.7419 C   0  0  0  0  0  0  0  0  0  0  0  0
    1.6858   -9.2882    8.1721 C   0  0  0  0  0  0  0  0  0  0  0  0
    2.4592   -8.3894    5.8806 C   0  0  2  0  0  0  0  0  0  0  0  0
    2.4969   -6.8587    5.9217 C   0  0  0  0  0  0  0  0  0  0  0  0
    3.7383   -6.3203    5.1677 C   0  0  1  0  0  0  0  0  0  0  0  0
    4.9074   -6.2728    6.1745 C   0  0  0  0  0  0  0  0  0  0  0  0
    2.3267   -8.8323    4.4291 C   0  0  2  0  0  0  0  0  0  0  0  0
    4.9584   -6.7634    1.4028 C   0  0  1  0  0  0  0  0  0  0  0  0
    3.5928   -6.5998    0.9921 O   0  0  0  0  0  0  0  0  0  0  0  0
    5.0547   -3.3999    0.7807 C   0  0  1  0  0  0  0  0  0  0  0  0
    5.5891   -2.1093    1.0243 O   0  0  0  0  0  0  0  0  0  0  0  0
    4.8868   -0.9595    0.9073 C   0  0  0  0  0  0  0  0  0  0  0  0
    3.3795   -1.1329    0.6189 C   0  0  0  0  0  0  0  0  0  0  0  0
    5.4106    0.1231    0.9774 O   0  0  0  0  0  0  0  0  0  0  0  0
    7.8803   -2.5282   -2.2370 H   0  0  0  0  0  0  0  0  0  0  0  0
    6.8958   -1.6254   -1.0990 H   0  0  0  0  0  0  0  0  0  0  0  0
    6.0921   -2.2039   -2.5800 H   0  0  0  0  0  0  0  0  0  0  0  0
    4.2121   -3.9904   -2.5999 H   0  0  0  0  0  0  0  0  0  0  0  0
    4.2429   -2.3644   -1.9217 H   0  0  0  0  0  0  0  0  0  0  0  0
    3.1434   -3.6350   -1.2272 H   0  0  0  0  0  0  0  0  0  0  0  0
    6.7232   -6.0054    0.4098 H   0  0  0  0  0  0  0  0  0  0  0  0
    6.8689   -4.2413    1.7555 H   0  0  0  0  0  0  0  0  0  0  0  0
    5.5697   -4.4327    3.7694 H   0  0  0  0  0  0  0  0  0  0  0  0
    4.0795   -4.5696    2.8733 H   0  0  0  0  0  0  0  0  0  0  0  0
    7.3475   -6.5286    2.7549 H   0  0  0  0  0  0  0  0  0  0  0  0
    6.6438   -8.0280    3.2787 H   0  0  0  0  0  0  0  0  0  0  0  0
    6.8004   -6.6855    4.4129 H   0  0  0  0  0  0  0  0  0  0  0  0
    3.1565   -9.2031    1.6390 H   0  0  0  0  0  0  0  0  0  0  0  0
    4.8631   -9.2109    2.2117 H   0  0  0  0  0  0  0  0  0  0  0  0
    3.2989  -11.4575    2.4837 H   0  0  0  0  0  0  0  0  0  0  0  0
    4.3472  -10.8948    3.7818 H   0  0  0  0  0  0  0  0  0  0  0  0
    2.2260  -10.9709    4.9947 H   0  0  0  0  0  0  0  0  0  0  0  0
    1.2431   -8.2794    1.7394 H   0  0  0  0  0  0  0  0  0  0  0  0
   -0.0275   -6.0908    3.4370 H   0  0  0  0  0  0  0  0  0  0  0  0
    0.5068   -5.9812    1.7485 H   0  0  0  0  0  0  0  0  0  0  0  0
    1.6877   -6.1934    3.0221 H   0  0  0  0  0  0  0  0  0  0  0  0
   -1.6643   -7.9915    2.5754 H   0  0  0  0  0  0  0  0  0  0  0  0
   -0.9705   -9.3980    1.7664 H   0  0  0  0  0  0  0  0  0  0  0  0
   -0.9892   -7.8383    0.9705 H   0  0  0  0  0  0  0  0  0  0  0  0
   -0.7110   -7.7922    4.8234 H   0  0  0  0  0  0  0  0  0  0  0  0
   -1.0479   -9.4461    4.4359 H   0  0  0  0  0  0  0  0  0  0  0  0
   -0.7012   -9.5285    6.8322 H   0  0  0  0  0  0  0  0  0  0  0  0
    2.0899   -8.4200    8.7015 H   0  0  0  0  0  0  0  0  0  0  0  0
    2.4407  -10.0761    8.1534 H   0  0  0  0  0  0  0  0  0  0  0  0
    0.8090   -9.6706    8.7042 H   0  0  0  0  0  0  0  0  0  0  0  0
    3.3877   -8.7843    6.2976 H   0  0  0  0  0  0  0  0  0  0  0  0
    1.5928   -6.4735    5.4493 H   0  0  0  0  0  0  0  0  0  0  0  0
    2.4538   -6.4787    6.9484 H   0  0  0  0  0  0  0  0  0  0  0  0
    3.4951   -5.2906    4.9153 H   0  0  0  0  0  0  0  0  0  0  0  0
    5.7011   -5.6159    5.8172 H   0  0  0  0  0  0  0  0  0  0  0  0
    5.3294   -7.2692    6.3123 H   0  0  0  0  0  0  0  0  0  0  0  0
    4.5792   -5.9270    7.1636 H   0  0  0  0  0  0  0  0  0  0  0  0
    5.3071   -7.7411    1.0923 H   0  0  0  0  0  0  0  0  0  0  0  0
    3.5408   -6.8512    0.1002 H   0  0  0  0  0  0  0  0  0  0  0  0
    3.9960   -3.4584    1.0389 H   0  0  0  0  0  0  0  0  0  0  0  0
    2.9071   -1.6443    1.4737 H   0  0  0  0  0  0  0  0  0  0  0  0
    3.1989   -1.6564   -0.3202 H   0  0  0  0  0  0  0  0  0  0  0  0
    2.9508   -0.1268    0.6231 H   0  0  0  0  0  0  0  0  0  0  0  0
  1  2  1  0
  1 37  1  0
  1 38  1  0
  1 39  1  0
  3  2  1  6
  3 32  1  0
  3  4  1  0
  3  5  1  0
  4 40  1  0
  4 41  1  0
  4 42  1  0
  5  6  1  0
  6 30  1  0
  6  7  1  0
  6 43  1  6
  7  8  1  0
  7 32  1  0
  7 44  1  1
  8  9  1  0
  8 45  1  0
  8 46  1  0
  9 10  1  1
  9 11  1  0
  9 30  1  0
 10 47  1  0
 10 48  1  0
 10 49  1  0
 11 27  1  0
 11 12  2  0
 29 12  1  6
 12 13  1  0
 13 14  1  0
 13 50  1  0
 13 51  1  0
 14 15  1  0
 14 52  1  0
 14 53  1  0
 15 29  1  0
 15 16  1  0
 15 54  1  1
 16 17  1  0
 17 29  1  0
 17 18  1  6
 17 21  1  0
 18 19  1  0
 18 20  1  0
 18 55  1  0
 19 56  1  0
 19 57  1  0
 19 58  1  0
 20 59  1  0
 20 60  1  0
 20 61  1  0
 21 22  1  0
 21 62  1  0
 21 63  1  0
 22 23  2  0
 22 64  1  0
 23 24  1  0
 23 25  1  0
 24 65  1  0
 24 66  1  0
 24 67  1  0
 25 26  1  0
 25 29  1  0
 25 68  1  1
 26 27  1  0
 26 69  1  0
 26 70  1  0
 27 28  1  0
 27 71  1  6
 28 72  1  0
 28 73  1  0
 28 74  1  0
 30 31  1  0
 30 75  1  1
 31 76  1  0
 32 33  1  0
 32 77  1  1
 33 34  1  0
 34 35  1  0
 34 36  2  0
 35 78  1  0
 35 79  1  0
 35 80  1  0
M  END
>  <i_m_ct_stereo_status>  (320) 
1

>  <s_m_source_file>  (320) 
/var/tmp/pbs.5076255.sched01/tmpt85fkz7r/123fjz13bl5.sdf

>  <i_m_source_file_index>  (320) 
32

>  <i_lp_mmshare_version>  (320) 
48012

>  <i_f3d_flags>  (320) 
0

>  <s_epik_input>  (320) 
W0NIM11PW0NAXShPMSkoW0NIM10pW0NASF0oT0MoPU8pW0NIM10pW0NASF0oW0NASF0xMilbQ0gyXVtDQF0oW0NIM10pKFtDQEhdMltPSF0pQyg9QzNbQ0BdNDU2KVtDQEhdKFtDSDNdKVtDSDJdW0NASF02QyhbQ0gzXSk9W0NIXVtDSDJdW0NAXTUoW0NIXShbQ0gzXSlbQ0gzXSlPW0NASF00W0NIMl1bQ0gyXTM=

>  <s_epik_cmdline>  (320) 
J2VwaWtfcHl0aG9uJywgJy1waHQnLCAnMi4wJywgJy1waCcsICc3LjAnLCAnLXRuJywgJzgnLCAnLW1hJywgJzIwMCcsICctaW1hZScsICc8aW5maWxlLm1hZT4nLCAnLW9tYWUnLCAnPG91dGZpbGUubWFlPic=

>  <r_lp_tautomer_probability>  (320) 
1

>  <r_epik_Ionization_Penalty>  (320) 
4.54273e-08

>  <r_epik_Ionization_Penalty_Charging>  (320) 
0

>  <r_epik_Ionization_Penalty_Neutral>  (320) 
4.54273e-08

>  <r_epik_State_Penalty>  (320) 
-0

>  <r_epik_Charging_Adjusted_Penalty>  (320) 
0

>  <i_epik_Tot_Q>  (320) 
0

>  <i_epik_Tot_abs_Q>  (320) 
0

>  <s_epik_Chemistry_Notes>  (320) 
This compound has an ester and may undergo hydrolysis at high or low pH.

>  <s_lp_Force_Field>  (320) 
OPLS3e

>  <r_lp_Energy>  (320) 
43.3956

>  <b_lp_Chiralities_Consistent>  (320) 
1

>  <s_lp_Variant>  (320) 
110:0-1

>  <s_i_glide_gridfile>  (320) 
pfpi4k_grid

>  <i_i_glide_lignum>  (320) 
32

>  <i_i_glide_rotatable_bonds>  (320) 
6

>  <r_i_docking_score>  (320) 
-1.8069

>  <r_i_glide_ligand_efficiency>  (320) 
-0.0501916

>  <r_i_glide_ligand_efficiency_sa>  (320) 
-0.165729

>  <r_i_glide_ligand_efficiency_ln>  (320) 
-0.394217

>  <r_i_glide_gscore>  (320) 
-1.8069

>  <r_i_glide_lipo>  (320) 
-0.282536

>  <r_i_glide_hbond>  (320) 
-0.221757

>  <r_i_glide_metal>  (320) 
-0

>  <r_i_glide_rewards>  (320) 
-0.209184

>  <r_i_glide_evdw>  (320) 
-27.1406

>  <r_i_glide_ecoul>  (320) 
0.671162

>  <r_i_glide_erotb>  (320) 
0.162935

>  <r_i_glide_esite>  (320) 
0

>  <r_i_glide_emodel>  (320) 
-21.3506

>  <r_i_glide_energy>  (320) 
-26.4695

>  <r_i_glide_einternal>  (320) 
12.9545

>  <r_i_glide_intrahb_reward>  (320) 
-0

>  <i_i_glide_confnum>  (320) 
2

>  <i_i_glide_posenum>  (320) 
28

>  <r_i_glide_eff_state_penalty>  (320) 
0

>  <ligand_id>  (320) 
110

>  <original_smiles>  (320) 
COC1(C)OC2C(CC(C)(C3=C4CCC5OC6(C(C)C)CC=C(C)C(CC3C)C456)C2O)C1OC(C)=O

>  <smiles>  (320) 
[H]OC1([H])C2([H])OC(OC([H])([H])[H])(C([H])([H])[H])C([H])(OC(=O)C([H])([H])[H])C2([H])C([H])([H])C1(C1=C2C([H])([H])C([H])([H])C3([H])OC4(C([H])(C([H])([H])[H])C([H])([H])[H])C([H])([H])C([H])=C(C([H])([H])[H])C([H])(C([H])([H])C1([H])C([H])([H])[H])C234)C([H])([H])[H]

$$$$
111:0:0
     RDKit          3D

 70 75  0  0  1  0  0  0  0  0999 V2000
    5.2928   -2.2647   -1.8405 C   0  0  0  0  0  0  0  0  0  0  0  0
    4.2588   -2.4111   -0.7329 C   0  0  0  0  0  0  0  0  0  0  0  0
    4.0864   -1.6053    0.3399 C   0  0  0  0  0  0  0  0  0  0  0  0
    4.9520   -0.3927    0.6579 C   0  0  0  0  0  0  0  0  0  0  0  0
    2.9955   -1.9099    1.3013 C   0  0  0  0  0  0  0  0  0  0  0  0
    2.4573   -3.0157    1.3940 O   0  0  0  0  0  0  0  0  0  0  0  0
    2.7097   -0.8571    2.1176 O   0  0  0  0  0  0  0  0  0  0  0  0
    1.6283   -0.8945    3.0520 C   0  0  2  0  0  0  0  0  0  0  0  0
    0.8500    0.4871    2.9173 C   0  0  2  0  0  0  0  0  0  0  0  0
    1.4846    1.3505    3.9213 C   0  0  0  0  0  0  0  0  0  0  0  0
    0.9244    0.7565    5.2592 C   0  0  2  0  0  0  0  0  0  0  0  0
   -0.5439    1.1460    4.9258 C   0  0  1  0  0  0  0  0  0  0  0  0
   -0.8075    2.5238    5.1467 O   0  0  0  0  0  0  0  0  0  0  0  0
   -0.6270    0.7169    3.4046 C   0  0  1  0  0  0  0  0  0  0  0  0
   -1.3619    1.7299    2.5050 C   0  0  0  0  0  0  0  0  0  0  0  0
    1.7062    1.3378    6.4797 C   0  0  2  0  0  0  0  0  0  0  0  0
    2.9361    2.2245    6.1321 C   0  0  0  0  0  0  0  0  0  0  0  0
    4.2414    1.6401    5.4784 C   0  0  0  0  0  0  0  0  0  0  0  0
    4.3873    0.2829    4.6790 C   0  0  1  0  0  0  0  0  0  0  0  0
    5.8013    0.1547    4.6573 O   0  0  0  0  0  0  0  0  0  0  0  0
    3.6739   -1.0965    5.0595 C   0  0  1  0  0  0  0  0  0  0  0  0
    4.5724   -2.2201    4.4123 C   0  0  0  0  0  0  0  0  0  0  0  0
    3.8577   -1.3649    6.6085 C   0  0  1  0  0  0  0  0  0  0  0  0
    3.4914   -0.2653    7.6358 C   0  0  0  0  0  0  0  0  0  0  0  0
    2.0348    0.1975    7.4798 C   0  0  2  0  0  0  0  0  0  0  0  0
    1.2255   -0.9984    7.0098 C   0  0  2  0  0  0  0  0  0  0  0  0
    1.8314   -2.3604    7.4613 C   0  0  0  0  0  0  0  0  0  0  0  0
    3.1626   -2.5555    6.9802 O   0  0  0  0  0  0  0  0  0  0  0  0
    0.9964   -0.8233    5.4851 C   0  0  1  0  0  0  0  0  0  0  0  0
   -0.3234   -1.6828    5.2777 C   0  0  0  0  0  0  0  0  0  0  0  0
    2.1247   -1.3286    4.5265 C   0  0  1  0  0  0  0  0  0  0  0  0
    1.9383   -2.7378    4.4386 O   0  0  0  0  0  0  0  0  0  0  0  0
    4.8050   -2.3509   -2.8133 H   0  0  0  0  0  0  0  0  0  0  0  0
    6.0374   -3.0567   -1.7716 H   0  0  0  0  0  0  0  0  0  0  0  0
    5.8080   -1.3054   -1.8293 H   0  0  0  0  0  0  0  0  0  0  0  0
    3.6007   -3.2623   -0.8587 H   0  0  0  0  0  0  0  0  0  0  0  0
    5.2665   -0.4172    1.7002 H   0  0  0  0  0  0  0  0  0  0  0  0
    4.3948    0.5272    0.4823 H   0  0  0  0  0  0  0  0  0  0  0  0
    5.8643   -0.3524    0.0715 H   0  0  0  0  0  0  0  0  0  0  0  0
    0.9086   -1.6330    2.6894 H   0  0  0  0  0  0  0  0  0  0  0  0
    0.9787    0.8775    1.9063 H   0  0  0  0  0  0  0  0  0  0  0  0
    2.5242    1.4080    3.7246 H   0  0  0  0  0  0  0  0  0  0  0  0
    1.2053    2.3937    3.7706 H   0  0  0  0  0  0  0  0  0  0  0  0
   -1.2977    0.6735    5.5444 H   0  0  0  0  0  0  0  0  0  0  0  0
   -0.2376    3.0242    4.5807 H   0  0  0  0  0  0  0  0  0  0  0  0
   -1.2036   -0.1922    3.2851 H   0  0  0  0  0  0  0  0  0  0  0  0
   -0.8560    2.6936    2.4478 H   0  0  0  0  0  0  0  0  0  0  0  0
   -2.3790    1.9096    2.8501 H   0  0  0  0  0  0  0  0  0  0  0  0
   -1.4298    1.3443    1.4891 H   0  0  0  0  0  0  0  0  0  0  0  0
    1.0041    1.9910    7.0000 H   0  0  0  0  0  0  0  0  0  0  0  0
    2.5954    3.0709    5.5340 H   0  0  0  0  0  0  0  0  0  0  0  0
    3.2471    2.7020    7.0627 H   0  0  0  0  0  0  0  0  0  0  0  0
    4.5663    2.4134    4.7824 H   0  0  0  0  0  0  0  0  0  0  0  0
    5.0303    1.6967    6.2295 H   0  0  0  0  0  0  0  0  0  0  0  0
    4.2293    0.4507    3.6173 H   0  0  0  0  0  0  0  0  0  0  0  0
    6.0267   -0.4892    4.0030 H   0  0  0  0  0  0  0  0  0  0  0  0
    4.2436   -3.2326    4.6403 H   0  0  0  0  0  0  0  0  0  0  0  0
    5.5947   -2.2223    4.7901 H   0  0  0  0  0  0  0  0  0  0  0  0
    4.6574   -2.1249    3.3350 H   0  0  0  0  0  0  0  0  0  0  0  0
    4.9127   -1.5771    6.7901 H   0  0  0  0  0  0  0  0  0  0  0  0
    3.5936   -0.7209    8.6224 H   0  0  0  0  0  0  0  0  0  0  0  0
    4.2075    0.5415    7.7122 H   0  0  0  0  0  0  0  0  0  0  0  0
    1.7015    0.5090    8.4714 H   0  0  0  0  0  0  0  0  0  0  0  0
    0.2620   -0.8989    7.5114 H   0  0  0  0  0  0  0  0  0  0  0  0
    1.8588   -2.3875    8.5512 H   0  0  0  0  0  0  0  0  0  0  0  0
    1.2276   -3.2159    7.1661 H   0  0  0  0  0  0  0  0  0  0  0  0
   -0.2083   -2.6937    5.6660 H   0  0  0  0  0  0  0  0  0  0  0  0
   -0.5967   -1.8594    4.2421 H   0  0  0  0  0  0  0  0  0  0  0  0
   -1.1955   -1.3203    5.8171 H   0  0  0  0  0  0  0  0  0  0  0  0
    2.5511   -3.0740    3.8038 H   0  0  0  0  0  0  0  0  0  0  0  0
  1  2  1  0
  1 33  1  0
  1 34  1  0
  1 35  1  0
  2  3  2  3
  2 36  1  0
  3  4  1  0
  3  5  1  0
  4 37  1  0
  4 38  1  0
  4 39  1  0
  5  6  2  0
  5  7  1  0
  7  8  1  0
  8 31  1  0
  8  9  1  0
  8 40  1  6
  9 14  1  0
  9 10  1  0
  9 41  1  6
 11 10  1  6
 10 42  1  0
 10 43  1  0
 11 29  1  0
 11 12  1  0
 11 16  1  0
 12 13  1  0
 12 14  1  0
 12 44  1  1
 13 45  1  0
 14 15  1  0
 14 46  1  1
 15 47  1  0
 15 48  1  0
 15 49  1  0
 16 25  1  0
 16 17  1  0
 16 50  1  1
 17 18  1  0
 17 51  1  0
 17 52  1  0
 18 19  1  0
 18 53  1  0
 18 54  1  0
 19 20  1  0
 19 21  1  0
 19 55  1  6
 20 56  1  0
 21 31  1  0
 21 22  1  6
 21 23  1  0
 22 57  1  0
 22 58  1  0
 22 59  1  0
 23 28  1  0
 23 24  1  0
 23 60  1  6
 24 25  1  0
 24 61  1  0
 24 62  1  0
 25 26  1  0
 25 63  1  1
 26 27  1  0
 26 29  1  0
 26 64  1  1
 27 28  1  0
 27 65  1  0
 27 66  1  0
 29 30  1  6
 29 31  1  0
 30 67  1  0
 30 68  1  0
 30 69  1  0
 31 32  1  6
 32 70  1  0
M  END
>  <i_m_ct_stereo_status>  (321) 
1

>  <s_m_source_file>  (321) 
/var/tmp/pbs.5076255.sched01/tmpt85fkz7r/123fjz13bl5.sdf

>  <i_m_source_file_index>  (321) 
33

>  <i_lp_mmshare_version>  (321) 
48012

>  <i_f3d_flags>  (321) 
0

>  <s_epik_input>  (321) 
W0NIM10vW0NIXT1DKFxbQ0gzXSlDKD1PKU9bQ0BIXShbQ0BIXShbQ0gyXTEpW0NASF0oW0NIM10pW0NAQEhdMltPSF0pW0NAQF0oW09IXSkoW0NAQF0oW0NIM10pKFtDQEhdKFtPSF0pW0NIMl1bQ0gyXTMpW0NAQEhdKFtDSDJdNClPW0NIMl01KVtDQEBdNihbQ0gzXSlbQ0BASF01W0NAQEhdNFtDQEBIXTNbQ0BdMTI2

>  <s_epik_cmdline>  (321) 
J2VwaWtfcHl0aG9uJywgJy1waHQnLCAnMi4wJywgJy1waCcsICc3LjAnLCAnLXRuJywgJzgnLCAnLW1hJywgJzIwMCcsICctaW1hZScsICc8aW5maWxlLm1hZT4nLCAnLW9tYWUnLCAnPG91dGZpbGUubWFlPic=

>  <r_lp_tautomer_probability>  (321) 
1

>  <r_epik_Ionization_Penalty>  (321) 
1.47969e-06

>  <r_epik_Ionization_Penalty_Charging>  (321) 
0

>  <r_epik_Ionization_Penalty_Neutral>  (321) 
1.47969e-06

>  <r_epik_State_Penalty>  (321) 
-0

>  <r_epik_Charging_Adjusted_Penalty>  (321) 
0

>  <i_epik_Tot_Q>  (321) 
0

>  <i_epik_Tot_abs_Q>  (321) 
0

>  <s_epik_Chemistry_Notes>  (321) 
This compound has an ester and may undergo hydrolysis at high or low pH.

>  <s_lp_Force_Field>  (321) 
OPLS3e

>  <r_lp_Energy>  (321) 
156.317

>  <b_lp_Chiralities_Consistent>  (321) 
1

>  <s_lp_Variant>  (321) 
111:0-1

>  <s_i_glide_gridfile>  (321) 
pfpi4k_grid

>  <i_i_glide_lignum>  (321) 
33

>  <i_i_glide_rotatable_bonds>  (321) 
6

>  <r_i_docking_score>  (321) 
-2.25721

>  <r_i_glide_ligand_efficiency>  (321) 
-0.0705379

>  <r_i_glide_ligand_efficiency_sa>  (321) 
-0.223944

>  <r_i_glide_ligand_efficiency_ln>  (321) 
-0.505452

>  <r_i_glide_gscore>  (321) 
-2.25721

>  <r_i_glide_lipo>  (321) 
-0.218645

>  <r_i_glide_hbond>  (321) 
0

>  <r_i_glide_metal>  (321) 
-0

>  <r_i_glide_rewards>  (321) 
-0.864252

>  <r_i_glide_evdw>  (321) 
-26.1033

>  <r_i_glide_ecoul>  (321) 
-0.91337

>  <r_i_glide_erotb>  (321) 
0.301121

>  <r_i_glide_esite>  (321) 
-0.0332692

>  <r_i_glide_emodel>  (321) 
-34.1117

>  <r_i_glide_energy>  (321) 
-27.0166

>  <r_i_glide_einternal>  (321) 
3.1342

>  <r_i_glide_intrahb_reward>  (321) 
-0.5

>  <i_i_glide_confnum>  (321) 
4

>  <i_i_glide_posenum>  (321) 
14

>  <r_i_glide_eff_state_penalty>  (321) 
0

>  <ligand_id>  (321) 
111

>  <original_smiles>  (321) 
CC=C(C)C(=O)OC1C2CC3(C(O)C2C)C2CCC(O)C4(C)C5CC2C(CO5)C3(C)C14O

>  <smiles>  (321) 
[H]OC1([H])C([H])([H])C([H])([H])C2([H])C3([H])C([H])([H])C4([H])OC([H])([H])C3([H])C3(C([H])([H])[H])C(O[H])(C([H])(OC(=O)C(=C([H])C([H])([H])[H])C([H])([H])[H])C5([H])C([H])([H])C23C([H])(O[H])C5([H])C([H])([H])[H])C14C([H])([H])[H]

$$$$
111:0:1
     RDKit          3D

 70 75  0  0  1  0  0  0  0  0999 V2000
    4.7720   -1.0586   -1.0566 C   0  0  0  0  0  0  0  0  0  0  0  0
    3.8718   -1.2175    0.1548 C   0  0  0  0  0  0  0  0  0  0  0  0
    3.4665   -2.3766    0.7217 C   0  0  0  0  0  0  0  0  0  0  0  0
    3.8591   -3.7651    0.2220 C   0  0  0  0  0  0  0  0  0  0  0  0
    2.5694   -2.3751    1.9096 C   0  0  0  0  0  0  0  0  0  0  0  0
    2.1391   -3.4096    2.4269 O   0  0  0  0  0  0  0  0  0  0  0  0
    2.3123   -1.1385    2.4078 O   0  0  0  0  0  0  0  0  0  0  0  0
    1.3086   -0.9268    3.4030 C   0  0  2  0  0  0  0  0  0  0  0  0
    0.6460    0.4761    3.0555 C   0  0  2  0  0  0  0  0  0  0  0  0
    1.4067    1.4338    3.8677 C   0  0  0  0  0  0  0  0  0  0  0  0
    0.8626    1.1357    5.3072 C   0  0  2  0  0  0  0  0  0  0  0  0
   -0.5807    1.6034    4.9596 C   0  0  1  0  0  0  0  0  0  0  0  0
   -0.7104    3.0187    4.9374 O   0  0  0  0  0  0  0  0  0  0  0  0
   -0.7783    0.9239    3.5427 C   0  0  1  0  0  0  0  0  0  0  0  0
   -1.4551    1.8345    2.5049 C   0  0  0  0  0  0  0  0  0  0  0  0
    1.7524    1.8384    6.3820 C   0  0  2  0  0  0  0  0  0  0  0  0
    3.0367    2.5291    5.8438 C   0  0  0  0  0  0  0  0  0  0  0  0
    4.2497    1.7156    5.2650 C   0  0  0  0  0  0  0  0  0  0  0  0
    4.2404    0.2351    4.7046 C   0  0  1  0  0  0  0  0  0  0  0  0
    5.6367   -0.0161    4.6419 O   0  0  0  0  0  0  0  0  0  0  0  0
    3.4324   -0.9837    5.3473 C   0  0  1  0  0  0  0  0  0  0  0  0
    4.2081   -2.2789    4.8909 C   0  0  0  0  0  0  0  0  0  0  0  0
    3.6610   -0.9992    6.9127 C   0  0  1  0  0  0  0  0  0  0  0  0
    3.4449    0.2913    7.7411 C   0  0  0  0  0  0  0  0  0  0  0  0
    2.0285    0.8593    7.5549 C   0  0  2  0  0  0  0  0  0  0  0  0
    1.0935   -0.3156    7.3274 C   0  0  2  0  0  0  0  0  0  0  0  0
    1.5964   -1.6326    7.9911 C   0  0  0  0  0  0  0  0  0  0  0  0
    2.8818   -2.0350    7.5127 O   0  0  0  0  0  0  0  0  0  0  0  0
    0.8085   -0.3820    5.8035 C   0  0  1  0  0  0  0  0  0  0  0  0
   -0.5915   -1.1334    5.7907 C   0  0  0  0  0  0  0  0  0  0  0  0
    1.8439   -1.1493    4.9137 C   0  0  1  0  0  0  0  0  0  0  0  0
    1.5275   -2.5242    5.0979 O   0  0  0  0  0  0  0  0  0  0  0  0
    5.5438   -0.3206   -0.8325 H   0  0  0  0  0  0  0  0  0  0  0  0
    4.1852   -0.6880   -1.8976 H   0  0  0  0  0  0  0  0  0  0  0  0
    5.2704   -1.9721   -1.3583 H   0  0  0  0  0  0  0  0  0  0  0  0
    3.5347   -0.2717    0.5542 H   0  0  0  0  0  0  0  0  0  0  0  0
    2.9933   -4.4294    0.1822 H   0  0  0  0  0  0  0  0  0  0  0  0
    4.5906   -4.2049    0.8970 H   0  0  0  0  0  0  0  0  0  0  0  0
    4.2844   -3.7617   -0.7798 H   0  0  0  0  0  0  0  0  0  0  0  0
    0.5171   -1.6535    3.1993 H   0  0  0  0  0  0  0  0  0  0  0  0
    0.7572    0.6758    1.9884 H   0  0  0  0  0  0  0  0  0  0  0  0
    2.4371    1.3521    3.6298 H   0  0  0  0  0  0  0  0  0  0  0  0
    1.2161    2.4574    3.5454 H   0  0  0  0  0  0  0  0  0  0  0  0
   -1.3390    1.3201    5.6794 H   0  0  0  0  0  0  0  0  0  0  0  0
   -0.1489    3.3509    4.2514 H   0  0  0  0  0  0  0  0  0  0  0  0
   -1.4418    0.0685    3.6013 H   0  0  0  0  0  0  0  0  0  0  0  0
   -0.8741    2.7279    2.2753 H   0  0  0  0  0  0  0  0  0  0  0  0
   -2.4400    2.1535    2.8467 H   0  0  0  0  0  0  0  0  0  0  0  0
   -1.6028    1.2961    1.5690 H   0  0  0  0  0  0  0  0  0  0  0  0
    1.1372    2.6349    6.8020 H   0  0  0  0  0  0  0  0  0  0  0  0
    2.7452    3.2878    5.1155 H   0  0  0  0  0  0  0  0  0  0  0  0
    3.4336    3.1285    6.6648 H   0  0  0  0  0  0  0  0  0  0  0  0
    4.6005    2.3223    4.4329 H   0  0  0  0  0  0  0  0  0  0  0  0
    5.0767    1.8332    5.9672 H   0  0  0  0  0  0  0  0  0  0  0  0
    4.0408    0.2237    3.6367 H   0  0  0  0  0  0  0  0  0  0  0  0
    5.9829   -0.0121    5.5227 H   0  0  0  0  0  0  0  0  0  0  0  0
    3.7911   -3.2046    5.2848 H   0  0  0  0  0  0  0  0  0  0  0  0
    5.2362   -2.3084    5.2544 H   0  0  0  0  0  0  0  0  0  0  0  0
    4.2913   -2.3578    3.8127 H   0  0  0  0  0  0  0  0  0  0  0  0
    4.6995   -1.2766    7.0979 H   0  0  0  0  0  0  0  0  0  0  0  0
    3.5527    0.0024    8.7886 H   0  0  0  0  0  0  0  0  0  0  0  0
    4.2332    1.0267    7.6532 H   0  0  0  0  0  0  0  0  0  0  0  0
    1.7734    1.3666    8.4874 H   0  0  0  0  0  0  0  0  0  0  0  0
    0.1686   -0.0384    7.8360 H   0  0  0  0  0  0  0  0  0  0  0  0
    1.6756   -1.4759    9.0674 H   0  0  0  0  0  0  0  0  0  0  0  0
    0.9063   -2.4653    7.8678 H   0  0  0  0  0  0  0  0  0  0  0  0
   -0.5507   -2.0688    6.3469 H   0  0  0  0  0  0  0  0  0  0  0  0
   -0.9307   -1.4568    4.8118 H   0  0  0  0  0  0  0  0  0  0  0  0
   -1.3977   -0.5967    6.2850 H   0  0  0  0  0  0  0  0  0  0  0  0
    2.0518   -3.0259    4.4901 H   0  0  0  0  0  0  0  0  0  0  0  0
  1  2  1  0
  1 33  1  0
  1 34  1  0
  1 35  1  0
  2  3  2  3
  2 36  1  0
  3  4  1  0
  3  5  1  0
  4 37  1  0
  4 38  1  0
  4 39  1  0
  5  6  2  0
  5  7  1  0
  7  8  1  0
  8 31  1  0
  8  9  1  0
  8 40  1  6
  9 14  1  0
  9 10  1  0
  9 41  1  6
 11 10  1  6
 10 42  1  0
 10 43  1  0
 11 29  1  0
 11 12  1  0
 11 16  1  0
 12 13  1  0
 12 14  1  0
 12 44  1  1
 13 45  1  0
 14 15  1  0
 14 46  1  1
 15 47  1  0
 15 48  1  0
 15 49  1  0
 16 25  1  0
 16 17  1  0
 16 50  1  1
 17 18  1  0
 17 51  1  0
 17 52  1  0
 18 19  1  0
 18 53  1  0
 18 54  1  0
 19 20  1  0
 19 21  1  0
 19 55  1  6
 20 56  1  0
 21 31  1  0
 21 22  1  6
 21 23  1  0
 22 57  1  0
 22 58  1  0
 22 59  1  0
 23 28  1  0
 23 24  1  0
 23 60  1  6
 24 25  1  0
 24 61  1  0
 24 62  1  0
 25 26  1  0
 25 63  1  1
 26 27  1  0
 26 29  1  0
 26 64  1  1
 27 28  1  0
 27 65  1  0
 27 66  1  0
 29 30  1  1
 29 31  1  0
 30 67  1  0
 30 68  1  0
 30 69  1  0
 31 32  1  1
 32 70  1  0
M  END
>  <i_m_ct_stereo_status>  (322) 
1

>  <s_m_source_file>  (322) 
/var/tmp/pbs.5076255.sched01/tmpt85fkz7r/123fjz13bl5.sdf

>  <i_m_source_file_index>  (322) 
33

>  <i_lp_mmshare_version>  (322) 
48012

>  <i_f3d_flags>  (322) 
0

>  <s_epik_input>  (322) 
W0NIM10vW0NIXT1DKFxbQ0gzXSlDKD1PKU9bQ0BIXShbQ0BIXShbQ0gyXTEpW0NASF0oW0NIM10pW0NAQEhdMltPSF0pW0NAQF0oW09IXSkoW0NAQF0oW0NIM10pKFtDQEhdKFtPSF0pW0NIMl1bQ0gyXTMpW0NAQEhdKFtDSDJdNClPW0NIMl01KVtDQEBdNihbQ0gzXSlbQ0BASF01W0NAQEhdNFtDQEBIXTNbQ0BdMTI2

>  <s_epik_cmdline>  (322) 
J2VwaWtfcHl0aG9uJywgJy1waHQnLCAnMi4wJywgJy1waCcsICc3LjAnLCAnLXRuJywgJzgnLCAnLW1hJywgJzIwMCcsICctaW1hZScsICc8aW5maWxlLm1hZT4nLCAnLW9tYWUnLCAnPG91dGZpbGUubWFlPic=

>  <r_lp_tautomer_probability>  (322) 
1

>  <r_epik_Ionization_Penalty>  (322) 
1.47969e-06

>  <r_epik_Ionization_Penalty_Charging>  (322) 
0

>  <r_epik_Ionization_Penalty_Neutral>  (322) 
1.47969e-06

>  <r_epik_State_Penalty>  (322) 
-0

>  <r_epik_Charging_Adjusted_Penalty>  (322) 
0

>  <i_epik_Tot_Q>  (322) 
0

>  <i_epik_Tot_abs_Q>  (322) 
0

>  <s_epik_Chemistry_Notes>  (322) 
This compound has an ester and may undergo hydrolysis at high or low pH.

>  <s_lp_Force_Field>  (322) 
OPLS3e

>  <r_lp_Energy>  (322) 
156.317

>  <b_lp_Chiralities_Consistent>  (322) 
1

>  <s_lp_Variant>  (322) 
111:0-1

>  <s_i_glide_gridfile>  (322) 
pfpi4k_grid

>  <i_i_glide_lignum>  (322) 
33

>  <i_i_glide_rotatable_bonds>  (322) 
6

>  <r_i_docking_score>  (322) 
-1.96053

>  <r_i_glide_ligand_efficiency>  (322) 
-0.0612665

>  <r_i_glide_ligand_efficiency_sa>  (322) 
-0.194509

>  <r_i_glide_ligand_efficiency_ln>  (322) 
-0.439016

>  <r_i_glide_gscore>  (322) 
-1.96053

>  <r_i_glide_lipo>  (322) 
-0.021323

>  <r_i_glide_hbond>  (322) 
0

>  <r_i_glide_metal>  (322) 
-0

>  <r_i_glide_rewards>  (322) 
-0.864252

>  <r_i_glide_evdw>  (322) 
-24.3729

>  <r_i_glide_ecoul>  (322) 
-0.92029

>  <r_i_glide_erotb>  (322) 
0.301121

>  <r_i_glide_esite>  (322) 
-0.0193859

>  <r_i_glide_emodel>  (322) 
-32.7714

>  <r_i_glide_energy>  (322) 
-25.2932

>  <r_i_glide_einternal>  (322) 
0.768917

>  <r_i_glide_intrahb_reward>  (322) 
-0.5

>  <i_i_glide_confnum>  (322) 
4

>  <i_i_glide_posenum>  (322) 
2

>  <r_i_glide_eff_state_penalty>  (322) 
0

>  <ligand_id>  (322) 
111

>  <original_smiles>  (322) 
CC=C(C)C(=O)OC1C2CC3(C(O)C2C)C2CCC(O)C4(C)C5CC2C(CO5)C3(C)C14O

>  <smiles>  (322) 
[H]OC1([H])C([H])([H])C([H])([H])C2([H])C3([H])C([H])([H])C4([H])OC([H])([H])C3([H])C3(C([H])([H])[H])C(O[H])(C([H])(OC(=O)C(=C([H])C([H])([H])[H])C([H])([H])[H])C5([H])C([H])([H])C23C([H])(O[H])C5([H])C([H])([H])[H])C14C([H])([H])[H]

$$$$
111:1:0
     RDKit          3D

 70 75  0  0  1  0  0  0  0  0999 V2000
    3.5646   -1.4657   -2.4944 C   0  0  0  0  0  0  0  0  0  0  0  0
    4.3036   -1.1400   -1.2048 C   0  0  0  0  0  0  0  0  0  0  0  0
    4.2197   -1.7053    0.0241 C   0  0  0  0  0  0  0  0  0  0  0  0
    5.0757   -1.1775    1.1683 C   0  0  0  0  0  0  0  0  0  0  0  0
    3.3182   -2.8516    0.3478 C   0  0  0  0  0  0  0  0  0  0  0  0
    2.5762   -3.4190   -0.4536 O   0  0  0  0  0  0  0  0  0  0  0  0
    3.4603   -3.2818    1.6291 O   0  0  0  0  0  0  0  0  0  0  0  0
    2.5899   -4.2672    2.1878 C   0  0  2  0  0  0  0  0  0  0  0  0
    2.3541   -3.8378    3.6991 C   0  0  2  0  0  0  0  0  0  0  0  0
    3.3794   -4.5926    4.4286 C   0  0  0  0  0  0  0  0  0  0  0  0
    2.7992   -6.0465    4.3823 C   0  0  2  0  0  0  0  0  0  0  0  0
    1.5494   -5.6743    5.2324 C   0  0  1  0  0  0  0  0  0  0  0  0
    1.8405   -5.5699    6.6179 O   0  0  0  0  0  0  0  0  0  0  0  0
    1.1296   -4.2973    4.5713 C   0  0  1  0  0  0  0  0  0  0  0  0
    0.7212   -3.2093    5.5854 C   0  0  0  0  0  0  0  0  0  0  0  0
    3.8809   -7.0705    4.8479 C   0  0  2  0  0  0  0  0  0  0  0  0
    5.3024   -6.4880    5.0925 C   0  0  0  0  0  0  0  0  0  0  0  0
    6.2091   -5.9492    3.9264 C   0  0  0  0  0  0  0  0  0  0  0  0
    5.7443   -5.4891    2.4843 C   0  0  1  0  0  0  0  0  0  0  0  0
    6.9985   -5.4624    1.8194 O   0  0  0  0  0  0  0  0  0  0  0  0
    4.6235   -6.2108    1.6062 C   0  0  1  0  0  0  0  0  0  0  0  0
    4.9594   -5.8322    0.1151 C   0  0  0  0  0  0  0  0  0  0  0  0
    4.8730   -7.7736    1.6126 C   0  0  1  0  0  0  0  0  0  0  0  0
    5.0621   -8.5228    2.9528 C   0  0  0  0  0  0  0  0  0  0  0  0
    3.8740   -8.3016    3.9015 C   0  0  2  0  0  0  0  0  0  0  0  0
    2.6300   -8.1494    3.0446 C   0  0  2  0  0  0  0  0  0  0  0  0
    2.7343   -8.8916    1.6799 C   0  0  0  0  0  0  0  0  0  0  0  0
    3.8344   -8.4313    0.8882 O   0  0  0  0  0  0  0  0  0  0  0  0
    2.3096   -6.6325    2.9792 C   0  0  1  0  0  0  0  0  0  0  0  0
    0.7498   -6.6702    2.6762 C   0  0  0  0  0  0  0  0  0  0  0  0
    3.0524   -5.7872    1.8918 C   0  0  1  0  0  0  0  0  0  0  0  0
    2.3379   -6.0401    0.6864 O   0  0  0  0  0  0  0  0  0  0  0  0
    3.3449   -0.5382   -3.0281 H   0  0  0  0  0  0  0  0  0  0  0  0
    2.6090   -1.9627   -2.3392 H   0  0  0  0  0  0  0  0  0  0  0  0
    4.1850   -2.0871   -3.1365 H   0  0  0  0  0  0  0  0  0  0  0  0
    5.0013   -0.3269   -1.3210 H   0  0  0  0  0  0  0  0  0  0  0  0
    4.4435   -0.7822    1.9620 H   0  0  0  0  0  0  0  0  0  0  0  0
    5.7360   -0.3759    0.8417 H   0  0  0  0  0  0  0  0  0  0  0  0
    5.7030   -1.9661    1.5843 H   0  0  0  0  0  0  0  0  0  0  0  0
    1.6175   -4.1117    1.7250 H   0  0  0  0  0  0  0  0  0  0  0  0
    2.4994   -2.7602    3.7923 H   0  0  0  0  0  0  0  0  0  0  0  0
    4.3334   -4.3559    4.0286 H   0  0  0  0  0  0  0  0  0  0  0  0
    3.4926   -4.2100    5.4425 H   0  0  0  0  0  0  0  0  0  0  0  0
    0.7549   -6.4118    5.2262 H   0  0  0  0  0  0  0  0  0  0  0  0
    2.5916   -5.0054    6.7252 H   0  0  0  0  0  0  0  0  0  0  0  0
    0.2474   -4.4063    3.9517 H   0  0  0  0  0  0  0  0  0  0  0  0
    1.5406   -2.9263    6.2470 H   0  0  0  0  0  0  0  0  0  0  0  0
   -0.1100   -3.5406    6.2065 H   0  0  0  0  0  0  0  0  0  0  0  0
    0.4007   -2.3051    5.0682 H   0  0  0  0  0  0  0  0  0  0  0  0
    3.5397   -7.4430    5.8140 H   0  0  0  0  0  0  0  0  0  0  0  0
    5.2350   -5.7198    5.8634 H   0  0  0  0  0  0  0  0  0  0  0  0
    5.8768   -7.2714    5.5892 H   0  0  0  0  0  0  0  0  0  0  0  0
    6.7133   -5.0839    4.3582 H   0  0  0  0  0  0  0  0  0  0  0  0
    7.0415   -6.6474    3.8247 H   0  0  0  0  0  0  0  0  0  0  0  0
    5.5315   -4.4224    2.4694 H   0  0  0  0  0  0  0  0  0  0  0  0
    7.6133   -4.9806    2.3509 H   0  0  0  0  0  0  0  0  0  0  0  0
    4.3146   -6.3077   -0.6219 H   0  0  0  0  0  0  0  0  0  0  0  0
    5.9487   -6.1690   -0.1880 H   0  0  0  0  0  0  0  0  0  0  0  0
    4.9748   -4.7639   -0.0659 H   0  0  0  0  0  0  0  0  0  0  0  0
    5.7880   -7.9708    1.0513 H   0  0  0  0  0  0  0  0  0  0  0  0
    5.0983   -9.5856    2.7059 H   0  0  0  0  0  0  0  0  0  0  0  0
    6.0306   -8.3877    3.4161 H   0  0  0  0  0  0  0  0  0  0  0  0
    3.7948   -9.2013    4.5151 H   0  0  0  0  0  0  0  0  0  0  0  0
    1.8356   -8.6410    3.6093 H   0  0  0  0  0  0  0  0  0  0  0  0
    2.8737   -9.9579    1.8638 H   0  0  0  0  0  0  0  0  0  0  0  0
    1.8253   -8.8187    1.0857 H   0  0  0  0  0  0  0  0  0  0  0  0
    0.5223   -7.2789    1.8014 H   0  0  0  0  0  0  0  0  0  0  0  0
    0.3155   -5.7115    2.4216 H   0  0  0  0  0  0  0  0  0  0  0  0
    0.1444   -7.1404    3.4496 H   0  0  0  0  0  0  0  0  0  0  0  0
    2.7931   -5.6111   -0.0248 H   0  0  0  0  0  0  0  0  0  0  0  0
  1  2  1  0
  1 33  1  0
  1 34  1  0
  1 35  1  0
  2  3  2  3
  2 36  1  0
  3  4  1  0
  3  5  1  0
  4 37  1  0
  4 38  1  0
  4 39  1  0
  5  6  2  0
  5  7  1  0
  7  8  1  0
  8 31  1  0
  8  9  1  0
  8 40  1  6
  9 14  1  0
  9 10  1  0
  9 41  1  6
 11 10  1  6
 10 42  1  0
 10 43  1  0
 11 29  1  0
 11 12  1  0
 11 16  1  0
 12 13  1  0
 12 14  1  0
 12 44  1  1
 13 45  1  0
 14 15  1  0
 14 46  1  6
 15 47  1  0
 15 48  1  0
 15 49  1  0
 16 25  1  0
 16 17  1  0
 16 50  1  1
 17 18  1  0
 17 51  1  0
 17 52  1  0
 18 19  1  0
 18 53  1  0
 18 54  1  0
 19 20  1  0
 19 21  1  0
 19 55  1  1
 20 56  1  0
 21 31  1  0
 21 22  1  6
 21 23  1  0
 22 57  1  0
 22 58  1  0
 22 59  1  0
 23 28  1  0
 23 24  1  0
 23 60  1  6
 24 25  1  0
 24 61  1  0
 24 62  1  0
 25 26  1  0
 25 63  1  1
 26 27  1  0
 26 29  1  0
 26 64  1  1
 27 28  1  0
 27 65  1  0
 27 66  1  0
 29 30  1  6
 29 31  1  0
 30 67  1  0
 30 68  1  0
 30 69  1  0
 31 32  1  6
 32 70  1  0
M  END
>  <i_m_ct_stereo_status>  (323) 
1

>  <s_m_source_file>  (323) 
/var/tmp/pbs.5076255.sched01/tmpt85fkz7r/123fjz13bl5.sdf

>  <i_m_source_file_index>  (323) 
34

>  <i_lp_mmshare_version>  (323) 
48012

>  <i_f3d_flags>  (323) 
0

>  <s_epik_input>  (323) 
W0NIM10vW0NIXT1DKFxbQ0gzXSlDKD1PKU9bQ0BIXShbQ0BIXShbQ0gyXTEpW0NASF0oW0NIM10pW0NAQEhdMltPSF0pW0NAQF0oW09IXSkoW0NAQF0oW0NIM10pKFtDQEhdKFtPSF0pW0NIMl1bQ0gyXTMpW0NAQEhdKFtDSDJdNClPW0NIMl01KVtDQEBdNihbQ0gzXSlbQ0BASF01W0NAQEhdNFtDQEBIXTNbQ0BdMTI2

>  <s_epik_cmdline>  (323) 
J2VwaWtfcHl0aG9uJywgJy1waHQnLCAnMi4wJywgJy1waCcsICc3LjAnLCAnLXRuJywgJzgnLCAnLW1hJywgJzIwMCcsICctaW1hZScsICc8aW5maWxlLm1hZT4nLCAnLW9tYWUnLCAnPG91dGZpbGUubWFlPic=

>  <r_lp_tautomer_probability>  (323) 
1

>  <r_epik_Ionization_Penalty>  (323) 
1.47969e-06

>  <r_epik_Ionization_Penalty_Charging>  (323) 
0

>  <r_epik_Ionization_Penalty_Neutral>  (323) 
1.47969e-06

>  <r_epik_State_Penalty>  (323) 
-0

>  <r_epik_Charging_Adjusted_Penalty>  (323) 
0

>  <i_epik_Tot_Q>  (323) 
0

>  <i_epik_Tot_abs_Q>  (323) 
0

>  <s_epik_Chemistry_Notes>  (323) 
This compound has an ester and may undergo hydrolysis at high or low pH.

>  <s_lp_Force_Field>  (323) 
OPLS3e

>  <r_lp_Energy>  (323) 
157.825

>  <b_lp_Chiralities_Consistent>  (323) 
1

>  <s_lp_Variant>  (323) 
111:0-2

>  <s_i_glide_gridfile>  (323) 
pfpi4k_grid

>  <i_i_glide_lignum>  (323) 
34

>  <i_i_glide_rotatable_bonds>  (323) 
6

>  <r_i_docking_score>  (323) 
-2.7046

>  <r_i_glide_ligand_efficiency>  (323) 
-0.0845186

>  <r_i_glide_ligand_efficiency_sa>  (323) 
-0.26833

>  <r_i_glide_ligand_efficiency_ln>  (323) 
-0.605633

>  <r_i_glide_gscore>  (323) 
-2.7046

>  <r_i_glide_lipo>  (323) 
-0.309012

>  <r_i_glide_hbond>  (323) 
0

>  <r_i_glide_metal>  (323) 
-0

>  <r_i_glide_rewards>  (323) 
-0.864252

>  <r_i_glide_evdw>  (323) 
-28.8188

>  <r_i_glide_ecoul>  (323) 
-2.44529

>  <r_i_glide_erotb>  (323) 
0.301121

>  <r_i_glide_esite>  (323) 
-0.0247192

>  <r_i_glide_emodel>  (323) 
-39.278

>  <r_i_glide_energy>  (323) 
-31.2641

>  <r_i_glide_einternal>  (323) 
3.19696

>  <r_i_glide_intrahb_reward>  (323) 
-0.5

>  <i_i_glide_confnum>  (323) 
2

>  <i_i_glide_posenum>  (323) 
1

>  <r_i_glide_eff_state_penalty>  (323) 
0

>  <ligand_id>  (323) 
111

>  <original_smiles>  (323) 
CC=C(C)C(=O)OC1C2CC3(C(O)C2C)C2CCC(O)C4(C)C5CC2C(CO5)C3(C)C14O

>  <smiles>  (323) 
[H]OC1([H])C([H])([H])C([H])([H])C2([H])C3([H])C([H])([H])C4([H])OC([H])([H])C3([H])C3(C([H])([H])[H])C(O[H])(C([H])(OC(=O)C(=C([H])C([H])([H])[H])C([H])([H])[H])C5([H])C([H])([H])C23C([H])(O[H])C5([H])C([H])([H])[H])C14C([H])([H])[H]

$$$$
111:1:1
     RDKit          3D

 70 75  0  0  1  0  0  0  0  0999 V2000
    3.4977   -1.4660   -2.4507 C   0  0  0  0  0  0  0  0  0  0  0  0
    4.2261   -1.1229   -1.1582 C   0  0  0  0  0  0  0  0  0  0  0  0
    4.1491   -1.6888    0.0713 C   0  0  0  0  0  0  0  0  0  0  0  0
    4.9917   -1.1430    1.2185 C   0  0  0  0  0  0  0  0  0  0  0  0
    3.2688   -2.8509    0.3940 C   0  0  0  0  0  0  0  0  0  0  0  0
    2.5337   -3.4285   -0.4083 O   0  0  0  0  0  0  0  0  0  0  0  0
    3.4211   -3.2849    1.6720 O   0  0  0  0  0  0  0  0  0  0  0  0
    2.5674   -4.2860    2.2303 C   0  0  2  0  0  0  0  0  0  0  0  0
    2.3448   -3.8736    3.7482 C   0  0  2  0  0  0  0  0  0  0  0  0
    3.3858   -4.6257    4.4577 C   0  0  0  0  0  0  0  0  0  0  0  0
    2.8185   -6.0852    4.4020 C   0  0  2  0  0  0  0  0  0  0  0  0
    1.5758   -5.7327    5.2701 C   0  0  1  0  0  0  0  0  0  0  0  0
    1.9059   -5.6239    6.6464 O   0  0  0  0  0  0  0  0  0  0  0  0
    1.1335   -4.3533    4.6281 C   0  0  1  0  0  0  0  0  0  0  0  0
    0.7282   -3.2793    5.6598 C   0  0  0  0  0  0  0  0  0  0  0  0
    3.9158   -7.1027    4.8480 C   0  0  2  0  0  0  0  0  0  0  0  0
    5.3343   -6.5075    5.0827 C   0  0  0  0  0  0  0  0  0  0  0  0
    6.2241   -5.9496    3.9111 C   0  0  0  0  0  0  0  0  0  0  0  0
    5.7410   -5.4831    2.4770 C   0  0  1  0  0  0  0  0  0  0  0  0
    6.9867   -5.4102    1.7968 O   0  0  0  0  0  0  0  0  0  0  0  0
    4.6145   -6.2075    1.6065 C   0  0  1  0  0  0  0  0  0  0  0  0
    4.9298   -5.8138    0.1148 C   0  0  0  0  0  0  0  0  0  0  0  0
    4.8756   -7.7678    1.5979 C   0  0  1  0  0  0  0  0  0  0  0  0
    5.0878   -8.5266    2.9295 C   0  0  0  0  0  0  0  0  0  0  0  0
    3.9082   -8.3254    3.8918 C   0  0  2  0  0  0  0  0  0  0  0  0
    2.6527   -8.1770    3.0508 C   0  0  2  0  0  0  0  0  0  0  0  0
    2.7483   -8.9053    1.6794 C   0  0  0  0  0  0  0  0  0  0  0  0
    3.8358   -8.4290    0.8790 O   0  0  0  0  0  0  0  0  0  0  0  0
    2.3178   -6.6625    3.0006 C   0  0  1  0  0  0  0  0  0  0  0  0
    0.7540   -6.7097    2.7162 C   0  0  0  0  0  0  0  0  0  0  0  0
    3.0424   -5.7990    1.9152 C   0  0  1  0  0  0  0  0  0  0  0  0
    2.3168   -6.0489    0.7163 O   0  0  0  0  0  0  0  0  0  0  0  0
    3.2587   -0.5433   -2.9843 H   0  0  0  0  0  0  0  0  0  0  0  0
    2.5524   -1.9844   -2.3039 H   0  0  0  0  0  0  0  0  0  0  0  0
    4.1337   -2.0726   -3.0908 H   0  0  0  0  0  0  0  0  0  0  0  0
    4.9066   -0.2948   -1.2732 H   0  0  0  0  0  0  0  0  0  0  0  0
    4.3488   -0.7618    2.0109 H   0  0  0  0  0  0  0  0  0  0  0  0
    5.6365   -0.3280    0.8931 H   0  0  0  0  0  0  0  0  0  0  0  0
    5.6339   -1.9196    1.6363 H   0  0  0  0  0  0  0  0  0  0  0  0
    1.5873   -4.1347    1.7820 H   0  0  0  0  0  0  0  0  0  0  0  0
    2.4810   -2.7968    3.8539 H   0  0  0  0  0  0  0  0  0  0  0  0
    4.3340   -4.3754    4.0532 H   0  0  0  0  0  0  0  0  0  0  0  0
    3.5045   -4.2538    5.4761 H   0  0  0  0  0  0  0  0  0  0  0  0
    0.7883   -6.4793    5.2752 H   0  0  0  0  0  0  0  0  0  0  0  0
    2.1942   -6.4724    6.9482 H   0  0  0  0  0  0  0  0  0  0  0  0
    0.2441   -4.4636    4.0191 H   0  0  0  0  0  0  0  0  0  0  0  0
    1.5540   -2.9983    6.3148 H   0  0  0  0  0  0  0  0  0  0  0  0
   -0.0929   -3.6211    6.2889 H   0  0  0  0  0  0  0  0  0  0  0  0
    0.3966   -2.3721    5.1561 H   0  0  0  0  0  0  0  0  0  0  0  0
    3.5943   -7.4897    5.8149 H   0  0  0  0  0  0  0  0  0  0  0  0
    5.2663   -5.7466    5.8618 H   0  0  0  0  0  0  0  0  0  0  0  0
    5.9210   -7.2886    5.5690 H   0  0  0  0  0  0  0  0  0  0  0  0
    6.7226   -5.0802    4.3415 H   0  0  0  0  0  0  0  0  0  0  0  0
    7.0648   -6.6362    3.7995 H   0  0  0  0  0  0  0  0  0  0  0  0
    5.5091   -4.4212    2.4783 H   0  0  0  0  0  0  0  0  0  0  0  0
    7.3604   -6.2788    1.7486 H   0  0  0  0  0  0  0  0  0  0  0  0
    4.2766   -6.2846   -0.6184 H   0  0  0  0  0  0  0  0  0  0  0  0
    5.9159   -6.1407   -0.2076 H   0  0  0  0  0  0  0  0  0  0  0  0
    4.9364   -4.7438   -0.0535 H   0  0  0  0  0  0  0  0  0  0  0  0
    5.7844   -7.9535    1.0239 H   0  0  0  0  0  0  0  0  0  0  0  0
    5.1317   -9.5870    2.6740 H   0  0  0  0  0  0  0  0  0  0  0  0
    6.0592   -8.3847    3.3846 H   0  0  0  0  0  0  0  0  0  0  0  0
    3.8440   -9.2310    4.4990 H   0  0  0  0  0  0  0  0  0  0  0  0
    1.8690   -8.6799    3.6206 H   0  0  0  0  0  0  0  0  0  0  0  0
    2.8982   -9.9720    1.8517 H   0  0  0  0  0  0  0  0  0  0  0  0
    1.8312   -8.8339    1.0955 H   0  0  0  0  0  0  0  0  0  0  0  0
    0.5222   -7.3132    1.8392 H   0  0  0  0  0  0  0  0  0  0  0  0
    0.3086   -5.7522    2.4749 H   0  0  0  0  0  0  0  0  0  0  0  0
    0.1606   -7.1918    3.4916 H   0  0  0  0  0  0  0  0  0  0  0  0
    2.7549   -5.6030    0.0059 H   0  0  0  0  0  0  0  0  0  0  0  0
  1  2  1  0
  1 33  1  0
  1 34  1  0
  1 35  1  0
  2  3  2  3
  2 36  1  0
  3  4  1  0
  3  5  1  0
  4 37  1  0
  4 38  1  0
  4 39  1  0
  5  6  2  0
  5  7  1  0
  7  8  1  0
  8 31  1  0
  8  9  1  0
  8 40  1  6
  9 14  1  0
  9 10  1  0
  9 41  1  6
 11 10  1  6
 10 42  1  0
 10 43  1  0
 11 29  1  0
 11 12  1  0
 11 16  1  0
 12 13  1  0
 12 14  1  0
 12 44  1  1
 13 45  1  0
 14 15  1  0
 14 46  1  6
 15 47  1  0
 15 48  1  0
 15 49  1  0
 16 25  1  0
 16 17  1  0
 16 50  1  1
 17 18  1  0
 17 51  1  0
 17 52  1  0
 18 19  1  0
 18 53  1  0
 18 54  1  0
 19 20  1  0
 19 21  1  0
 19 55  1  1
 20 56  1  0
 21 31  1  0
 21 22  1  6
 21 23  1  0
 22 57  1  0
 22 58  1  0
 22 59  1  0
 23 28  1  0
 23 24  1  0
 23 60  1  6
 24 25  1  0
 24 61  1  0
 24 62  1  0
 25 26  1  0
 25 63  1  1
 26 27  1  0
 26 29  1  0
 26 64  1  1
 27 28  1  0
 27 65  1  0
 27 66  1  0
 29 30  1  1
 29 31  1  0
 30 67  1  0
 30 68  1  0
 30 69  1  0
 31 32  1  6
 32 70  1  0
M  END
>  <i_m_ct_stereo_status>  (324) 
1

>  <s_m_source_file>  (324) 
/var/tmp/pbs.5076255.sched01/tmpt85fkz7r/123fjz13bl5.sdf

>  <i_m_source_file_index>  (324) 
34

>  <i_lp_mmshare_version>  (324) 
48012

>  <i_f3d_flags>  (324) 
0

>  <s_epik_input>  (324) 
W0NIM10vW0NIXT1DKFxbQ0gzXSlDKD1PKU9bQ0BIXShbQ0BIXShbQ0gyXTEpW0NASF0oW0NIM10pW0NAQEhdMltPSF0pW0NAQF0oW09IXSkoW0NAQF0oW0NIM10pKFtDQEhdKFtPSF0pW0NIMl1bQ0gyXTMpW0NAQEhdKFtDSDJdNClPW0NIMl01KVtDQEBdNihbQ0gzXSlbQ0BASF01W0NAQEhdNFtDQEBIXTNbQ0BdMTI2

>  <s_epik_cmdline>  (324) 
J2VwaWtfcHl0aG9uJywgJy1waHQnLCAnMi4wJywgJy1waCcsICc3LjAnLCAnLXRuJywgJzgnLCAnLW1hJywgJzIwMCcsICctaW1hZScsICc8aW5maWxlLm1hZT4nLCAnLW9tYWUnLCAnPG91dGZpbGUubWFlPic=

>  <r_lp_tautomer_probability>  (324) 
1

>  <r_epik_Ionization_Penalty>  (324) 
1.47969e-06

>  <r_epik_Ionization_Penalty_Charging>  (324) 
0

>  <r_epik_Ionization_Penalty_Neutral>  (324) 
1.47969e-06

>  <r_epik_State_Penalty>  (324) 
-0

>  <r_epik_Charging_Adjusted_Penalty>  (324) 
0

>  <i_epik_Tot_Q>  (324) 
0

>  <i_epik_Tot_abs_Q>  (324) 
0

>  <s_epik_Chemistry_Notes>  (324) 
This compound has an ester and may undergo hydrolysis at high or low pH.

>  <s_lp_Force_Field>  (324) 
OPLS3e

>  <r_lp_Energy>  (324) 
157.825

>  <b_lp_Chiralities_Consistent>  (324) 
1

>  <s_lp_Variant>  (324) 
111:0-2

>  <s_i_glide_gridfile>  (324) 
pfpi4k_grid

>  <i_i_glide_lignum>  (324) 
34

>  <i_i_glide_rotatable_bonds>  (324) 
6

>  <r_i_docking_score>  (324) 
-2.68708

>  <r_i_glide_ligand_efficiency>  (324) 
-0.0839714

>  <r_i_glide_ligand_efficiency_sa>  (324) 
-0.266592

>  <r_i_glide_ligand_efficiency_ln>  (324) 
-0.601711

>  <r_i_glide_gscore>  (324) 
-2.68708

>  <r_i_glide_lipo>  (324) 
-0.300063

>  <r_i_glide_hbond>  (324) 
0

>  <r_i_glide_metal>  (324) 
-0

>  <r_i_glide_rewards>  (324) 
-0.864252

>  <r_i_glide_evdw>  (324) 
-28.6149

>  <r_i_glide_ecoul>  (324) 
-2.44818

>  <r_i_glide_erotb>  (324) 
0.301121

>  <r_i_glide_esite>  (324) 
-0.0259184

>  <r_i_glide_emodel>  (324) 
-39.0377

>  <r_i_glide_energy>  (324) 
-31.0631

>  <r_i_glide_einternal>  (324) 
3.17078

>  <r_i_glide_intrahb_reward>  (324) 
-0.5

>  <i_i_glide_confnum>  (324) 
2

>  <i_i_glide_posenum>  (324) 
12

>  <r_i_glide_eff_state_penalty>  (324) 
0

>  <ligand_id>  (324) 
111

>  <original_smiles>  (324) 
CC=C(C)C(=O)OC1C2CC3(C(O)C2C)C2CCC(O)C4(C)C5CC2C(CO5)C3(C)C14O

>  <smiles>  (324) 
[H]OC1([H])C([H])([H])C([H])([H])C2([H])C3([H])C([H])([H])C4([H])OC([H])([H])C3([H])C3(C([H])([H])[H])C(O[H])(C([H])(OC(=O)C(=C([H])C([H])([H])[H])C([H])([H])[H])C5([H])C([H])([H])C23C([H])(O[H])C5([H])C([H])([H])[H])C14C([H])([H])[H]

$$$$
111:1:2
     RDKit          3D

 70 75  0  0  1  0  0  0  0  0999 V2000
    3.5387   -1.5268   -2.4415 C   0  0  0  0  0  0  0  0  0  0  0  0
    4.2294   -1.1491   -1.1382 C   0  0  0  0  0  0  0  0  0  0  0  0
    4.1190   -1.6844    0.1026 C   0  0  0  0  0  0  0  0  0  0  0  0
    4.9281   -1.1076    1.2589 C   0  0  0  0  0  0  0  0  0  0  0  0
    3.2315   -2.8403    0.4299 C   0  0  0  0  0  0  0  0  0  0  0  0
    2.5014   -3.4229   -0.3721 O   0  0  0  0  0  0  0  0  0  0  0  0
    3.3781   -3.2665    1.7110 O   0  0  0  0  0  0  0  0  0  0  0  0
    2.5356   -4.2789    2.2665 C   0  0  2  0  0  0  0  0  0  0  0  0
    2.3190   -3.8794    3.7887 C   0  0  2  0  0  0  0  0  0  0  0  0
    3.3677   -4.6294    4.4888 C   0  0  0  0  0  0  0  0  0  0  0  0
    2.8112   -6.0928    4.4241 C   0  0  2  0  0  0  0  0  0  0  0  0
    1.5700   -5.7555    5.3003 C   0  0  1  0  0  0  0  0  0  0  0  0
    1.9046   -5.6555    6.6763 O   0  0  0  0  0  0  0  0  0  0  0  0
    1.1153   -4.3740    4.6705 C   0  0  1  0  0  0  0  0  0  0  0  0
    0.7075   -3.3112    5.7126 C   0  0  0  0  0  0  0  0  0  0  0  0
    3.9180   -7.1059    4.8565 C   0  0  2  0  0  0  0  0  0  0  0  0
    5.3340   -6.5023    5.0883 C   0  0  0  0  0  0  0  0  0  0  0  0
    6.2131   -5.9284    3.9160 C   0  0  0  0  0  0  0  0  0  0  0  0
    5.7152   -5.4531    2.4913 C   0  0  1  0  0  0  0  0  0  0  0  0
    6.9527   -5.3851    1.8020 O   0  0  0  0  0  0  0  0  0  0  0  0
    4.5941   -6.1799    1.6173 C   0  0  1  0  0  0  0  0  0  0  0  0
    4.9052   -5.7771    0.1251 C   0  0  0  0  0  0  0  0  0  0  0  0
    4.8678   -7.7383    1.5977 C   0  0  1  0  0  0  0  0  0  0  0  0
    5.0910   -8.5063    2.9223 C   0  0  0  0  0  0  0  0  0  0  0  0
    3.9148   -8.3215    3.8916 C   0  0  2  0  0  0  0  0  0  0  0  0
    2.6541   -8.1755    3.0571 C   0  0  2  0  0  0  0  0  0  0  0  0
    2.7486   -8.8924    1.6802 C   0  0  0  0  0  0  0  0  0  0  0  0
    3.8292   -8.4019    0.8786 O   0  0  0  0  0  0  0  0  0  0  0  0
    2.3076   -6.6628    3.0204 C   0  0  1  0  0  0  0  0  0  0  0  0
    0.7427   -6.7194    2.7435 C   0  0  0  0  0  0  0  0  0  0  0  0
    3.0206   -5.7862    1.9376 C   0  0  1  0  0  0  0  0  0  0  0  0
    2.2916   -6.0352    0.7406 O   0  0  0  0  0  0  0  0  0  0  0  0
    3.3101   -0.6187   -3.0041 H   0  0  0  0  0  0  0  0  0  0  0  0
    2.5923   -2.0475   -2.3096 H   0  0  0  0  0  0  0  0  0  0  0  0
    4.1960   -2.1443   -3.0482 H   0  0  0  0  0  0  0  0  0  0  0  0
    4.9098   -0.3202   -1.2544 H   0  0  0  0  0  0  0  0  0  0  0  0
    4.2630   -0.7123    2.0259 H   0  0  0  0  0  0  0  0  0  0  0  0
    5.5777   -0.2962    0.9324 H   0  0  0  0  0  0  0  0  0  0  0  0
    5.5641   -1.8696    1.7114 H   0  0  0  0  0  0  0  0  0  0  0  0
    1.5515   -4.1314    1.8255 H   0  0  0  0  0  0  0  0  0  0  0  0
    2.4485   -2.8025    3.9024 H   0  0  0  0  0  0  0  0  0  0  0  0
    4.3130   -4.3691    4.0843 H   0  0  0  0  0  0  0  0  0  0  0  0
    3.4887   -4.2651    5.5100 H   0  0  0  0  0  0  0  0  0  0  0  0
    0.7876   -6.5073    5.3030 H   0  0  0  0  0  0  0  0  0  0  0  0
    2.1890   -6.5076    6.9734 H   0  0  0  0  0  0  0  0  0  0  0  0
    0.2242   -4.4853    4.0642 H   0  0  0  0  0  0  0  0  0  0  0  0
    1.5341   -3.0292    6.3660 H   0  0  0  0  0  0  0  0  0  0  0  0
   -0.1079   -3.6637    6.3430 H   0  0  0  0  0  0  0  0  0  0  0  0
    0.3670   -2.4024    5.2178 H   0  0  0  0  0  0  0  0  0  0  0  0
    3.6049   -7.5019    5.8225 H   0  0  0  0  0  0  0  0  0  0  0  0
    5.2649   -5.7474    5.8729 H   0  0  0  0  0  0  0  0  0  0  0  0
    5.9298   -7.2826    5.5647 H   0  0  0  0  0  0  0  0  0  0  0  0
    6.7114   -5.0601    4.3499 H   0  0  0  0  0  0  0  0  0  0  0  0
    7.0560   -6.6089    3.7865 H   0  0  0  0  0  0  0  0  0  0  0  0
    5.4814   -4.3912    2.5016 H   0  0  0  0  0  0  0  0  0  0  0  0
    6.8003   -4.9579    0.9732 H   0  0  0  0  0  0  0  0  0  0  0  0
    4.2454   -6.2444   -0.6042 H   0  0  0  0  0  0  0  0  0  0  0  0
    5.8858   -6.1118   -0.2090 H   0  0  0  0  0  0  0  0  0  0  0  0
    4.9098   -4.7067   -0.0409 H   0  0  0  0  0  0  0  0  0  0  0  0
    5.7771   -7.9144    1.0207 H   0  0  0  0  0  0  0  0  0  0  0  0
    5.1418   -9.5646    2.6585 H   0  0  0  0  0  0  0  0  0  0  0  0
    6.0641   -8.3607    3.3731 H   0  0  0  0  0  0  0  0  0  0  0  0
    3.8595   -9.2322    4.4920 H   0  0  0  0  0  0  0  0  0  0  0  0
    1.8767   -8.6885    3.6267 H   0  0  0  0  0  0  0  0  0  0  0  0
    2.9067   -9.9589    1.8426 H   0  0  0  0  0  0  0  0  0  0  0  0
    1.8282   -8.8232    1.1007 H   0  0  0  0  0  0  0  0  0  0  0  0
    0.5110   -7.3184    1.8635 H   0  0  0  0  0  0  0  0  0  0  0  0
    0.2891   -5.7640    2.5103 H   0  0  0  0  0  0  0  0  0  0  0  0
    0.1569   -7.2115    3.5183 H   0  0  0  0  0  0  0  0  0  0  0  0
    2.7151   -5.5736    0.0310 H   0  0  0  0  0  0  0  0  0  0  0  0
  1  2  1  0
  1 33  1  0
  1 34  1  0
  1 35  1  0
  2  3  2  3
  2 36  1  0
  3  4  1  0
  3  5  1  0
  4 37  1  0
  4 38  1  0
  4 39  1  0
  5  6  2  0
  5  7  1  0
  7  8  1  0
  8 31  1  0
  8  9  1  0
  8 40  1  6
  9 14  1  0
  9 10  1  0
  9 41  1  6
 11 10  1  6
 10 42  1  0
 10 43  1  0
 11 29  1  0
 11 12  1  0
 11 16  1  0
 12 13  1  0
 12 14  1  0
 12 44  1  1
 13 45  1  0
 14 15  1  0
 14 46  1  6
 15 47  1  0
 15 48  1  0
 15 49  1  0
 16 25  1  0
 16 17  1  0
 16 50  1  1
 17 18  1  0
 17 51  1  0
 17 52  1  0
 18 19  1  0
 18 53  1  0
 18 54  1  0
 19 20  1  0
 19 21  1  0
 19 55  1  1
 20 56  1  0
 21 31  1  0
 21 22  1  6
 21 23  1  0
 22 57  1  0
 22 58  1  0
 22 59  1  0
 23 28  1  0
 23 24  1  0
 23 60  1  6
 24 25  1  0
 24 61  1  0
 24 62  1  0
 25 26  1  0
 25 63  1  1
 26 27  1  0
 26 29  1  0
 26 64  1  1
 27 28  1  0
 27 65  1  0
 27 66  1  0
 29 30  1  1
 29 31  1  0
 30 67  1  0
 30 68  1  0
 30 69  1  0
 31 32  1  6
 32 70  1  0
M  END
>  <i_m_ct_stereo_status>  (325) 
1

>  <s_m_source_file>  (325) 
/var/tmp/pbs.5076255.sched01/tmpt85fkz7r/123fjz13bl5.sdf

>  <i_m_source_file_index>  (325) 
34

>  <i_lp_mmshare_version>  (325) 
48012

>  <i_f3d_flags>  (325) 
0

>  <s_epik_input>  (325) 
W0NIM10vW0NIXT1DKFxbQ0gzXSlDKD1PKU9bQ0BIXShbQ0BIXShbQ0gyXTEpW0NASF0oW0NIM10pW0NAQEhdMltPSF0pW0NAQF0oW09IXSkoW0NAQF0oW0NIM10pKFtDQEhdKFtPSF0pW0NIMl1bQ0gyXTMpW0NAQEhdKFtDSDJdNClPW0NIMl01KVtDQEBdNihbQ0gzXSlbQ0BASF01W0NAQEhdNFtDQEBIXTNbQ0BdMTI2

>  <s_epik_cmdline>  (325) 
J2VwaWtfcHl0aG9uJywgJy1waHQnLCAnMi4wJywgJy1waCcsICc3LjAnLCAnLXRuJywgJzgnLCAnLW1hJywgJzIwMCcsICctaW1hZScsICc8aW5maWxlLm1hZT4nLCAnLW9tYWUnLCAnPG91dGZpbGUubWFlPic=

>  <r_lp_tautomer_probability>  (325) 
1

>  <r_epik_Ionization_Penalty>  (325) 
1.47969e-06

>  <r_epik_Ionization_Penalty_Charging>  (325) 
0

>  <r_epik_Ionization_Penalty_Neutral>  (325) 
1.47969e-06

>  <r_epik_State_Penalty>  (325) 
-0

>  <r_epik_Charging_Adjusted_Penalty>  (325) 
0

>  <i_epik_Tot_Q>  (325) 
0

>  <i_epik_Tot_abs_Q>  (325) 
0

>  <s_epik_Chemistry_Notes>  (325) 
This compound has an ester and may undergo hydrolysis at high or low pH.

>  <s_lp_Force_Field>  (325) 
OPLS3e

>  <r_lp_Energy>  (325) 
157.825

>  <b_lp_Chiralities_Consistent>  (325) 
1

>  <s_lp_Variant>  (325) 
111:0-2

>  <s_i_glide_gridfile>  (325) 
pfpi4k_grid

>  <i_i_glide_lignum>  (325) 
34

>  <i_i_glide_rotatable_bonds>  (325) 
6

>  <r_i_docking_score>  (325) 
-2.6469

>  <r_i_glide_ligand_efficiency>  (325) 
-0.0827158

>  <r_i_glide_ligand_efficiency_sa>  (325) 
-0.262606

>  <r_i_glide_ligand_efficiency_ln>  (325) 
-0.592714

>  <r_i_glide_gscore>  (325) 
-2.6469

>  <r_i_glide_lipo>  (325) 
-0.291109

>  <r_i_glide_hbond>  (325) 
0

>  <r_i_glide_metal>  (325) 
-0

>  <r_i_glide_rewards>  (325) 
-0.864252

>  <r_i_glide_evdw>  (325) 
-28.4985

>  <r_i_glide_ecoul>  (325) 
-2.27414

>  <r_i_glide_erotb>  (325) 
0.301121

>  <r_i_glide_esite>  (325) 
-0.0266173

>  <r_i_glide_emodel>  (325) 
-38.4848

>  <r_i_glide_energy>  (325) 
-30.7726

>  <r_i_glide_einternal>  (325) 
3.54243

>  <r_i_glide_intrahb_reward>  (325) 
-0.5

>  <i_i_glide_confnum>  (325) 
2

>  <i_i_glide_posenum>  (325) 
6

>  <r_i_glide_eff_state_penalty>  (325) 
0

>  <ligand_id>  (325) 
111

>  <original_smiles>  (325) 
CC=C(C)C(=O)OC1C2CC3(C(O)C2C)C2CCC(O)C4(C)C5CC2C(CO5)C3(C)C14O

>  <smiles>  (325) 
[H]OC1([H])C([H])([H])C([H])([H])C2([H])C3([H])C([H])([H])C4([H])OC([H])([H])C3([H])C3(C([H])([H])[H])C(O[H])(C([H])(OC(=O)C(=C([H])C([H])([H])[H])C([H])([H])[H])C5([H])C([H])([H])C23C([H])(O[H])C5([H])C([H])([H])[H])C14C([H])([H])[H]

$$$$
112:0:0
     RDKit          3D

 52 57  0  0  1  0  0  0  0  0999 V2000
    0.7409   -7.9280    4.4891 C   0  0  0  0  0  0  0  0  0  0  0  0
    1.0520   -7.4096    3.0725 C   0  0  0  0  0  0  0  0  0  0  0  0
    0.8735   -8.5661    2.0884 C   0  0  0  0  0  0  0  0  0  0  0  0
    0.2340   -6.2726    2.5267 O   0  0  0  0  0  0  0  0  0  0  0  0
    1.1793   -5.3612    3.1527 C   0  0  2  0  0  0  0  0  0  0  0  0
    0.6585   -5.0475    4.4344 O   0  0  0  0  0  0  0  0  0  0  0  0
    1.9523   -4.0704    2.7270 C   0  0  1  0  0  0  0  0  0  0  0  0
    2.7145   -3.8080    3.9443 O   0  0  0  0  0  0  0  0  0  0  0  0
    3.5586   -4.9086    4.4269 C   0  0  2  0  0  0  0  0  0  0  0  0
    5.0297   -4.4927    4.3544 C   0  0  0  0  0  0  0  0  0  0  0  0
    5.4328   -4.2532    2.8171 C   0  0  1  0  0  0  0  0  0  0  0  0
    5.3252   -3.0032    3.4429 O   0  0  0  0  0  0  0  0  0  0  0  0
    4.2293   -5.1856    2.3233 C   0  0  1  0  0  0  0  0  0  0  0  0
    3.5792   -6.0634    3.4307 C   0  0  2  0  0  0  0  0  0  0  0  0
    2.2033   -6.4451    2.8952 C   0  0  1  0  0  0  0  0  0  0  0  0
    3.1177   -4.2811    1.6708 C   0  0  2  0  0  0  0  0  0  0  0  0
    3.8585   -3.0124    1.2404 C   0  0  2  0  0  0  0  0  0  0  0  0
    3.5839   -2.4988   -0.1835 C   0  0  0  0  0  0  0  0  0  0  0  0
    4.3128   -1.1669   -0.4193 C   0  0  0  0  0  0  0  0  0  0  0  0
    5.8224   -1.2701   -0.1426 C   0  0  0  0  0  0  0  0  0  0  0  0
    6.1585   -1.9015    1.2417 C   0  0  1  0  0  0  0  0  0  0  0  0
    5.8965   -0.8085    2.1144 O   0  0  0  0  0  0  0  0  0  0  0  0
    5.3724   -3.2874    1.5000 C   0  0  1  0  0  0  0  0  0  0  0  0
    6.0106   -4.2258    0.4099 C   0  0  0  0  0  0  0  0  0  0  0  0
    1.2552   -8.8725    4.6625 H   0  0  0  0  0  0  0  0  0  0  0  0
   -0.3236   -8.0967    4.6356 H   0  0  0  0  0  0  0  0  0  0  0  0
    1.1050   -7.2732    5.2765 H   0  0  0  0  0  0  0  0  0  0  0  0
    1.5737   -9.3814    2.2741 H   0  0  0  0  0  0  0  0  0  0  0  0
    1.0026   -8.2501    1.0543 H   0  0  0  0  0  0  0  0  0  0  0  0
   -0.1316   -8.9752    2.1743 H   0  0  0  0  0  0  0  0  0  0  0  0
    1.4143   -4.7602    4.9400 H   0  0  0  0  0  0  0  0  0  0  0  0
    1.2976   -3.2371    2.4814 H   0  0  0  0  0  0  0  0  0  0  0  0
    3.2650   -5.2459    5.4224 H   0  0  0  0  0  0  0  0  0  0  0  0
    5.3356   -3.9120    5.2524 H   0  0  0  0  0  0  0  0  0  0  0  0
    5.5837   -5.3969    4.6140 H   0  0  0  0  0  0  0  0  0  0  0  0
    4.6136   -2.5140    3.0549 H   0  0  0  0  0  0  0  0  0  0  0  0
    4.5901   -5.9094    1.5898 H   0  0  0  0  0  0  0  0  0  0  0  0
    4.1812   -6.9196    3.7394 H   0  0  0  0  0  0  0  0  0  0  0  0
    2.3610   -6.6076    1.8292 H   0  0  0  0  0  0  0  0  0  0  0  0
    2.7302   -4.7597    0.7702 H   0  0  0  0  0  0  0  0  0  0  0  0
    3.5281   -2.2093    1.9027 H   0  0  0  0  0  0  0  0  0  0  0  0
    3.8782   -3.2283   -0.9399 H   0  0  0  0  0  0  0  0  0  0  0  0
    2.5150   -2.3404   -0.3035 H   0  0  0  0  0  0  0  0  0  0  0  0
    4.1490   -0.8370   -1.4443 H   0  0  0  0  0  0  0  0  0  0  0  0
    3.8772   -0.4014    0.2250 H   0  0  0  0  0  0  0  0  0  0  0  0
    6.2803   -1.8156   -0.9629 H   0  0  0  0  0  0  0  0  0  0  0  0
    6.2475   -0.2668   -0.2054 H   0  0  0  0  0  0  0  0  0  0  0  0
    7.2301   -2.0963    1.2792 H   0  0  0  0  0  0  0  0  0  0  0  0
    6.6432   -0.2162    2.0753 H   0  0  0  0  0  0  0  0  0  0  0  0
    6.6038   -3.7334   -0.3502 H   0  0  0  0  0  0  0  0  0  0  0  0
    5.2740   -4.8157   -0.1333 H   0  0  0  0  0  0  0  0  0  0  0  0
    6.7130   -4.9258    0.8646 H   0  0  0  0  0  0  0  0  0  0  0  0
  1  2  1  0
  1 25  1  0
  1 26  1  0
  1 27  1  0
  2 15  1  0
  2  3  1  0
  2  4  1  0
  3 28  1  0
  3 29  1  0
  3 30  1  0
  4  5  1  0
  5 15  1  0
  5  6  1  1
  5  7  1  0
  6 31  1  0
  7 16  1  0
  7  8  1  0
  7 32  1  6
  8  9  1  0
  9 14  1  0
  9 10  1  0
  9 33  1  1
 10 11  1  0
 10 34  1  0
 10 35  1  0
 11 23  1  0
 11 12  1  1
 11 13  1  0
 12 36  1  0
 13 14  1  0
 13 16  1  0
 13 37  1  6
 14 15  1  0
 14 38  1  1
 15 39  1  6
 16 17  1  0
 16 40  1  6
 17 23  1  0
 17 18  1  0
 17 41  1  1
 18 19  1  0
 18 42  1  0
 18 43  1  0
 19 20  1  0
 19 44  1  0
 19 45  1  0
 20 21  1  0
 20 46  1  0
 20 47  1  0
 21 22  1  0
 21 23  1  0
 21 48  1  6
 22 49  1  0
 23 24  1  6
 24 50  1  0
 24 51  1  0
 24 52  1  0
M  END
>  <i_m_ct_stereo_status>  (326) 
1

>  <s_m_source_file>  (326) 
/var/tmp/pbs.5076255.sched01/tmpt85fkz7r/123fjz13bl5.sdf

>  <i_m_source_file_index>  (326) 
35

>  <i_lp_mmshare_version>  (326) 
48012

>  <i_f3d_flags>  (326) 
0

>  <s_epik_input>  (326) 
W0NIM11DKE8xKShbQ0gzXSlbQ0BASF0yW0NAQEhdM1tDQEhdKE80KVtDSDJdW0NAXShbT0hdKShbQ0BASF0zW0NASF01W0NASF00W0NAQF0xMltPSF0pW0NAQF02KFtDSDNdKVtDQEhdNVtDSDJdW0NIMl1bQ0gyXVtDQEhdNltPSF0=

>  <s_epik_cmdline>  (326) 
J2VwaWtfcHl0aG9uJywgJy1waHQnLCAnMi4wJywgJy1waCcsICc3LjAnLCAnLXRuJywgJzgnLCAnLW1hJywgJzIwMCcsICctaW1hZScsICc8aW5maWxlLm1hZT4nLCAnLW9tYWUnLCAnPG91dGZpbGUubWFlPic=

>  <r_lp_tautomer_probability>  (326) 
1

>  <r_epik_Ionization_Penalty>  (326) 
3.11254e-06

>  <r_epik_Ionization_Penalty_Charging>  (326) 
0

>  <r_epik_Ionization_Penalty_Neutral>  (326) 
3.11254e-06

>  <r_epik_State_Penalty>  (326) 
-0

>  <r_epik_Charging_Adjusted_Penalty>  (326) 
0

>  <i_epik_Tot_Q>  (326) 
0

>  <i_epik_Tot_abs_Q>  (326) 
0

>  <s_lp_Force_Field>  (326) 
OPLS3e

>  <r_lp_Energy>  (326) 
243.31

>  <b_lp_Chiralities_Consistent>  (326) 
1

>  <s_lp_Variant>  (326) 
112:0-1

>  <s_i_glide_gridfile>  (326) 
pfpi4k_grid

>  <i_i_glide_lignum>  (326) 
35

>  <i_i_glide_rotatable_bonds>  (326) 
3

>  <r_i_docking_score>  (326) 
-3.10128

>  <r_i_glide_ligand_efficiency>  (326) 
-0.12922

>  <r_i_glide_ligand_efficiency_sa>  (326) 
-0.372735

>  <r_i_glide_ligand_efficiency_ln>  (326) 
-0.742279

>  <r_i_glide_gscore>  (326) 
-3.10128

>  <r_i_glide_lipo>  (326) 
-0.312854

>  <r_i_glide_hbond>  (326) 
-0.141368

>  <r_i_glide_metal>  (326) 
-0

>  <r_i_glide_rewards>  (326) 
-1.1153

>  <r_i_glide_evdw>  (326) 
-15.5758

>  <r_i_glide_ecoul>  (326) 
-4.80267

>  <r_i_glide_erotb>  (326) 
0

>  <r_i_glide_esite>  (326) 
-0.0325695

>  <r_i_glide_emodel>  (326) 
-23.703

>  <r_i_glide_energy>  (326) 
-20.3785

>  <r_i_glide_einternal>  (326) 
1.24117

>  <r_i_glide_intrahb_reward>  (326) 
-0

>  <i_i_glide_confnum>  (326) 
2

>  <i_i_glide_posenum>  (326) 
8

>  <r_i_glide_eff_state_penalty>  (326) 
0

>  <ligand_id>  (326) 
112

>  <original_smiles>  (326) 
CC1(C)OC2(O)C3OC4CC5(O)C(C4C12)C3C1CCCC(O)C15C

>  <smiles>  (326) 
[H]OC1([H])C([H])([H])C([H])([H])C([H])([H])C2([H])C3([H])C4([H])OC5([H])C([H])([H])C(O[H])(C3([H])C5([H])C3([H])C4(O[H])OC3(C([H])([H])[H])C([H])([H])[H])C12C([H])([H])[H]

$$$$
112:0:1
     RDKit          3D

 52 57  0  0  1  0  0  0  0  0999 V2000
    3.6228   -6.6471    4.2572 C   0  0  0  0  0  0  0  0  0  0  0  0
    3.6048   -6.7906    2.7327 C   0  0  0  0  0  0  0  0  0  0  0  0
    4.0371   -8.2119    2.3555 C   0  0  0  0  0  0  0  0  0  0  0  0
    2.3152   -6.5774    1.9906 O   0  0  0  0  0  0  0  0  0  0  0  0
    2.6250   -5.1539    1.9469 C   0  0  2  0  0  0  0  0  0  0  0  0
    2.0282   -4.5631    3.0878 O   0  0  0  0  0  0  0  0  0  0  0  0
    2.6409   -4.0164    0.8541 C   0  0  1  0  0  0  0  0  0  0  0  0
    3.1265   -2.8904    1.6476 O   0  0  0  0  0  0  0  0  0  0  0  0
    4.4221   -3.1124    2.2911 C   0  0  2  0  0  0  0  0  0  0  0  0
    5.4317   -2.1490    1.6718 C   0  0  0  0  0  0  0  0  0  0  0  0
    5.6528   -2.5138    0.1219 C   0  0  1  0  0  0  0  0  0  0  0  0
    4.9236   -1.3125    0.1770 O   0  0  0  0  0  0  0  0  0  0  0  0
    5.1342   -4.0070    0.3831 C   0  0  1  0  0  0  0  0  0  0  0  0
    5.0437   -4.4455    1.8780 C   0  0  2  0  0  0  0  0  0  0  0  0
    4.0659   -5.6135    1.9043 C   0  0  1  0  0  0  0  0  0  0  0  0
    3.7116   -4.1533   -0.2656 C   0  0  2  0  0  0  0  0  0  0  0  0
    3.6196   -3.0692   -1.3467 C   0  0  2  0  0  0  0  0  0  0  0  0
    3.0783   -3.4625   -2.7409 C   0  0  0  0  0  0  0  0  0  0  0  0
    2.9854   -2.2433   -3.6681 C   0  0  0  0  0  0  0  0  0  0  0  0
    4.3393   -1.5411   -3.7699 C   0  0  0  0  0  0  0  0  0  0  0  0
    5.0254   -1.2808   -2.3973 C   0  0  1  0  0  0  0  0  0  0  0  0
    4.2413   -0.2576   -2.0753 O   0  0  0  0  0  0  0  0  0  0  0  0
    5.0552   -2.5146   -1.4045 C   0  0  1  0  0  0  0  0  0  0  0  0
    6.0874   -3.4054   -2.1607 C   0  0  0  0  0  0  0  0  0  0  0  0
    4.5670   -7.0337    4.6491 H   0  0  0  0  0  0  0  0  0  0  0  0
    2.8062   -7.1986    4.7294 H   0  0  0  0  0  0  0  0  0  0  0  0
    3.5893   -5.6053    4.5884 H   0  0  0  0  0  0  0  0  0  0  0  0
    5.0706   -8.4137    2.6554 H   0  0  0  0  0  0  0  0  0  0  0  0
    3.9422   -8.4125    1.2895 H   0  0  0  0  0  0  0  0  0  0  0  0
    3.3942   -8.9328    2.8673 H   0  0  0  0  0  0  0  0  0  0  0  0
    2.5362   -3.7872    3.2620 H   0  0  0  0  0  0  0  0  0  0  0  0
    1.7119   -3.8176    0.3422 H   0  0  0  0  0  0  0  0  0  0  0  0
    4.3497   -3.0306    3.3731 H   0  0  0  0  0  0  0  0  0  0  0  0
    5.3876   -1.1501    2.1651 H   0  0  0  0  0  0  0  0  0  0  0  0
    6.3797   -2.4545    2.1122 H   0  0  0  0  0  0  0  0  0  0  0  0
    4.0215   -1.4859   -0.0625 H   0  0  0  0  0  0  0  0  0  0  0  0
    5.7935   -4.7283   -0.0969 H   0  0  0  0  0  0  0  0  0  0  0  0
    6.0190   -4.6596    2.3219 H   0  0  0  0  0  0  0  0  0  0  0  0
    4.2639   -6.1644    0.9916 H   0  0  0  0  0  0  0  0  0  0  0  0
    3.5981   -5.1355   -0.7127 H   0  0  0  0  0  0  0  0  0  0  0  0
    2.9346   -2.2974   -0.9885 H   0  0  0  0  0  0  0  0  0  0  0  0
    3.7168   -4.1910   -3.2127 H   0  0  0  0  0  0  0  0  0  0  0  0
    2.0831   -3.8638   -2.6396 H   0  0  0  0  0  0  0  0  0  0  0  0
    2.6598   -2.5666   -4.6548 H   0  0  0  0  0  0  0  0  0  0  0  0
    2.2325   -1.5633   -3.2896 H   0  0  0  0  0  0  0  0  0  0  0  0
    4.9990   -2.1560   -4.3370 H   0  0  0  0  0  0  0  0  0  0  0  0
    4.2096   -0.6026   -4.3214 H   0  0  0  0  0  0  0  0  0  0  0  0
    5.9898   -0.7832   -2.3581 H   0  0  0  0  0  0  0  0  0  0  0  0
    4.7135    0.2717   -1.4321 H   0  0  0  0  0  0  0  0  0  0  0  0
    6.3175   -3.0982   -3.1746 H   0  0  0  0  0  0  0  0  0  0  0  0
    5.7271   -4.4260   -2.2290 H   0  0  0  0  0  0  0  0  0  0  0  0
    7.0617   -3.3715   -1.6677 H   0  0  0  0  0  0  0  0  0  0  0  0
  1  2  1  0
  1 25  1  0
  1 26  1  0
  1 27  1  0
  2 15  1  0
  2  3  1  0
  2  4  1  0
  3 28  1  0
  3 29  1  0
  3 30  1  0
  4  5  1  0
  5 15  1  0
  5  6  1  1
  5  7  1  0
  6 31  1  0
  7 16  1  0
  7  8  1  0
  7 32  1  6
  8  9  1  0
  9 14  1  0
  9 10  1  0
  9 33  1  1
 10 11  1  0
 10 34  1  0
 10 35  1  0
 11 23  1  0
 11 12  1  6
 11 13  1  0
 12 36  1  0
 13 14  1  0
 13 16  1  0
 13 37  1  6
 14 15  1  0
 14 38  1  1
 15 39  1  6
 16 17  1  0
 16 40  1  6
 17 23  1  0
 17 18  1  0
 17 41  1  1
 18 19  1  0
 18 42  1  0
 18 43  1  0
 19 20  1  0
 19 44  1  0
 19 45  1  0
 20 21  1  0
 20 46  1  0
 20 47  1  0
 21 22  1  0
 21 23  1  0
 21 48  1  6
 22 49  1  0
 23 24  1  6
 24 50  1  0
 24 51  1  0
 24 52  1  0
M  END
>  <i_m_ct_stereo_status>  (327) 
1

>  <s_m_source_file>  (327) 
/var/tmp/pbs.5076255.sched01/tmpt85fkz7r/123fjz13bl5.sdf

>  <i_m_source_file_index>  (327) 
35

>  <i_lp_mmshare_version>  (327) 
48012

>  <i_f3d_flags>  (327) 
0

>  <s_epik_input>  (327) 
W0NIM11DKE8xKShbQ0gzXSlbQ0BASF0yW0NAQEhdM1tDQEhdKE80KVtDSDJdW0NAXShbT0hdKShbQ0BASF0zW0NASF01W0NASF00W0NAQF0xMltPSF0pW0NAQF02KFtDSDNdKVtDQEhdNVtDSDJdW0NIMl1bQ0gyXVtDQEhdNltPSF0=

>  <s_epik_cmdline>  (327) 
J2VwaWtfcHl0aG9uJywgJy1waHQnLCAnMi4wJywgJy1waCcsICc3LjAnLCAnLXRuJywgJzgnLCAnLW1hJywgJzIwMCcsICctaW1hZScsICc8aW5maWxlLm1hZT4nLCAnLW9tYWUnLCAnPG91dGZpbGUubWFlPic=

>  <r_lp_tautomer_probability>  (327) 
1

>  <r_epik_Ionization_Penalty>  (327) 
3.11254e-06

>  <r_epik_Ionization_Penalty_Charging>  (327) 
0

>  <r_epik_Ionization_Penalty_Neutral>  (327) 
3.11254e-06

>  <r_epik_State_Penalty>  (327) 
-0

>  <r_epik_Charging_Adjusted_Penalty>  (327) 
0

>  <i_epik_Tot_Q>  (327) 
0

>  <i_epik_Tot_abs_Q>  (327) 
0

>  <s_lp_Force_Field>  (327) 
OPLS3e

>  <r_lp_Energy>  (327) 
243.31

>  <b_lp_Chiralities_Consistent>  (327) 
1

>  <s_lp_Variant>  (327) 
112:0-1

>  <s_i_glide_gridfile>  (327) 
pfpi4k_grid

>  <i_i_glide_lignum>  (327) 
35

>  <i_i_glide_rotatable_bonds>  (327) 
3

>  <r_i_docking_score>  (327) 
-2.74641

>  <r_i_glide_ligand_efficiency>  (327) 
-0.114434

>  <r_i_glide_ligand_efficiency_sa>  (327) 
-0.330084

>  <r_i_glide_ligand_efficiency_ln>  (327) 
-0.657341

>  <r_i_glide_gscore>  (327) 
-2.74641

>  <r_i_glide_lipo>  (327) 
-0.809204

>  <r_i_glide_hbond>  (327) 
0

>  <r_i_glide_metal>  (327) 
-0

>  <r_i_glide_rewards>  (327) 
-1.1153

>  <r_i_glide_evdw>  (327) 
-12.4098

>  <r_i_glide_ecoul>  (327) 
-1.25877

>  <r_i_glide_erotb>  (327) 
0

>  <r_i_glide_esite>  (327) 
-0.012595

>  <r_i_glide_emodel>  (327) 
-15.7651

>  <r_i_glide_energy>  (327) 
-13.6686

>  <r_i_glide_einternal>  (327) 
1.32808

>  <r_i_glide_intrahb_reward>  (327) 
-0

>  <i_i_glide_confnum>  (327) 
2

>  <i_i_glide_posenum>  (327) 
27

>  <r_i_glide_eff_state_penalty>  (327) 
0

>  <ligand_id>  (327) 
112

>  <original_smiles>  (327) 
CC1(C)OC2(O)C3OC4CC5(O)C(C4C12)C3C1CCCC(O)C15C

>  <smiles>  (327) 
[H]OC1([H])C([H])([H])C([H])([H])C([H])([H])C2([H])C3([H])C4([H])OC5([H])C([H])([H])C(O[H])(C3([H])C5([H])C3([H])C4(O[H])OC3(C([H])([H])[H])C([H])([H])[H])C12C([H])([H])[H]

$$$$
112:0:2
     RDKit          3D

 52 57  0  0  1  0  0  0  0  0999 V2000
    1.2759   -7.6805    4.6640 C   0  0  0  0  0  0  0  0  0  0  0  0
    1.3417   -7.3221    3.1646 C   0  0  0  0  0  0  0  0  0  0  0  0
    1.0193   -8.5843    2.3566 C   0  0  0  0  0  0  0  0  0  0  0  0
    0.4298   -6.2560    2.6351 O   0  0  0  0  0  0  0  0  0  0  0  0
    1.4456   -5.2760    2.9948 C   0  0  2  0  0  0  0  0  0  0  0  0
    1.1234   -4.8108    4.3001 O   0  0  0  0  0  0  0  0  0  0  0  0
    2.1161   -4.0431    2.3021 C   0  0  1  0  0  0  0  0  0  0  0  0
    3.0732   -3.6270    3.3164 O   0  0  0  0  0  0  0  0  0  0  0  0
    3.9771   -4.6775    3.8039 C   0  0  2  0  0  0  0  0  0  0  0  0
    5.4108   -4.2793    3.4619 C   0  0  0  0  0  0  0  0  0  0  0  0
    5.5695   -4.2130    1.8617 C   0  0  1  0  0  0  0  0  0  0  0  0
    5.5493   -2.8981    2.3393 O   0  0  0  0  0  0  0  0  0  0  0  0
    4.3200   -5.1981    1.6704 C   0  0  1  0  0  0  0  0  0  0  0  0
    3.8658   -5.9425    2.9573 C   0  0  2  0  0  0  0  0  0  0  0  0
    2.4331   -6.3862    2.6937 C   0  0  1  0  0  0  0  0  0  0  0  0
    3.1005   -4.3726    1.1029 C   0  0  2  0  0  0  0  0  0  0  0  0
    3.7352   -3.1569    0.4245 C   0  0  2  0  0  0  0  0  0  0  0  0
    3.2284   -2.8113   -0.9869 C   0  0  0  0  0  0  0  0  0  0  0  0
    3.8829   -1.5134   -1.4830 C   0  0  0  0  0  0  0  0  0  0  0  0
    5.4212   -1.5838   -1.4455 C   0  0  0  0  0  0  0  0  0  0  0  0
    5.9857   -2.0507   -0.0660 C   0  0  1  0  0  0  0  0  0  0  0  0
    5.8466   -0.8564    0.6967 O   0  0  0  0  0  0  0  0  0  0  0  0
    5.2735   -3.3963    0.4723 C   0  0  1  0  0  0  0  0  0  0  0  0
    5.7407   -4.4500   -0.5941 C   0  0  0  0  0  0  0  0  0  0  0  0
    1.8267   -8.6028    4.8504 H   0  0  0  0  0  0  0  0  0  0  0  0
    0.2541   -7.8368    5.0061 H   0  0  0  0  0  0  0  0  0  0  0  0
    1.7607   -6.9483    5.3079 H   0  0  0  0  0  0  0  0  0  0  0  0
    1.7590   -9.3698    2.5095 H   0  0  0  0  0  0  0  0  0  0  0  0
    0.9684   -8.3852    1.2873 H   0  0  0  0  0  0  0  0  0  0  0  0
    0.0519   -8.9904    2.6487 H   0  0  0  0  0  0  0  0  0  0  0  0
    0.9400   -5.5836    4.8133 H   0  0  0  0  0  0  0  0  0  0  0  0
    1.4175   -3.2379    2.0825 H   0  0  0  0  0  0  0  0  0  0  0  0
    3.8300   -4.8841    4.8640 H   0  0  0  0  0  0  0  0  0  0  0  0
    5.8155   -3.5868    4.2321 H   0  0  0  0  0  0  0  0  0  0  0  0
    6.0184   -5.1443    3.7398 H   0  0  0  0  0  0  0  0  0  0  0  0
    4.7152   -2.5107    2.1230 H   0  0  0  0  0  0  0  0  0  0  0  0
    4.5733   -5.9998    0.9762 H   0  0  0  0  0  0  0  0  0  0  0  0
    4.5253   -6.7578    3.2680 H   0  0  0  0  0  0  0  0  0  0  0  0
    2.4189   -6.6720    1.6397 H   0  0  0  0  0  0  0  0  0  0  0  0
    2.5782   -4.9504    0.3385 H   0  0  0  0  0  0  0  0  0  0  0  0
    3.4922   -2.2882    1.0406 H   0  0  0  0  0  0  0  0  0  0  0  0
    3.4112   -3.6223   -1.6925 H   0  0  0  0  0  0  0  0  0  0  0  0
    2.1517   -2.6720   -0.9538 H   0  0  0  0  0  0  0  0  0  0  0  0
    3.5441   -1.2998   -2.4959 H   0  0  0  0  0  0  0  0  0  0  0  0
    3.5355   -0.6822   -0.8671 H   0  0  0  0  0  0  0  0  0  0  0  0
    5.7497   -2.2157   -2.2668 H   0  0  0  0  0  0  0  0  0  0  0  0
    5.8117   -0.6007   -1.6994 H   0  0  0  0  0  0  0  0  0  0  0  0
    7.0575   -2.2351   -0.1552 H   0  0  0  0  0  0  0  0  0  0  0  0
    4.9262   -0.6523    0.7721 H   0  0  0  0  0  0  0  0  0  0  0  0
    6.1912   -4.0410   -1.4886 H   0  0  0  0  0  0  0  0  0  0  0  0
    4.9413   -5.1038   -0.9432 H   0  0  0  0  0  0  0  0  0  0  0  0
    6.5215   -5.0893   -0.1815 H   0  0  0  0  0  0  0  0  0  0  0  0
  1  2  1  0
  1 25  1  0
  1 26  1  0
  1 27  1  0
  2 15  1  0
  2  3  1  0
  2  4  1  0
  3 28  1  0
  3 29  1  0
  3 30  1  0
  4  5  1  0
  5 15  1  0
  5  6  1  1
  5  7  1  0
  6 31  1  0
  7 16  1  0
  7  8  1  0
  7 32  1  6
  8  9  1  0
  9 14  1  0
  9 10  1  0
  9 33  1  1
 10 11  1  0
 10 34  1  0
 10 35  1  0
 11 23  1  0
 11 12  1  1
 11 13  1  0
 12 36  1  0
 13 14  1  0
 13 16  1  0
 13 37  1  6
 14 15  1  0
 14 38  1  1
 15 39  1  6
 16 17  1  0
 16 40  1  6
 17 23  1  0
 17 18  1  0
 17 41  1  1
 18 19  1  0
 18 42  1  0
 18 43  1  0
 19 20  1  0
 19 44  1  0
 19 45  1  0
 20 21  1  0
 20 46  1  0
 20 47  1  0
 21 22  1  0
 21 23  1  0
 21 48  1  6
 22 49  1  0
 23 24  1  6
 24 50  1  0
 24 51  1  0
 24 52  1  0
M  END
>  <i_m_ct_stereo_status>  (328) 
1

>  <s_m_source_file>  (328) 
/var/tmp/pbs.5076255.sched01/tmpt85fkz7r/123fjz13bl5.sdf

>  <i_m_source_file_index>  (328) 
35

>  <i_lp_mmshare_version>  (328) 
48012

>  <i_f3d_flags>  (328) 
0

>  <s_epik_input>  (328) 
W0NIM11DKE8xKShbQ0gzXSlbQ0BASF0yW0NAQEhdM1tDQEhdKE80KVtDSDJdW0NAXShbT0hdKShbQ0BASF0zW0NASF01W0NASF00W0NAQF0xMltPSF0pW0NAQF02KFtDSDNdKVtDQEhdNVtDSDJdW0NIMl1bQ0gyXVtDQEhdNltPSF0=

>  <s_epik_cmdline>  (328) 
J2VwaWtfcHl0aG9uJywgJy1waHQnLCAnMi4wJywgJy1waCcsICc3LjAnLCAnLXRuJywgJzgnLCAnLW1hJywgJzIwMCcsICctaW1hZScsICc8aW5maWxlLm1hZT4nLCAnLW9tYWUnLCAnPG91dGZpbGUubWFlPic=

>  <r_lp_tautomer_probability>  (328) 
1

>  <r_epik_Ionization_Penalty>  (328) 
3.11254e-06

>  <r_epik_Ionization_Penalty_Charging>  (328) 
0

>  <r_epik_Ionization_Penalty_Neutral>  (328) 
3.11254e-06

>  <r_epik_State_Penalty>  (328) 
-0

>  <r_epik_Charging_Adjusted_Penalty>  (328) 
0

>  <i_epik_Tot_Q>  (328) 
0

>  <i_epik_Tot_abs_Q>  (328) 
0

>  <s_lp_Force_Field>  (328) 
OPLS3e

>  <r_lp_Energy>  (328) 
243.31

>  <b_lp_Chiralities_Consistent>  (328) 
1

>  <s_lp_Variant>  (328) 
112:0-1

>  <s_i_glide_gridfile>  (328) 
pfpi4k_grid

>  <i_i_glide_lignum>  (328) 
35

>  <i_i_glide_rotatable_bonds>  (328) 
3

>  <r_i_docking_score>  (328) 
-2.5215

>  <r_i_glide_ligand_efficiency>  (328) 
-0.105063

>  <r_i_glide_ligand_efficiency_sa>  (328) 
-0.303053

>  <r_i_glide_ligand_efficiency_ln>  (328) 
-0.603512

>  <r_i_glide_gscore>  (328) 
-2.5215

>  <r_i_glide_lipo>  (328) 
-0.136566

>  <r_i_glide_hbond>  (328) 
-0.0807549

>  <r_i_glide_metal>  (328) 
-0

>  <r_i_glide_rewards>  (328) 
-1.1153

>  <r_i_glide_evdw>  (328) 
-16.8522

>  <r_i_glide_ecoul>  (328) 
-2.12159

>  <r_i_glide_erotb>  (328) 
0

>  <r_i_glide_esite>  (328) 
-0.0280361

>  <r_i_glide_emodel>  (328) 
-22.1718

>  <r_i_glide_energy>  (328) 
-18.9738

>  <r_i_glide_einternal>  (328) 
0.14953

>  <r_i_glide_intrahb_reward>  (328) 
-0

>  <i_i_glide_confnum>  (328) 
2

>  <i_i_glide_posenum>  (328) 
4

>  <r_i_glide_eff_state_penalty>  (328) 
0

>  <ligand_id>  (328) 
112

>  <original_smiles>  (328) 
CC1(C)OC2(O)C3OC4CC5(O)C(C4C12)C3C1CCCC(O)C15C

>  <smiles>  (328) 
[H]OC1([H])C([H])([H])C([H])([H])C([H])([H])C2([H])C3([H])C4([H])OC5([H])C([H])([H])C(O[H])(C3([H])C5([H])C3([H])C4(O[H])OC3(C([H])([H])[H])C([H])([H])[H])C12C([H])([H])[H]

$$$$
114:0:0
     RDKit          3D

 72 76  0  0  1  0  0  0  0  0999 V2000
    1.9974    1.4522    4.8250 C   0  0  0  0  0  0  0  0  0  0  0  0
    1.7648    0.0524    4.8611 O   0  0  0  0  0  0  0  0  0  0  0  0
    2.9525   -0.7350    4.8501 C   0  0  2  0  0  0  0  0  0  0  0  0
    3.5497   -0.7925    3.4412 C   0  0  0  0  0  0  0  0  0  0  0  0
    3.9445   -2.2665    3.1186 C   0  0  2  0  0  0  0  0  0  0  0  0
    5.4403   -2.3346    2.6632 C   0  0  0  0  0  0  0  0  0  0  0  0
    5.7985   -2.0419    1.1739 C   0  0  1  0  0  0  0  0  0  0  0  0
    6.9296   -2.8148    0.8234 O   0  0  0  0  0  0  0  0  0  0  0  0
    4.6126   -2.2345    0.1879 C   0  0  1  0  0  0  0  0  0  0  0  0
    3.9770   -0.8222    0.0200 C   0  0  0  0  0  0  0  0  0  0  0  0
    4.9418   -2.6740   -1.2553 C   0  0  0  0  0  0  0  0  0  0  0  0
    3.6153   -3.2411   -1.7929 C   0  0  0  0  0  0  0  0  0  0  0  0
    2.7034   -3.4723   -0.5697 C   0  0  1  0  0  0  0  0  0  0  0  0
    1.9322   -4.6522   -0.7165 O   0  0  0  0  0  0  0  0  0  0  0  0
    3.6385   -3.3665    0.6721 C   0  0  1  0  0  0  0  0  0  0  0  0
    4.3558   -4.7493    0.8112 C   0  0  0  0  0  0  0  0  0  0  0  0
    2.9553   -2.9340    2.0286 C   0  0  1  0  0  0  0  0  0  0  0  0
    1.8974   -3.9917    2.5704 C   0  0  0  0  0  0  0  0  0  0  0  0
    2.2671   -4.9020    3.7881 C   0  0  1  0  0  0  0  0  0  0  0  0
    2.2915   -6.2891    3.4841 O   0  0  0  0  0  0  0  0  0  0  0  0
    1.1460   -6.9602    3.2611 C   0  0  0  0  0  0  0  0  0  0  0  0
    1.3819   -8.4590    3.1431 C   0  0  0  0  0  0  0  0  0  0  0  0
    0.0225   -6.4667    3.1461 O   0  0  0  0  0  0  0  0  0  0  0  0
    3.6368   -4.4993    4.2114 C   0  0  2  0  0  0  0  0  0  0  0  0
    4.4102   -4.6834    5.4968 C   0  0  0  0  0  0  0  0  0  0  0  0
    3.6401   -5.0666    6.7624 C   0  0  0  0  0  0  0  0  0  0  0  0
    5.6953   -5.5113    5.4350 C   0  0  0  0  0  0  0  0  0  0  0  0
    4.8033   -3.2601    5.4157 O   0  0  0  0  0  0  0  0  0  0  0  0
    3.7325   -3.0145    4.4549 C   0  0  1  0  0  0  0  0  0  0  0  0
    2.6323   -2.1880    5.1785 C   0  0  1  0  0  0  0  0  0  0  0  0
    2.5930   -2.3768    6.5886 O   0  0  0  0  0  0  0  0  0  0  0  0
    1.4346   -1.8601    7.2278 C   0  0  0  0  0  0  0  0  0  0  0  0
    1.0473    1.9854    4.8651 H   0  0  0  0  0  0  0  0  0  0  0  0
    2.5063    1.7468    3.9094 H   0  0  0  0  0  0  0  0  0  0  0  0
    2.5964    1.7730    5.6763 H   0  0  0  0  0  0  0  0  0  0  0  0
    3.6873   -0.3624    5.5685 H   0  0  0  0  0  0  0  0  0  0  0  0
    2.8034   -0.4050    2.7513 H   0  0  0  0  0  0  0  0  0  0  0  0
    4.3930   -0.1039    3.3824 H   0  0  0  0  0  0  0  0  0  0  0  0
    6.0177   -1.6352    3.2607 H   0  0  0  0  0  0  0  0  0  0  0  0
    5.8387   -3.3052    2.9480 H   0  0  0  0  0  0  0  0  0  0  0  0
    6.1508   -1.0119    1.1023 H   0  0  0  0  0  0  0  0  0  0  0  0
    6.6833   -3.7272    0.8679 H   0  0  0  0  0  0  0  0  0  0  0  0
    3.0156   -0.8141   -0.4837 H   0  0  0  0  0  0  0  0  0  0  0  0
    4.6305   -0.1869   -0.5729 H   0  0  0  0  0  0  0  0  0  0  0  0
    3.8554   -0.2877    0.9499 H   0  0  0  0  0  0  0  0  0  0  0  0
    5.3147   -1.8710   -1.8909 H   0  0  0  0  0  0  0  0  0  0  0  0
    5.6938   -3.4619   -1.2852 H   0  0  0  0  0  0  0  0  0  0  0  0
    3.1401   -2.5552   -2.4954 H   0  0  0  0  0  0  0  0  0  0  0  0
    3.8220   -4.1617   -2.3372 H   0  0  0  0  0  0  0  0  0  0  0  0
    1.9736   -2.6686   -0.5183 H   0  0  0  0  0  0  0  0  0  0  0  0
    2.3778   -5.1972   -1.3652 H   0  0  0  0  0  0  0  0  0  0  0  0
    3.6818   -5.5057    1.2100 H   0  0  0  0  0  0  0  0  0  0  0  0
    5.2257   -4.7338    1.4617 H   0  0  0  0  0  0  0  0  0  0  0  0
    4.7036   -5.1384   -0.1460 H   0  0  0  0  0  0  0  0  0  0  0  0
    2.2949   -2.1366    1.6938 H   0  0  0  0  0  0  0  0  0  0  0  0
    1.0026   -3.4384    2.8649 H   0  0  0  0  0  0  0  0  0  0  0  0
    1.5823   -4.6365    1.7538 H   0  0  0  0  0  0  0  0  0  0  0  0
    1.5576   -4.7262    4.5993 H   0  0  0  0  0  0  0  0  0  0  0  0
    1.8274   -8.8466    4.0605 H   0  0  0  0  0  0  0  0  0  0  0  0
    2.0667   -8.6562    2.3191 H   0  0  0  0  0  0  0  0  0  0  0  0
    0.4438   -8.9837    2.9586 H   0  0  0  0  0  0  0  0  0  0  0  0
    4.3347   -4.8000    3.4411 H   0  0  0  0  0  0  0  0  0  0  0  0
    3.6069   -6.1518    6.8774 H   0  0  0  0  0  0  0  0  0  0  0  0
    2.5986   -4.7442    6.7338 H   0  0  0  0  0  0  0  0  0  0  0  0
    4.1112   -4.6493    7.6538 H   0  0  0  0  0  0  0  0  0  0  0  0
    5.4710   -6.5748    5.3472 H   0  0  0  0  0  0  0  0  0  0  0  0
    6.2996   -5.3767    6.3320 H   0  0  0  0  0  0  0  0  0  0  0  0
    6.3155   -5.2424    4.5805 H   0  0  0  0  0  0  0  0  0  0  0  0
    1.6511   -2.4143    4.7608 H   0  0  0  0  0  0  0  0  0  0  0  0
    1.4455   -2.1291    8.2839 H   0  0  0  0  0  0  0  0  0  0  0  0
    0.5190   -2.2574    6.7877 H   0  0  0  0  0  0  0  0  0  0  0  0
    1.4035   -0.7732    7.1745 H   0  0  0  0  0  0  0  0  0  0  0  0
  1  2  1  0
  1 33  1  0
  1 34  1  0
  1 35  1  0
  2  3  1  0
  3 30  1  0
  3  4  1  0
  3 36  1  1
  5  4  1  1
  4 37  1  0
  4 38  1  0
  5 17  1  0
  5 29  1  0
  5  6  1  0
  6  7  1  0
  6 39  1  0
  6 40  1  0
  7  8  1  0
  7  9  1  0
  7 41  1  1
  8 42  1  0
  9 15  1  0
  9 10  1  6
  9 11  1  0
 10 43  1  0
 10 44  1  0
 10 45  1  0
 11 12  1  0
 11 46  1  0
 11 47  1  0
 12 13  1  0
 12 48  1  0
 12 49  1  0
 13 14  1  0
 13 15  1  0
 13 50  1  1
 14 51  1  0
 15 16  1  1
 15 17  1  0
 16 52  1  0
 16 53  1  0
 16 54  1  0
 17 18  1  0
 17 55  1  6
 18 19  1  0
 18 56  1  0
 18 57  1  0
 19 20  1  0
 19 24  1  0
 19 58  1  1
 20 21  1  0
 21 22  1  0
 21 23  2  0
 22 59  1  0
 22 60  1  0
 22 61  1  0
 24 29  1  0
 24 25  1  0
 24 62  1  6
 25 26  1  0
 25 27  1  0
 25 28  1  0
 26 63  1  0
 26 64  1  0
 26 65  1  0
 27 66  1  0
 27 67  1  0
 27 68  1  0
 29 28  1  1
 29 30  1  0
 30 31  1  0
 30 69  1  6
 31 32  1  0
 32 70  1  0
 32 71  1  0
 32 72  1  0
M  END
>  <i_m_ct_stereo_status>  (329) 
1

>  <s_m_source_file>  (329) 
/var/tmp/pbs.5076255.sched01/tmpt85fkz7r/123fjz13bl5.sdf

>  <i_m_source_file_index>  (329) 
37

>  <i_lp_mmshare_version>  (329) 
48012

>  <i_f3d_flags>  (329) 
0

>  <s_epik_input>  (329) 
W0NIM11PW0NASF0oW0NIMl0xKVtDQEhdKE9bQ0gzXSlbQ0BdMihbQ0BAXTEzNClbQ0BASF0oQyhPMikoW0NIM10pW0NIM10pW0NASF0oT0MoPU8pW0NIM10pW0NIMl1bQ0BASF00W0NAXTUoW0NIM10pW0NAQF0oW0NIM10pKFtDQEBIXShbQ0gyXTMpW09IXSlbQ0gyXVtDSDJdW0NASF01W09IXQ==

>  <s_epik_cmdline>  (329) 
J2VwaWtfcHl0aG9uJywgJy1waHQnLCAnMi4wJywgJy1waCcsICc3LjAnLCAnLXRuJywgJzgnLCAnLW1hJywgJzIwMCcsICctaW1hZScsICc8aW5maWxlLm1hZT4nLCAnLW9tYWUnLCAnPG91dGZpbGUubWFlPic=

>  <r_lp_tautomer_probability>  (329) 
1

>  <r_epik_Ionization_Penalty>  (329) 
1.49514e-06

>  <r_epik_Ionization_Penalty_Charging>  (329) 
0

>  <r_epik_Ionization_Penalty_Neutral>  (329) 
1.49514e-06

>  <r_epik_State_Penalty>  (329) 
-0

>  <r_epik_Charging_Adjusted_Penalty>  (329) 
0

>  <i_epik_Tot_Q>  (329) 
0

>  <i_epik_Tot_abs_Q>  (329) 
0

>  <s_epik_Chemistry_Notes>  (329) 
This compound has an ester and may undergo hydrolysis at high or low pH.

>  <s_lp_Force_Field>  (329) 
OPLS3e

>  <r_lp_Energy>  (329) 
89.0972

>  <b_lp_Chiralities_Consistent>  (329) 
1

>  <s_lp_Variant>  (329) 
114:0-1

>  <s_i_glide_gridfile>  (329) 
pfpi4k_grid

>  <i_i_glide_lignum>  (329) 
37

>  <i_i_glide_rotatable_bonds>  (329) 
6

>  <r_i_docking_score>  (329) 
-3.00907

>  <r_i_glide_ligand_efficiency>  (329) 
-0.0940335

>  <r_i_glide_ligand_efficiency_sa>  (329) 
-0.298538

>  <r_i_glide_ligand_efficiency_ln>  (329) 
-0.673814

>  <r_i_glide_gscore>  (329) 
-3.00907

>  <r_i_glide_lipo>  (329) 
-0.198126

>  <r_i_glide_hbond>  (329) 
-0.436897

>  <r_i_glide_metal>  (329) 
-0

>  <r_i_glide_rewards>  (329) 
-0.323312

>  <r_i_glide_evdw>  (329) 
-15.1042

>  <r_i_glide_ecoul>  (329) 
-9.14995

>  <r_i_glide_erotb>  (329) 
0.0979657

>  <r_i_glide_esite>  (329) 
-0.0210033

>  <r_i_glide_emodel>  (329) 
-28.3669

>  <r_i_glide_energy>  (329) 
-24.2541

>  <r_i_glide_einternal>  (329) 
1.55367

>  <r_i_glide_intrahb_reward>  (329) 
-0

>  <i_i_glide_confnum>  (329) 
5

>  <i_i_glide_posenum>  (329) 
36

>  <r_i_glide_eff_state_penalty>  (329) 
0

>  <ligand_id>  (329) 
114

>  <original_smiles>  (329) 
COC1CC23CC(O)C4(C)CCC(O)C4(C)C2CC(OC(C)=O)C2C(C)(C)OC23C1OC

>  <smiles>  (329) 
[H]OC1([H])C([H])([H])C23C([H])([H])C([H])(OC([H])([H])[H])C([H])(OC([H])([H])[H])C24OC(C([H])([H])[H])(C([H])([H])[H])C4([H])C([H])(OC(=O)C([H])([H])[H])C([H])([H])C3([H])C2(C([H])([H])[H])C([H])(O[H])C([H])([H])C([H])([H])C12C([H])([H])[H]

$$$$
114:0:1
     RDKit          3D

 72 76  0  0  1  0  0  0  0  0999 V2000
    2.9713    1.9572    4.0063 C   0  0  0  0  0  0  0  0  0  0  0  0
    2.6093    0.5972    4.1935 O   0  0  0  0  0  0  0  0  0  0  0  0
    3.7120   -0.3078    4.1548 C   0  0  2  0  0  0  0  0  0  0  0  0
    4.2135   -0.4943    2.7222 C   0  0  0  0  0  0  0  0  0  0  0  0
    4.4484   -2.0195    2.4662 C   0  0  2  0  0  0  0  0  0  0  0  0
    5.8919   -2.2642    1.9224 C   0  0  0  0  0  0  0  0  0  0  0  0
    6.1844   -2.0767    0.4000 C   0  0  1  0  0  0  0  0  0  0  0  0
    7.2129   -2.9662    0.0316 O   0  0  0  0  0  0  0  0  0  0  0  0
    4.9331   -2.2088   -0.5005 C   0  0  1  0  0  0  0  0  0  0  0  0
    4.4172   -0.7706   -0.7168 C   0  0  0  0  0  0  0  0  0  0  0  0
    5.1223   -2.7450   -1.9395 C   0  0  0  0  0  0  0  0  0  0  0  0
    3.7175   -3.1926   -2.3751 C   0  0  0  0  0  0  0  0  0  0  0  0
    2.8596   -3.2146   -1.0817 C   0  0  1  0  0  0  0  0  0  0  0  0
    1.9017   -4.2512   -1.1101 O   0  0  0  0  0  0  0  0  0  0  0  0
    3.8821   -3.1959    0.1024 C   0  0  1  0  0  0  0  0  0  0  0  0
    4.4549   -4.6409    0.2659 C   0  0  0  0  0  0  0  0  0  0  0  0
    3.3361   -2.6426    1.4749 C   0  0  1  0  0  0  0  0  0  0  0  0
    2.2159   -3.5598    2.1346 C   0  0  0  0  0  0  0  0  0  0  0  0
    2.5653   -4.4347    3.3754 C   0  0  1  0  0  0  0  0  0  0  0  0
    2.4323   -5.8326    3.1345 O   0  0  0  0  0  0  0  0  0  0  0  0
    1.2520   -6.4208    3.3827 C   0  0  0  0  0  0  0  0  0  0  0  0
    1.3237   -7.9348    3.2057 C   0  0  0  0  0  0  0  0  0  0  0  0
    0.2121   -5.8577    3.7022 O   0  0  0  0  0  0  0  0  0  0  0  0
    3.9867   -4.1502    3.6867 C   0  0  2  0  0  0  0  0  0  0  0  0
    4.8078   -4.3507    4.9330 C   0  0  0  0  0  0  0  0  0  0  0  0
    4.1032   -4.5872    6.2578 C   0  0  0  0  0  0  0  0  0  0  0  0
    6.0103   -5.3035    4.8452 C   0  0  0  0  0  0  0  0  0  0  0  0
    5.3250   -2.9834    4.7529 O   0  0  0  0  0  0  0  0  0  0  0  0
    4.2293   -2.6771    3.8401 C   0  0  1  0  0  0  0  0  0  0  0  0
    3.2876   -1.7054    4.5826 C   0  0  1  0  0  0  0  0  0  0  0  0
    3.3020   -1.8243    6.0037 O   0  0  0  0  0  0  0  0  0  0  0  0
    2.2110   -1.2070    6.6637 C   0  0  0  0  0  0  0  0  0  0  0  0
    2.0820    2.5824    4.0747 H   0  0  0  0  0  0  0  0  0  0  0  0
    3.4099    2.1181    3.0265 H   0  0  0  0  0  0  0  0  0  0  0  0
    3.6800    2.2912    4.7633 H   0  0  0  0  0  0  0  0  0  0  0  0
    4.5230    0.0168    4.8040 H   0  0  0  0  0  0  0  0  0  0  0  0
    3.4740   -0.0754    2.0519 H   0  0  0  0  0  0  0  0  0  0  0  0
    5.1161    0.0998    2.5769 H   0  0  0  0  0  0  0  0  0  0  0  0
    6.5763   -1.5909    2.4415 H   0  0  0  0  0  0  0  0  0  0  0  0
    6.2237   -3.2511    2.2390 H   0  0  0  0  0  0  0  0  0  0  0  0
    6.6279   -1.0893    0.2481 H   0  0  0  0  0  0  0  0  0  0  0  0
    6.8813   -3.8557    0.1282 H   0  0  0  0  0  0  0  0  0  0  0  0
    3.4383   -0.7278   -1.1703 H   0  0  0  0  0  0  0  0  0  0  0  0
    5.0851   -0.2582   -1.4059 H   0  0  0  0  0  0  0  0  0  0  0  0
    4.4041   -0.1567    0.1724 H   0  0  0  0  0  0  0  0  0  0  0  0
    5.5232   -2.0144   -2.6412 H   0  0  0  0  0  0  0  0  0  0  0  0
    5.7847   -3.6103   -1.9719 H   0  0  0  0  0  0  0  0  0  0  0  0
    3.2626   -2.5046   -3.0847 H   0  0  0  0  0  0  0  0  0  0  0  0
    3.8043   -4.1560   -2.8859 H   0  0  0  0  0  0  0  0  0  0  0  0
    2.2138   -2.3556   -1.0506 H   0  0  0  0  0  0  0  0  0  0  0  0
    2.2861   -4.9629   -1.6030 H   0  0  0  0  0  0  0  0  0  0  0  0
    3.7422   -5.3097    0.7486 H   0  0  0  0  0  0  0  0  0  0  0  0
    5.3616   -4.6788    0.8633 H   0  0  0  0  0  0  0  0  0  0  0  0
    4.7052   -5.1117   -0.6833 H   0  0  0  0  0  0  0  0  0  0  0  0
    2.7269   -1.8117    1.1287 H   0  0  0  0  0  0  0  0  0  0  0  0
    1.3824   -2.9124    2.4221 H   0  0  0  0  0  0  0  0  0  0  0  0
    1.8341   -4.2440    1.3824 H   0  0  0  0  0  0  0  0  0  0  0  0
    1.9569   -4.1214    4.2136 H   0  0  0  0  0  0  0  0  0  0  0  0
    2.0623   -8.3578    3.8834 H   0  0  0  0  0  0  0  0  0  0  0  0
    1.6097   -8.1665    2.1822 H   0  0  0  0  0  0  0  0  0  0  0  0
    0.3554   -8.3928    3.4134 H   0  0  0  0  0  0  0  0  0  0  0  0
    4.6090   -4.5489    2.9157 H   0  0  0  0  0  0  0  0  0  0  0  0
    3.9588   -5.6544    6.4370 H   0  0  0  0  0  0  0  0  0  0  0  0
    3.0952   -4.1670    6.2735 H   0  0  0  0  0  0  0  0  0  0  0  0
    4.6531   -4.1806    7.1059 H   0  0  0  0  0  0  0  0  0  0  0  0
    5.6737   -6.3420    4.8305 H   0  0  0  0  0  0  0  0  0  0  0  0
    6.6871   -5.1971    5.6954 H   0  0  0  0  0  0  0  0  0  0  0  0
    6.5900   -5.1540    3.9420 H   0  0  0  0  0  0  0  0  0  0  0  0
    2.2673   -1.8501    4.2269 H   0  0  0  0  0  0  0  0  0  0  0  0
    2.2705   -1.4125    7.7313 H   0  0  0  0  0  0  0  0  0  0  0  0
    1.2503   -1.5779    6.3051 H   0  0  0  0  0  0  0  0  0  0  0  0
    2.2267   -0.1241    6.5491 H   0  0  0  0  0  0  0  0  0  0  0  0
  1  2  1  0
  1 33  1  0
  1 34  1  0
  1 35  1  0
  2  3  1  0
  3 30  1  0
  3  4  1  0
  3 36  1  1
  5  4  1  1
  4 37  1  0
  4 38  1  0
  5 17  1  0
  5 29  1  0
  5  6  1  0
  6  7  1  0
  6 39  1  0
  6 40  1  0
  7  8  1  0
  7  9  1  0
  7 41  1  1
  8 42  1  0
  9 15  1  0
  9 10  1  6
  9 11  1  0
 10 43  1  0
 10 44  1  0
 10 45  1  0
 11 12  1  0
 11 46  1  0
 11 47  1  0
 12 13  1  0
 12 48  1  0
 12 49  1  0
 13 14  1  0
 13 15  1  0
 13 50  1  1
 14 51  1  0
 15 16  1  1
 15 17  1  0
 16 52  1  0
 16 53  1  0
 16 54  1  0
 17 18  1  0
 17 55  1  6
 18 19  1  0
 18 56  1  0
 18 57  1  0
 19 20  1  0
 19 24  1  0
 19 58  1  1
 20 21  1  0
 21 22  1  0
 21 23  2  0
 22 59  1  0
 22 60  1  0
 22 61  1  0
 24 29  1  0
 24 25  1  0
 24 62  1  6
 25 26  1  0
 25 27  1  0
 25 28  1  0
 26 63  1  0
 26 64  1  0
 26 65  1  0
 27 66  1  0
 27 67  1  0
 27 68  1  0
 29 28  1  1
 29 30  1  0
 30 31  1  0
 30 69  1  6
 31 32  1  0
 32 70  1  0
 32 71  1  0
 32 72  1  0
M  END
>  <i_m_ct_stereo_status>  (330) 
1

>  <s_m_source_file>  (330) 
/var/tmp/pbs.5076255.sched01/tmpt85fkz7r/123fjz13bl5.sdf

>  <i_m_source_file_index>  (330) 
37

>  <i_lp_mmshare_version>  (330) 
48012

>  <i_f3d_flags>  (330) 
0

>  <s_epik_input>  (330) 
W0NIM11PW0NASF0oW0NIMl0xKVtDQEhdKE9bQ0gzXSlbQ0BdMihbQ0BAXTEzNClbQ0BASF0oQyhPMikoW0NIM10pW0NIM10pW0NASF0oT0MoPU8pW0NIM10pW0NIMl1bQ0BASF00W0NAXTUoW0NIM10pW0NAQF0oW0NIM10pKFtDQEBIXShbQ0gyXTMpW09IXSlbQ0gyXVtDSDJdW0NASF01W09IXQ==

>  <s_epik_cmdline>  (330) 
J2VwaWtfcHl0aG9uJywgJy1waHQnLCAnMi4wJywgJy1waCcsICc3LjAnLCAnLXRuJywgJzgnLCAnLW1hJywgJzIwMCcsICctaW1hZScsICc8aW5maWxlLm1hZT4nLCAnLW9tYWUnLCAnPG91dGZpbGUubWFlPic=

>  <r_lp_tautomer_probability>  (330) 
1

>  <r_epik_Ionization_Penalty>  (330) 
1.49514e-06

>  <r_epik_Ionization_Penalty_Charging>  (330) 
0

>  <r_epik_Ionization_Penalty_Neutral>  (330) 
1.49514e-06

>  <r_epik_State_Penalty>  (330) 
-0

>  <r_epik_Charging_Adjusted_Penalty>  (330) 
0

>  <i_epik_Tot_Q>  (330) 
0

>  <i_epik_Tot_abs_Q>  (330) 
0

>  <s_epik_Chemistry_Notes>  (330) 
This compound has an ester and may undergo hydrolysis at high or low pH.

>  <s_lp_Force_Field>  (330) 
OPLS3e

>  <r_lp_Energy>  (330) 
89.0972

>  <b_lp_Chiralities_Consistent>  (330) 
1

>  <s_lp_Variant>  (330) 
114:0-1

>  <s_i_glide_gridfile>  (330) 
pfpi4k_grid

>  <i_i_glide_lignum>  (330) 
37

>  <i_i_glide_rotatable_bonds>  (330) 
6

>  <r_i_docking_score>  (330) 
-2.98283

>  <r_i_glide_ligand_efficiency>  (330) 
-0.0932133

>  <r_i_glide_ligand_efficiency_sa>  (330) 
-0.295934

>  <r_i_glide_ligand_efficiency_ln>  (330) 
-0.667936

>  <r_i_glide_gscore>  (330) 
-2.98283

>  <r_i_glide_lipo>  (330) 
-0.337489

>  <r_i_glide_hbond>  (330) 
-0.358742

>  <r_i_glide_metal>  (330) 
-0

>  <r_i_glide_rewards>  (330) 
-0.323312

>  <r_i_glide_evdw>  (330) 
-18.1832

>  <r_i_glide_ecoul>  (330) 
-7.55456

>  <r_i_glide_erotb>  (330) 
0.0979657

>  <r_i_glide_esite>  (330) 
-0.0189028

>  <r_i_glide_emodel>  (330) 
-30.083

>  <r_i_glide_energy>  (330) 
-25.7378

>  <r_i_glide_einternal>  (330) 
0.857991

>  <r_i_glide_intrahb_reward>  (330) 
-0

>  <i_i_glide_confnum>  (330) 
5

>  <i_i_glide_posenum>  (330) 
35

>  <r_i_glide_eff_state_penalty>  (330) 
0

>  <ligand_id>  (330) 
114

>  <original_smiles>  (330) 
COC1CC23CC(O)C4(C)CCC(O)C4(C)C2CC(OC(C)=O)C2C(C)(C)OC23C1OC

>  <smiles>  (330) 
[H]OC1([H])C([H])([H])C23C([H])([H])C([H])(OC([H])([H])[H])C([H])(OC([H])([H])[H])C24OC(C([H])([H])[H])(C([H])([H])[H])C4([H])C([H])(OC(=O)C([H])([H])[H])C([H])([H])C3([H])C2(C([H])([H])[H])C([H])(O[H])C([H])([H])C([H])([H])C12C([H])([H])[H]

$$$$
114:0:2
     RDKit          3D

 72 76  0  0  1  0  0  0  0  0999 V2000
    8.6062   -7.3668    2.8790 C   0  0  0  0  0  0  0  0  0  0  0  0
    7.3576   -6.9657    3.4198 O   0  0  0  0  0  0  0  0  0  0  0  0
    6.2728   -7.0154    2.4933 C   0  0  2  0  0  0  0  0  0  0  0  0
    6.3491   -5.8362    1.5181 C   0  0  0  0  0  0  0  0  0  0  0  0
    4.9336   -5.1956    1.3831 C   0  0  2  0  0  0  0  0  0  0  0  0
    4.5223   -5.1158   -0.1300 C   0  0  0  0  0  0  0  0  0  0  0  0
    5.0164   -3.9031   -0.9748 C   0  0  1  0  0  0  0  0  0  0  0  0
    4.0354   -3.5977   -1.9444 O   0  0  0  0  0  0  0  0  0  0  0  0
    5.4170   -2.6535   -0.1373 C   0  0  1  0  0  0  0  0  0  0  0  0
    6.9597   -2.7580    0.0773 C   0  0  0  0  0  0  0  0  0  0  0  0
    5.2152   -1.2609   -0.7794 C   0  0  0  0  0  0  0  0  0  0  0  0
    5.2050   -0.2843    0.4116 C   0  0  0  0  0  0  0  0  0  0  0  0
    5.0171   -1.1452    1.6794 C   0  0  1  0  0  0  0  0  0  0  0  0
    4.1534   -0.4968    2.5921 O   0  0  0  0  0  0  0  0  0  0  0  0
    4.5514   -2.5421    1.1649 C   0  0  1  0  0  0  0  0  0  0  0  0
    3.0216   -2.4250    0.8551 C   0  0  0  0  0  0  0  0  0  0  0  0
    4.8548   -3.7582    2.1160 C   0  0  1  0  0  0  0  0  0  0  0  0
    4.0694   -3.6904    3.5017 C   0  0  0  0  0  0  0  0  0  0  0  0
    2.8455   -4.6350    3.7300 C   0  0  1  0  0  0  0  0  0  0  0  0
    1.6304   -3.9231    3.9026 O   0  0  0  0  0  0  0  0  0  0  0  0
    1.3531   -3.3536    5.0883 C   0  0  0  0  0  0  0  0  0  0  0  0
   -0.0143   -2.6979    5.0992 C   0  0  0  0  0  0  0  0  0  0  0  0
    2.0871   -3.3330    6.0782 O   0  0  0  0  0  0  0  0  0  0  0  0
    2.7151   -5.4737    2.5021 C   0  0  2  0  0  0  0  0  0  0  0  0
    2.0278   -6.7941    2.2229 C   0  0  0  0  0  0  0  0  0  0  0  0
    1.6253   -7.6714    3.4093 C   0  0  0  0  0  0  0  0  0  0  0  0
    0.8934   -6.8001    1.2004 C   0  0  0  0  0  0  0  0  0  0  0  0
    3.2469   -7.2274    1.5147 O   0  0  0  0  0  0  0  0  0  0  0  0
    4.0111   -6.1615    2.1570 C   0  0  1  0  0  0  0  0  0  0  0  0
    4.9487   -6.8116    3.2152 C   0  0  1  0  0  0  0  0  0  0  0  0
    4.4724   -8.0514    3.7254 O   0  0  0  0  0  0  0  0  0  0  0  0
    5.1212   -8.4947    4.9083 C   0  0  0  0  0  0  0  0  0  0  0  0
    9.3759   -7.3460    3.6506 H   0  0  0  0  0  0  0  0  0  0  0  0
    8.9229   -6.7002    2.0786 H   0  0  0  0  0  0  0  0  0  0  0  0
    8.5552   -8.3813    2.4876 H   0  0  0  0  0  0  0  0  0  0  0  0
    6.2509   -7.9635    1.9542 H   0  0  0  0  0  0  0  0  0  0  0  0
    7.0780   -5.1329    1.9115 H   0  0  0  0  0  0  0  0  0  0  0  0
    6.7499   -6.1814    0.5664 H   0  0  0  0  0  0  0  0  0  0  0  0
    4.8470   -6.0226   -0.6357 H   0  0  0  0  0  0  0  0  0  0  0  0
    3.4384   -5.1805   -0.2043 H   0  0  0  0  0  0  0  0  0  0  0  0
    5.8764   -4.2263   -1.5622 H   0  0  0  0  0  0  0  0  0  0  0  0
    3.7061   -4.4175   -2.3099 H   0  0  0  0  0  0  0  0  0  0  0  0
    7.3660   -2.0629    0.8050 H   0  0  0  0  0  0  0  0  0  0  0  0
    7.4913   -2.5653   -0.8539 H   0  0  0  0  0  0  0  0  0  0  0  0
    7.2824   -3.7467    0.3649 H   0  0  0  0  0  0  0  0  0  0  0  0
    5.9738   -1.0156   -1.5159 H   0  0  0  0  0  0  0  0  0  0  0  0
    4.2630   -1.1869   -1.3063 H   0  0  0  0  0  0  0  0  0  0  0  0
    6.1381    0.2702    0.4796 H   0  0  0  0  0  0  0  0  0  0  0  0
    4.3985    0.4405    0.2942 H   0  0  0  0  0  0  0  0  0  0  0  0
    5.9739   -1.2314    2.1917 H   0  0  0  0  0  0  0  0  0  0  0  0
    3.3431   -0.3076    2.1409 H   0  0  0  0  0  0  0  0  0  0  0  0
    2.4228   -2.4162    1.7651 H   0  0  0  0  0  0  0  0  0  0  0  0
    2.6372   -3.2289    0.2337 H   0  0  0  0  0  0  0  0  0  0  0  0
    2.7661   -1.5068    0.3253 H   0  0  0  0  0  0  0  0  0  0  0  0
    5.8646   -3.5282    2.4461 H   0  0  0  0  0  0  0  0  0  0  0  0
    4.7864   -3.8960    4.2976 H   0  0  0  0  0  0  0  0  0  0  0  0
    3.7533   -2.6670    3.7030 H   0  0  0  0  0  0  0  0  0  0  0  0
    3.0243   -5.2721    4.5990 H   0  0  0  0  0  0  0  0  0  0  0  0
   -0.7792   -3.4488    4.9162 H   0  0  0  0  0  0  0  0  0  0  0  0
   -0.0630   -1.9486    4.3098 H   0  0  0  0  0  0  0  0  0  0  0  0
   -0.2102   -2.2211    6.0606 H   0  0  0  0  0  0  0  0  0  0  0  0
    2.4010   -4.8313    1.6869 H   0  0  0  0  0  0  0  0  0  0  0  0
    0.6011   -7.4551    3.7197 H   0  0  0  0  0  0  0  0  0  0  0  0
    2.2387   -7.4973    4.2917 H   0  0  0  0  0  0  0  0  0  0  0  0
    1.6777   -8.7287    3.1514 H   0  0  0  0  0  0  0  0  0  0  0  0
   -0.0111   -6.3568    1.6185 H   0  0  0  0  0  0  0  0  0  0  0  0
    0.6483   -7.8164    0.8939 H   0  0  0  0  0  0  0  0  0  0  0  0
    1.1534   -6.2429    0.3007 H   0  0  0  0  0  0  0  0  0  0  0  0
    5.1187   -6.1266    4.0429 H   0  0  0  0  0  0  0  0  0  0  0  0
    4.6376   -9.4018    5.2789 H   0  0  0  0  0  0  0  0  0  0  0  0
    5.0742   -7.7454    5.6998 H   0  0  0  0  0  0  0  0  0  0  0  0
    6.1659   -8.7387    4.7213 H   0  0  0  0  0  0  0  0  0  0  0  0
  1  2  1  0
  1 33  1  0
  1 34  1  0
  1 35  1  0
  2  3  1  0
  3 30  1  0
  3  4  1  0
  3 36  1  6
  5  4  1  6
  4 37  1  0
  4 38  1  0
  5 17  1  0
  5 29  1  0
  5  6  1  0
  6  7  1  0
  6 39  1  0
  6 40  1  0
  7  8  1  0
  7  9  1  0
  7 41  1  6
  8 42  1  0
  9 15  1  0
  9 10  1  1
  9 11  1  0
 10 43  1  0
 10 44  1  0
 10 45  1  0
 11 12  1  0
 11 46  1  0
 11 47  1  0
 12 13  1  0
 12 48  1  0
 12 49  1  0
 13 14  1  0
 13 15  1  0
 13 50  1  1
 14 51  1  0
 15 16  1  6
 15 17  1  0
 16 52  1  0
 16 53  1  0
 16 54  1  0
 17 18  1  0
 17 55  1  1
 18 19  1  0
 18 56  1  0
 18 57  1  0
 19 20  1  0
 19 24  1  0
 19 58  1  1
 20 21  1  0
 21 22  1  0
 21 23  2  0
 22 59  1  0
 22 60  1  0
 22 61  1  0
 24 29  1  0
 24 25  1  0
 24 62  1  6
 25 26  1  0
 25 27  1  0
 25 28  1  0
 26 63  1  0
 26 64  1  0
 26 65  1  0
 27 66  1  0
 27 67  1  0
 27 68  1  0
 29 28  1  6
 29 30  1  0
 30 31  1  0
 30 69  1  1
 31 32  1  0
 32 70  1  0
 32 71  1  0
 32 72  1  0
M  END
>  <i_m_ct_stereo_status>  (331) 
1

>  <s_m_source_file>  (331) 
/var/tmp/pbs.5076255.sched01/tmpt85fkz7r/123fjz13bl5.sdf

>  <i_m_source_file_index>  (331) 
37

>  <i_lp_mmshare_version>  (331) 
48012

>  <i_f3d_flags>  (331) 
0

>  <s_epik_input>  (331) 
W0NIM11PW0NASF0oW0NIMl0xKVtDQEhdKE9bQ0gzXSlbQ0BdMihbQ0BAXTEzNClbQ0BASF0oQyhPMikoW0NIM10pW0NIM10pW0NASF0oT0MoPU8pW0NIM10pW0NIMl1bQ0BASF00W0NAXTUoW0NIM10pW0NAQF0oW0NIM10pKFtDQEBIXShbQ0gyXTMpW09IXSlbQ0gyXVtDSDJdW0NASF01W09IXQ==

>  <s_epik_cmdline>  (331) 
J2VwaWtfcHl0aG9uJywgJy1waHQnLCAnMi4wJywgJy1waCcsICc3LjAnLCAnLXRuJywgJzgnLCAnLW1hJywgJzIwMCcsICctaW1hZScsICc8aW5maWxlLm1hZT4nLCAnLW9tYWUnLCAnPG91dGZpbGUubWFlPic=

>  <r_lp_tautomer_probability>  (331) 
1

>  <r_epik_Ionization_Penalty>  (331) 
1.49514e-06

>  <r_epik_Ionization_Penalty_Charging>  (331) 
0

>  <r_epik_Ionization_Penalty_Neutral>  (331) 
1.49514e-06

>  <r_epik_State_Penalty>  (331) 
-0

>  <r_epik_Charging_Adjusted_Penalty>  (331) 
0

>  <i_epik_Tot_Q>  (331) 
0

>  <i_epik_Tot_abs_Q>  (331) 
0

>  <s_epik_Chemistry_Notes>  (331) 
This compound has an ester and may undergo hydrolysis at high or low pH.

>  <s_lp_Force_Field>  (331) 
OPLS3e

>  <r_lp_Energy>  (331) 
89.0972

>  <b_lp_Chiralities_Consistent>  (331) 
1

>  <s_lp_Variant>  (331) 
114:0-1

>  <s_i_glide_gridfile>  (331) 
pfpi4k_grid

>  <i_i_glide_lignum>  (331) 
37

>  <i_i_glide_rotatable_bonds>  (331) 
6

>  <r_i_docking_score>  (331) 
-2.82531

>  <r_i_glide_ligand_efficiency>  (331) 
-0.088291

>  <r_i_glide_ligand_efficiency_sa>  (331) 
-0.280306

>  <r_i_glide_ligand_efficiency_ln>  (331) 
-0.632664

>  <r_i_glide_gscore>  (331) 
-2.82531

>  <r_i_glide_lipo>  (331) 
-0.573698

>  <r_i_glide_hbond>  (331) 
-0.32

>  <r_i_glide_metal>  (331) 
-0

>  <r_i_glide_rewards>  (331) 
-0.330981

>  <r_i_glide_evdw>  (331) 
-22.9788

>  <r_i_glide_ecoul>  (331) 
-3.66439

>  <r_i_glide_erotb>  (331) 
0.0979657

>  <r_i_glide_esite>  (331) 
0

>  <r_i_glide_emodel>  (331) 
-31.1

>  <r_i_glide_energy>  (331) 
-26.6432

>  <r_i_glide_einternal>  (331) 
0.944809

>  <r_i_glide_intrahb_reward>  (331) 
-0

>  <i_i_glide_confnum>  (331) 
5

>  <i_i_glide_posenum>  (331) 
2

>  <r_i_glide_eff_state_penalty>  (331) 
0

>  <ligand_id>  (331) 
114

>  <original_smiles>  (331) 
COC1CC23CC(O)C4(C)CCC(O)C4(C)C2CC(OC(C)=O)C2C(C)(C)OC23C1OC

>  <smiles>  (331) 
[H]OC1([H])C([H])([H])C23C([H])([H])C([H])(OC([H])([H])[H])C([H])(OC([H])([H])[H])C24OC(C([H])([H])[H])(C([H])([H])[H])C4([H])C([H])(OC(=O)C([H])([H])[H])C([H])([H])C3([H])C2(C([H])([H])[H])C([H])(O[H])C([H])([H])C([H])([H])C12C([H])([H])[H]

$$$$
115:0:0
     RDKit          3D

 45 49  0  0  1  0  0  0  0  0999 V2000
    2.0204   -6.2117    4.7499 C   0  0  0  0  0  0  0  0  0  0  0  0
    3.3040   -5.5200    4.2532 C   0  0  0  0  0  0  0  0  0  0  0  0
    3.4272   -5.4948    2.7168 C   0  0  2  0  0  0  0  0  0  0  0  0
    3.6849   -6.8853    2.0772 C   0  0  0  0  0  0  0  0  0  0  0  0
    5.0852   -6.7597    1.4312 C   0  0  2  0  0  0  0  0  0  0  0  0
    5.7635   -5.7730    2.3495 C   0  0  0  0  0  0  0  0  0  0  0  0
    4.6529   -4.7167    2.1932 C   0  0  2  0  0  0  0  0  0  0  0  0
    5.0222   -3.3569    2.7562 C   0  0  0  0  0  0  0  0  0  0  0  0
    6.0037   -2.8180    1.6888 C   0  0  0  0  0  0  0  0  0  0  0  0
    5.5968   -3.4251    0.4232 N   0  0  0  0  0  0  0  0  0  0  0  0
    5.9165   -2.9147   -0.7965 C   0  0  0  0  0  0  0  0  0  0  0  0
    6.7695   -2.0345   -0.9798 O   0  0  0  0  0  0  0  0  0  0  0  0
    4.9590   -3.4083   -1.9113 C   0  0  2  0  0  0  0  0  0  0  0  0
    4.7756   -2.5093   -3.1426 C   0  0  0  0  0  0  0  0  0  0  0  0
    3.3773   -2.8738   -3.6277 C   0  0  0  0  0  0  0  0  0  0  0  0
    2.6106   -3.1628   -2.3384 C   0  0  0  0  0  0  0  0  0  0  0  0
    3.6029   -3.5858   -1.3745 N   0  0  0  0  0  0  0  0  0  0  0  0
    3.3495   -4.0672   -0.1322 C   0  0  0  0  0  0  0  0  0  0  0  0
    2.2191   -4.1836    0.3033 O   0  0  0  0  0  0  0  0  0  0  0  0
    4.6178   -4.5106    0.6420 C   0  0  2  0  0  0  0  0  0  0  0  0
    5.0579   -5.9161    0.1451 C   0  0  0  0  0  0  0  0  0  0  0  0
    1.9541   -6.1466    5.8396 H   0  0  0  0  0  0  0  0  0  0  0  0
    1.9979   -7.2692    4.4791 H   0  0  0  0  0  0  0  0  0  0  0  0
    1.1266   -5.7389    4.3306 H   0  0  0  0  0  0  0  0  0  0  0  0
    3.2954   -4.4946    4.6162 H   0  0  0  0  0  0  0  0  0  0  0  0
    4.1624   -5.9999    4.7184 H   0  0  0  0  0  0  0  0  0  0  0  0
    2.4750   -5.0984    2.3907 H   0  0  0  0  0  0  0  0  0  0  0  0
    3.6727   -7.6705    2.8373 H   0  0  0  0  0  0  0  0  0  0  0  0
    2.9234   -7.1361    1.3302 H   0  0  0  0  0  0  0  0  0  0  0  0
    5.5871   -7.7217    1.3251 H   0  0  0  0  0  0  0  0  0  0  0  0
    5.8763   -6.1605    3.3630 H   0  0  0  0  0  0  0  0  0  0  0  0
    6.7501   -5.4816    1.9853 H   0  0  0  0  0  0  0  0  0  0  0  0
    4.1381   -2.7245    2.7649 H   0  0  0  0  0  0  0  0  0  0  0  0
    5.4419   -3.3870    3.7636 H   0  0  0  0  0  0  0  0  0  0  0  0
    6.0592   -1.7195    1.6325 H   0  0  0  0  0  0  0  0  0  0  0  0
    7.0222   -3.1694    1.8379 H   0  0  0  0  0  0  0  0  0  0  0  0
    5.3160   -4.3786   -2.2550 H   0  0  0  0  0  0  0  0  0  0  0  0
    4.8141   -1.4468   -2.8755 H   0  0  0  0  0  0  0  0  0  0  0  0
    5.5078   -2.7334   -3.9108 H   0  0  0  0  0  0  0  0  0  0  0  0
    2.8964   -2.1109   -4.2443 H   0  0  0  0  0  0  0  0  0  0  0  0
    3.4311   -3.7967   -4.2197 H   0  0  0  0  0  0  0  0  0  0  0  0
    2.1741   -2.2420   -1.9644 H   0  0  0  0  0  0  0  0  0  0  0  0
    1.8354   -3.9102   -2.4548 H   0  0  0  0  0  0  0  0  0  0  0  0
    6.0458   -5.8687   -0.3178 H   0  0  0  0  0  0  0  0  0  0  0  0
    4.3687   -6.3549   -0.5758 H   0  0  0  0  0  0  0  0  0  0  0  0
  1  2  1  0
  1 22  1  0
  1 23  1  0
  1 24  1  0
  2  3  1  0
  2 25  1  0
  2 26  1  0
  3  7  1  0
  3  4  1  0
  3 27  1  6
  4  5  1  0
  4 28  1  0
  4 29  1  0
  5 21  1  0
  5  6  1  0
  5 30  1  6
  6  7  1  0
  6 31  1  0
  6 32  1  0
  7 20  1  0
  7  8  1  1
  8  9  1  0
  8 33  1  0
  8 34  1  0
  9 10  1  0
  9 35  1  0
  9 36  1  0
 10 20  1  0
 10 11  1  0
 11 12  2  0
 11 13  1  0
 13 17  1  0
 13 14  1  0
 13 37  1  6
 14 15  1  0
 14 38  1  0
 14 39  1  0
 15 16  1  0
 15 40  1  0
 15 41  1  0
 16 17  1  0
 16 42  1  0
 16 43  1  0
 17 18  1  0
 18 19  2  0
 18 20  1  0
 20 21  1  6
 21 44  1  0
 21 45  1  0
M  END
>  <i_m_ct_stereo_status>  (332) 
1

>  <s_m_source_file>  (332) 
/var/tmp/pbs.5076255.sched01/tmpt85fkz7r/123fjz13bl5.sdf

>  <i_m_source_file_index>  (332) 
38

>  <i_lp_mmshare_version>  (332) 
48012

>  <i_f3d_flags>  (332) 
0

>  <s_epik_input>  (332) 
W0NIM11bQ0gyXVtDQEBIXTFbQ0gyXVtDQEhdKFtDSDJdMilbQ0gyXVtDQEBdMyhbQ0BAXTEyNClOKFtDSDJdW0NIMl00KUMoPU8pW0NASF01TihDMz1PKVtDSDJdW0NIMl1bQ0gyXTU=

>  <s_epik_cmdline>  (332) 
J2VwaWtfcHl0aG9uJywgJy1waHQnLCAnMi4wJywgJy1waCcsICc3LjAnLCAnLXRuJywgJzgnLCAnLW1hJywgJzIwMCcsICctaW1hZScsICc8aW5maWxlLm1hZT4nLCAnLW9tYWUnLCAnPG91dGZpbGUubWFlPic=

>  <r_lp_tautomer_probability>  (332) 
1

>  <r_epik_Ionization_Penalty>  (332) 
8.89703e-09

>  <r_epik_Ionization_Penalty_Charging>  (332) 
0

>  <r_epik_Ionization_Penalty_Neutral>  (332) 
8.89703e-09

>  <r_epik_State_Penalty>  (332) 
-0

>  <r_epik_Charging_Adjusted_Penalty>  (332) 
0

>  <i_epik_Tot_Q>  (332) 
0

>  <i_epik_Tot_abs_Q>  (332) 
0

>  <s_lp_Force_Field>  (332) 
OPLS3e

>  <r_lp_Energy>  (332) 
62.0317

>  <b_lp_Chiralities_Consistent>  (332) 
1

>  <s_lp_Variant>  (332) 
115:0-1

>  <s_i_glide_gridfile>  (332) 
pfpi4k_grid

>  <i_i_glide_lignum>  (332) 
38

>  <i_i_glide_rotatable_bonds>  (332) 
1

>  <r_i_docking_score>  (332) 
-3.9351

>  <r_i_glide_ligand_efficiency>  (332) 
-0.187386

>  <r_i_glide_ligand_efficiency_sa>  (332) 
-0.516983

>  <r_i_glide_ligand_efficiency_ln>  (332) 
-0.972945

>  <r_i_glide_gscore>  (332) 
-3.9351

>  <r_i_glide_lipo>  (332) 
-0.837696

>  <r_i_glide_hbond>  (332) 
-0.16

>  <r_i_glide_metal>  (332) 
-0

>  <r_i_glide_rewards>  (332) 
-1.53923

>  <r_i_glide_evdw>  (332) 
-17.2956

>  <r_i_glide_ecoul>  (332) 
-3.43882

>  <r_i_glide_erotb>  (332) 
0

>  <r_i_glide_esite>  (332) 
-0.0175712

>  <r_i_glide_emodel>  (332) 
-25.782

>  <r_i_glide_energy>  (332) 
-20.7344

>  <r_i_glide_einternal>  (332) 
0.000218677

>  <r_i_glide_intrahb_reward>  (332) 
-0

>  <i_i_glide_confnum>  (332) 
2

>  <i_i_glide_posenum>  (332) 
34

>  <r_i_glide_eff_state_penalty>  (332) 
0

>  <ligand_id>  (332) 
115

>  <original_smiles>  (332) 
CCC1CC2CC13CCN1C(=O)C4CCCN4C(=O)C13C2

>  <smiles>  (332) 
[H]C([H])([H])C([H])([H])C1([H])C([H])([H])C2([H])C([H])([H])C34C(=O)N5C([H])([H])C([H])([H])C([H])([H])C5([H])C(=O)N3C([H])([H])C([H])([H])C41C2([H])[H]

$$$$
115:0:1
     RDKit          3D

 45 49  0  0  1  0  0  0  0  0999 V2000
    2.6372   -7.0483    4.2976 C   0  0  0  0  0  0  0  0  0  0  0  0
    3.5792   -5.8769    3.9734 C   0  0  0  0  0  0  0  0  0  0  0  0
    3.7727   -5.6506    2.4646 C   0  0  2  0  0  0  0  0  0  0  0  0
    4.5821   -6.7651    1.7526 C   0  0  0  0  0  0  0  0  0  0  0  0
    5.8639   -6.0495    1.2553 C   0  0  2  0  0  0  0  0  0  0  0  0
    6.0530   -4.9779    2.2968 C   0  0  0  0  0  0  0  0  0  0  0  0
    4.6280   -4.4130    2.1156 C   0  0  2  0  0  0  0  0  0  0  0  0
    4.4252   -3.0770    2.8120 C   0  0  0  0  0  0  0  0  0  0  0  0
    5.1903   -2.1033    1.8878 C   0  0  0  0  0  0  0  0  0  0  0  0
    5.0921   -2.6939    0.5511 N   0  0  0  0  0  0  0  0  0  0  0  0
    5.2749   -1.9932   -0.6016 C   0  0  0  0  0  0  0  0  0  0  0  0
    5.7951   -0.8788   -0.6407 O   0  0  0  0  0  0  0  0  0  0  0  0
    4.6517   -2.6753   -1.8388 C   0  0  2  0  0  0  0  0  0  0  0  0
    4.2103   -1.7782   -3.0154 C   0  0  0  0  0  0  0  0  0  0  0  0
    3.0868   -2.5967   -3.6531 C   0  0  0  0  0  0  0  0  0  0  0  0
    2.3914   -3.2844   -2.4760 C   0  0  0  0  0  0  0  0  0  0  0  0
    3.4324   -3.4052   -1.4592 N   0  0  0  0  0  0  0  0  0  0  0  0
    3.3025   -4.0591   -0.2754 C   0  0  0  0  0  0  0  0  0  0  0  0
    2.2574   -4.5980    0.0651 O   0  0  0  0  0  0  0  0  0  0  0  0
    4.6031   -4.0717    0.5883 C   0  0  2  0  0  0  0  0  0  0  0  0
    5.5881   -5.1524    0.0438 C   0  0  0  0  0  0  0  0  0  0  0  0
    2.4849   -7.1280    5.3748 H   0  0  0  0  0  0  0  0  0  0  0  0
    3.0377   -8.0014    3.9473 H   0  0  0  0  0  0  0  0  0  0  0  0
    1.6559   -6.9092    3.8306 H   0  0  0  0  0  0  0  0  0  0  0  0
    3.1567   -4.9728    4.4092 H   0  0  0  0  0  0  0  0  0  0  0  0
    4.5297   -6.0402    4.4819 H   0  0  0  0  0  0  0  0  0  0  0  0
    2.7646   -5.6095    2.0670 H   0  0  0  0  0  0  0  0  0  0  0  0
    4.8360   -7.5685    2.4457 H   0  0  0  0  0  0  0  0  0  0  0  0
    4.0278   -7.2061    0.9193 H   0  0  0  0  0  0  0  0  0  0  0  0
    6.7071   -6.7279    1.1223 H   0  0  0  0  0  0  0  0  0  0  0  0
    6.2473   -5.3913    3.2828 H   0  0  0  0  0  0  0  0  0  0  0  0
    6.8698   -4.2991    2.0397 H   0  0  0  0  0  0  0  0  0  0  0  0
    3.3654   -2.8228    2.7624 H   0  0  0  0  0  0  0  0  0  0  0  0
    4.7562   -3.0506    3.8538 H   0  0  0  0  0  0  0  0  0  0  0  0
    4.8078   -1.0809    1.9090 H   0  0  0  0  0  0  0  0  0  0  0  0
    6.2434   -1.9974    2.1438 H   0  0  0  0  0  0  0  0  0  0  0  0
    5.3905   -3.3892   -2.2170 H   0  0  0  0  0  0  0  0  0  0  0  0
    3.8062   -0.8291   -2.6601 H   0  0  0  0  0  0  0  0  0  0  0  0
    5.0140   -1.5582   -3.7284 H   0  0  0  0  0  0  0  0  0  0  0  0
    2.3909   -2.0116   -4.2597 H   0  0  0  0  0  0  0  0  0  0  0  0
    3.5210   -3.3663   -4.3007 H   0  0  0  0  0  0  0  0  0  0  0  0
    1.6171   -2.6405   -2.0767 H   0  0  0  0  0  0  0  0  0  0  0  0
    1.9246   -4.2422   -2.7261 H   0  0  0  0  0  0  0  0  0  0  0  0
    6.5223   -4.6993   -0.3048 H   0  0  0  0  0  0  0  0  0  0  0  0
    5.1663   -5.7307   -0.7714 H   0  0  0  0  0  0  0  0  0  0  0  0
  1  2  1  0
  1 22  1  0
  1 23  1  0
  1 24  1  0
  2  3  1  0
  2 25  1  0
  2 26  1  0
  3  7  1  0
  3  4  1  0
  3 27  1  6
  4  5  1  0
  4 28  1  0
  4 29  1  0
  5 21  1  0
  5  6  1  0
  5 30  1  6
  6  7  1  0
  6 31  1  0
  6 32  1  0
  7 20  1  0
  7  8  1  1
  8  9  1  0
  8 33  1  0
  8 34  1  0
  9 10  1  0
  9 35  1  0
  9 36  1  0
 10 20  1  0
 10 11  1  0
 11 12  2  0
 11 13  1  0
 13 17  1  0
 13 14  1  0
 13 37  1  6
 14 15  1  0
 14 38  1  0
 14 39  1  0
 15 16  1  0
 15 40  1  0
 15 41  1  0
 16 17  1  0
 16 42  1  0
 16 43  1  0
 17 18  1  0
 18 19  2  0
 18 20  1  0
 20 21  1  6
 21 44  1  0
 21 45  1  0
M  END
>  <i_m_ct_stereo_status>  (333) 
1

>  <s_m_source_file>  (333) 
/var/tmp/pbs.5076255.sched01/tmpt85fkz7r/123fjz13bl5.sdf

>  <i_m_source_file_index>  (333) 
38

>  <i_lp_mmshare_version>  (333) 
48012

>  <i_f3d_flags>  (333) 
0

>  <s_epik_input>  (333) 
W0NIM11bQ0gyXVtDQEBIXTFbQ0gyXVtDQEhdKFtDSDJdMilbQ0gyXVtDQEBdMyhbQ0BAXTEyNClOKFtDSDJdW0NIMl00KUMoPU8pW0NASF01TihDMz1PKVtDSDJdW0NIMl1bQ0gyXTU=

>  <s_epik_cmdline>  (333) 
J2VwaWtfcHl0aG9uJywgJy1waHQnLCAnMi4wJywgJy1waCcsICc3LjAnLCAnLXRuJywgJzgnLCAnLW1hJywgJzIwMCcsICctaW1hZScsICc8aW5maWxlLm1hZT4nLCAnLW9tYWUnLCAnPG91dGZpbGUubWFlPic=

>  <r_lp_tautomer_probability>  (333) 
1

>  <r_epik_Ionization_Penalty>  (333) 
8.89703e-09

>  <r_epik_Ionization_Penalty_Charging>  (333) 
0

>  <r_epik_Ionization_Penalty_Neutral>  (333) 
8.89703e-09

>  <r_epik_State_Penalty>  (333) 
-0

>  <r_epik_Charging_Adjusted_Penalty>  (333) 
0

>  <i_epik_Tot_Q>  (333) 
0

>  <i_epik_Tot_abs_Q>  (333) 
0

>  <s_lp_Force_Field>  (333) 
OPLS3e

>  <r_lp_Energy>  (333) 
62.0317

>  <b_lp_Chiralities_Consistent>  (333) 
1

>  <s_lp_Variant>  (333) 
115:0-1

>  <s_i_glide_gridfile>  (333) 
pfpi4k_grid

>  <i_i_glide_lignum>  (333) 
38

>  <i_i_glide_rotatable_bonds>  (333) 
1

>  <r_i_docking_score>  (333) 
-3.66149

>  <r_i_glide_ligand_efficiency>  (333) 
-0.174357

>  <r_i_glide_ligand_efficiency_sa>  (333) 
-0.481036

>  <r_i_glide_ligand_efficiency_ln>  (333) 
-0.905295

>  <r_i_glide_gscore>  (333) 
-3.66149

>  <r_i_glide_lipo>  (333) 
-0.814093

>  <r_i_glide_hbond>  (333) 
-0.0325991

>  <r_i_glide_metal>  (333) 
-0

>  <r_i_glide_rewards>  (333) 
-1.56021

>  <r_i_glide_evdw>  (333) 
-18.8555

>  <r_i_glide_ecoul>  (333) 
-1.79951

>  <r_i_glide_erotb>  (333) 
0

>  <r_i_glide_esite>  (333) 
-0.0418852

>  <r_i_glide_emodel>  (333) 
-25.4108

>  <r_i_glide_energy>  (333) 
-20.655

>  <r_i_glide_einternal>  (333) 
3.24144e-05

>  <r_i_glide_intrahb_reward>  (333) 
-0

>  <i_i_glide_confnum>  (333) 
2

>  <i_i_glide_posenum>  (333) 
30

>  <r_i_glide_eff_state_penalty>  (333) 
0

>  <ligand_id>  (333) 
115

>  <original_smiles>  (333) 
CCC1CC2CC13CCN1C(=O)C4CCCN4C(=O)C13C2

>  <smiles>  (333) 
[H]C([H])([H])C([H])([H])C1([H])C([H])([H])C2([H])C([H])([H])C34C(=O)N5C([H])([H])C([H])([H])C([H])([H])C5([H])C(=O)N3C([H])([H])C([H])([H])C41C2([H])[H]

$$$$
115:0:2
     RDKit          3D

 45 49  0  0  1  0  0  0  0  0999 V2000
   -3.1693    3.1798    9.2599 C   0  0  0  0  0  0  0  0  0  0  0  0
   -2.7203    3.4531    7.8138 C   0  0  0  0  0  0  0  0  0  0  0  0
   -1.6228    2.4945    7.3119 C   0  0  2  0  0  0  0  0  0  0  0  0
   -0.2963    2.5507    8.1130 C   0  0  0  0  0  0  0  0  0  0  0  0
    0.7493    3.0571    7.0931 C   0  0  2  0  0  0  0  0  0  0  0  0
   -0.0935    3.9326    6.1989 C   0  0  0  0  0  0  0  0  0  0  0  0
   -1.0955    2.8039    5.8859 C   0  0  2  0  0  0  0  0  0  0  0  0
   -2.0328    3.1479    4.7314 C   0  0  0  0  0  0  0  0  0  0  0  0
   -1.1302    3.0110    3.4812 C   0  0  0  0  0  0  0  0  0  0  0  0
   -0.1411    1.9882    3.8533 N   0  0  0  0  0  0  0  0  0  0  0  0
    0.5474    1.2366    2.9634 C   0  0  0  0  0  0  0  0  0  0  0  0
    0.5913    1.4513    1.7484 O   0  0  0  0  0  0  0  0  0  0  0  0
    1.1350   -0.0604    3.5697 C   0  0  2  0  0  0  0  0  0  0  0  0
    1.3832   -1.2331    2.6017 C   0  0  0  0  0  0  0  0  0  0  0  0
    1.2269   -2.4547    3.5044 C   0  0  0  0  0  0  0  0  0  0  0  0
    0.1353   -2.0552    4.5022 C   0  0  0  0  0  0  0  0  0  0  0  0
    0.2259   -0.6045    4.6000 N   0  0  0  0  0  0  0  0  0  0  0  0
   -0.5254    0.1700    5.4152 C   0  0  0  0  0  0  0  0  0  0  0  0
   -1.4141   -0.2913    6.1345 O   0  0  0  0  0  0  0  0  0  0  0  0
   -0.1754    1.6888    5.3030 C   0  0  2  0  0  0  0  0  0  0  0  0
    1.1499    1.9694    6.0838 C   0  0  0  0  0  0  0  0  0  0  0  0
   -3.9958    3.8364    9.5267 H   0  0  0  0  0  0  0  0  0  0  0  0
   -2.3703    3.3572    9.9807 H   0  0  0  0  0  0  0  0  0  0  0  0
   -3.4968    2.1472    9.3951 H   0  0  0  0  0  0  0  0  0  0  0  0
   -3.5764    3.3404    7.1528 H   0  0  0  0  0  0  0  0  0  0  0  0
   -2.4167    4.4946    7.7329 H   0  0  0  0  0  0  0  0  0  0  0  0
   -2.0738    1.5133    7.4071 H   0  0  0  0  0  0  0  0  0  0  0  0
   -0.3646    3.2442    8.9497 H   0  0  0  0  0  0  0  0  0  0  0  0
   -0.0247    1.5728    8.5155 H   0  0  0  0  0  0  0  0  0  0  0  0
    1.5956    3.5565    7.5670 H   0  0  0  0  0  0  0  0  0  0  0  0
   -0.5133    4.7892    6.7267 H   0  0  0  0  0  0  0  0  0  0  0  0
    0.4686    4.3090    5.3420 H   0  0  0  0  0  0  0  0  0  0  0  0
   -2.8181    2.3895    4.6789 H   0  0  0  0  0  0  0  0  0  0  0  0
   -2.5223    4.1224    4.8249 H   0  0  0  0  0  0  0  0  0  0  0  0
   -1.6888    2.7285    2.5860 H   0  0  0  0  0  0  0  0  0  0  0  0
   -0.5912    3.9292    3.2566 H   0  0  0  0  0  0  0  0  0  0  0  0
    2.0796    0.1931    4.0469 H   0  0  0  0  0  0  0  0  0  0  0  0
    0.6276   -1.2607    1.8111 H   0  0  0  0  0  0  0  0  0  0  0  0
    2.3602   -1.1892    2.1165 H   0  0  0  0  0  0  0  0  0  0  0  0
    1.0022   -3.3782    2.9693 H   0  0  0  0  0  0  0  0  0  0  0  0
    2.1602   -2.6134    4.0511 H   0  0  0  0  0  0  0  0  0  0  0  0
   -0.8501   -2.3117    4.1073 H   0  0  0  0  0  0  0  0  0  0  0  0
    0.2510   -2.5222    5.4770 H   0  0  0  0  0  0  0  0  0  0  0  0
    1.9385    2.3418    5.4226 H   0  0  0  0  0  0  0  0  0  0  0  0
    1.5454    1.0982    6.6032 H   0  0  0  0  0  0  0  0  0  0  0  0
  1  2  1  0
  1 22  1  0
  1 23  1  0
  1 24  1  0
  2  3  1  0
  2 25  1  0
  2 26  1  0
  3  7  1  0
  3  4  1  0
  3 27  1  6
  4  5  1  0
  4 28  1  0
  4 29  1  0
  5 21  1  0
  5  6  1  0
  5 30  1  1
  6  7  1  0
  6 31  1  0
  6 32  1  0
  7 20  1  0
  7  8  1  6
  8  9  1  0
  8 33  1  0
  8 34  1  0
  9 10  1  0
  9 35  1  0
  9 36  1  0
 10 20  1  0
 10 11  1  0
 11 12  2  0
 11 13  1  0
 13 17  1  0
 13 14  1  0
 13 37  1  1
 14 15  1  0
 14 38  1  0
 14 39  1  0
 15 16  1  0
 15 40  1  0
 15 41  1  0
 16 17  1  0
 16 42  1  0
 16 43  1  0
 17 18  1  0
 18 19  2  0
 18 20  1  0
 20 21  1  1
 21 44  1  0
 21 45  1  0
M  END
>  <i_m_ct_stereo_status>  (334) 
1

>  <s_m_source_file>  (334) 
/var/tmp/pbs.5076255.sched01/tmpt85fkz7r/123fjz13bl5.sdf

>  <i_m_source_file_index>  (334) 
38

>  <i_lp_mmshare_version>  (334) 
48012

>  <i_f3d_flags>  (334) 
0

>  <s_epik_input>  (334) 
W0NIM11bQ0gyXVtDQEBIXTFbQ0gyXVtDQEhdKFtDSDJdMilbQ0gyXVtDQEBdMyhbQ0BAXTEyNClOKFtDSDJdW0NIMl00KUMoPU8pW0NASF01TihDMz1PKVtDSDJdW0NIMl1bQ0gyXTU=

>  <s_epik_cmdline>  (334) 
J2VwaWtfcHl0aG9uJywgJy1waHQnLCAnMi4wJywgJy1waCcsICc3LjAnLCAnLXRuJywgJzgnLCAnLW1hJywgJzIwMCcsICctaW1hZScsICc8aW5maWxlLm1hZT4nLCAnLW9tYWUnLCAnPG91dGZpbGUubWFlPic=

>  <r_lp_tautomer_probability>  (334) 
1

>  <r_epik_Ionization_Penalty>  (334) 
8.89703e-09

>  <r_epik_Ionization_Penalty_Charging>  (334) 
0

>  <r_epik_Ionization_Penalty_Neutral>  (334) 
8.89703e-09

>  <r_epik_State_Penalty>  (334) 
-0

>  <r_epik_Charging_Adjusted_Penalty>  (334) 
0

>  <i_epik_Tot_Q>  (334) 
0

>  <i_epik_Tot_abs_Q>  (334) 
0

>  <s_lp_Force_Field>  (334) 
OPLS3e

>  <r_lp_Energy>  (334) 
62.0317

>  <b_lp_Chiralities_Consistent>  (334) 
1

>  <s_lp_Variant>  (334) 
115:0-1

>  <s_i_glide_gridfile>  (334) 
pfpi4k_grid

>  <i_i_glide_lignum>  (334) 
38

>  <i_i_glide_rotatable_bonds>  (334) 
1

>  <r_i_docking_score>  (334) 
-3.15015

>  <r_i_glide_ligand_efficiency>  (334) 
-0.150007

>  <r_i_glide_ligand_efficiency_sa>  (334) 
-0.413858

>  <r_i_glide_ligand_efficiency_ln>  (334) 
-0.778868

>  <r_i_glide_gscore>  (334) 
-3.15015

>  <r_i_glide_lipo>  (334) 
-0.222352

>  <r_i_glide_hbond>  (334) 
-0.11688

>  <r_i_glide_metal>  (334) 
-0

>  <r_i_glide_rewards>  (334) 
-1.44283

>  <r_i_glide_evdw>  (334) 
-18.6875

>  <r_i_glide_ecoul>  (334) 
-2.22328

>  <r_i_glide_erotb>  (334) 
0

>  <r_i_glide_esite>  (334) 
-0.10022

>  <r_i_glide_emodel>  (334) 
-24.8372

>  <r_i_glide_energy>  (334) 
-20.9107

>  <r_i_glide_einternal>  (334) 
0.248006

>  <r_i_glide_intrahb_reward>  (334) 
-0

>  <i_i_glide_confnum>  (334) 
2

>  <i_i_glide_posenum>  (334) 
3

>  <r_i_glide_eff_state_penalty>  (334) 
0

>  <ligand_id>  (334) 
115

>  <original_smiles>  (334) 
CCC1CC2CC13CCN1C(=O)C4CCCN4C(=O)C13C2

>  <smiles>  (334) 
[H]C([H])([H])C([H])([H])C1([H])C([H])([H])C2([H])C([H])([H])C34C(=O)N5C([H])([H])C([H])([H])C([H])([H])C5([H])C(=O)N3C([H])([H])C([H])([H])C41C2([H])[H]

$$$$
116:0:0
     RDKit          3D

 30 32  0  0  1  0  0  0  0  0999 V2000
    3.0172   -1.3387   -2.9512 C   0  0  0  0  0  0  0  0  0  0  0  0
    3.8389   -2.1348   -1.9231 C   0  0  1  0  0  0  0  0  0  0  0  0
    2.9530   -3.0830   -1.0740 C   0  0  0  0  0  0  0  0  0  0  0  0
    3.3906   -2.8456    0.3757 C   0  0  1  0  0  0  0  0  0  0  0  0
    4.7408   -3.5437    0.6965 C   0  0  0  0  0  0  0  0  0  0  0  0
    5.8941   -3.0999   -0.2469 C   0  0  1  0  0  0  0  0  0  0  0  0
    5.7965   -3.7516   -1.6407 C   0  0  0  0  0  0  0  0  0  0  0  0
    4.9360   -2.9551   -2.6433 C   0  0  1  0  0  0  0  0  0  0  0  0
    4.4141   -3.8534   -3.6088 O   0  0  0  0  0  0  0  0  0  0  0  0
    5.8794   -1.5791   -0.4229 C   0  0  0  0  0  0  0  0  0  0  0  0
    4.4589   -1.1593   -0.8566 C   0  0  2  0  0  0  0  0  0  0  0  0
    3.5747   -1.3300    0.3830 C   0  0  0  0  0  0  0  0  0  0  0  0
    2.2932   -0.6982   -2.4492 H   0  0  0  0  0  0  0  0  0  0  0  0
    2.4613   -1.9955   -3.6206 H   0  0  0  0  0  0  0  0  0  0  0  0
    3.6402   -0.6911   -3.5645 H   0  0  0  0  0  0  0  0  0  0  0  0
    1.9027   -2.8189   -1.1838 H   0  0  0  0  0  0  0  0  0  0  0  0
    3.0212   -4.1342   -1.3487 H   0  0  0  0  0  0  0  0  0  0  0  0
    2.6179   -3.1589    1.0802 H   0  0  0  0  0  0  0  0  0  0  0  0
    5.0160   -3.3083    1.7254 H   0  0  0  0  0  0  0  0  0  0  0  0
    4.6200   -4.6264    0.6626 H   0  0  0  0  0  0  0  0  0  0  0  0
    6.8401   -3.4099    0.1998 H   0  0  0  0  0  0  0  0  0  0  0  0
    6.7899   -3.8486   -2.0738 H   0  0  0  0  0  0  0  0  0  0  0  0
    5.4120   -4.7661   -1.5285 H   0  0  0  0  0  0  0  0  0  0  0  0
    5.5819   -2.2609   -3.1787 H   0  0  0  0  0  0  0  0  0  0  0  0
    3.8454   -4.4763   -3.1647 H   0  0  0  0  0  0  0  0  0  0  0  0
    6.1797   -1.0706    0.4943 H   0  0  0  0  0  0  0  0  0  0  0  0
    6.6063   -1.3032   -1.1817 H   0  0  0  0  0  0  0  0  0  0  0  0
    4.4774   -0.1257   -1.1908 H   0  0  0  0  0  0  0  0  0  0  0  0
    2.6193   -0.8130    0.2596 H   0  0  0  0  0  0  0  0  0  0  0  0
    4.0251   -0.9556    1.3036 H   0  0  0  0  0  0  0  0  0  0  0  0
  2  1  1  6
  1 13  1  0
  1 14  1  0
  1 15  1  0
  2  8  1  0
  2 11  1  0
  2  3  1  0
  3  4  1  0
  3 16  1  0
  3 17  1  0
  4 12  1  0
  4  5  1  0
  4 18  1  1
  5  6  1  0
  5 19  1  0
  5 20  1  0
  6  7  1  0
  6 10  1  0
  6 21  1  1
  7  8  1  0
  7 22  1  0
  7 23  1  0
  8  9  1  0
  8 24  1  6
  9 25  1  0
 10 11  1  0
 10 26  1  0
 10 27  1  0
 11 12  1  0
 11 28  1  6
 12 29  1  0
 12 30  1  0
M  END
>  <i_m_ct_stereo_status>  (335) 
1

>  <s_m_source_file>  (335) 
/var/tmp/pbs.5076255.sched01/tmpt85fkz7r/123fjz13bl5.sdf

>  <i_m_source_file_index>  (335) 
39

>  <i_lp_mmshare_version>  (335) 
48012

>  <i_f3d_flags>  (335) 
0

>  <s_epik_input>  (335) 
W0NIM11bQ0BAXTEyW0NAQEhdM1tDSDJdW0NAQEhdKFtDSDJdW0NASF0oW0NIMl0xKVtDSDJdMylbQ0gyXVtDQEhdMltPSF0=

>  <s_epik_cmdline>  (335) 
J2VwaWtfcHl0aG9uJywgJy1waHQnLCAnMi4wJywgJy1waCcsICc3LjAnLCAnLXRuJywgJzgnLCAnLW1hJywgJzIwMCcsICctaW1hZScsICc8aW5maWxlLm1hZT4nLCAnLW9tYWUnLCAnPG91dGZpbGUubWFlPic=

>  <r_lp_tautomer_probability>  (335) 
1

>  <r_epik_Ionization_Penalty>  (335) 
2.58974e-06

>  <r_epik_Ionization_Penalty_Charging>  (335) 
0

>  <r_epik_Ionization_Penalty_Neutral>  (335) 
2.58974e-06

>  <r_epik_State_Penalty>  (335) 
-0

>  <r_epik_Charging_Adjusted_Penalty>  (335) 
0

>  <i_epik_Tot_Q>  (335) 
0

>  <i_epik_Tot_abs_Q>  (335) 
0

>  <s_lp_Force_Field>  (335) 
OPLS3e

>  <r_lp_Energy>  (335) 
33.3376

>  <b_lp_Chiralities_Consistent>  (335) 
1

>  <s_lp_Variant>  (335) 
116:0-1

>  <s_i_glide_gridfile>  (335) 
pfpi4k_grid

>  <i_i_glide_lignum>  (335) 
39

>  <i_i_glide_rotatable_bonds>  (335) 
1

>  <r_i_docking_score>  (335) 
-4.3047

>  <r_i_glide_ligand_efficiency>  (335) 
-0.358725

>  <r_i_glide_ligand_efficiency_sa>  (335) 
-0.821276

>  <r_i_glide_ligand_efficiency_ln>  (335) 
-1.23524

>  <r_i_glide_gscore>  (335) 
-4.3047

>  <r_i_glide_lipo>  (335) 
-0.311756

>  <r_i_glide_hbond>  (335) 
-0.32

>  <r_i_glide_metal>  (335) 
-0

>  <r_i_glide_rewards>  (335) 
-2.25

>  <r_i_glide_evdw>  (335) 
-15.6573

>  <r_i_glide_ecoul>  (335) 
-4.26723

>  <r_i_glide_erotb>  (335) 
0

>  <r_i_glide_esite>  (335) 
0

>  <r_i_glide_emodel>  (335) 
-25.8488

>  <r_i_glide_energy>  (335) 
-19.9245

>  <r_i_glide_einternal>  (335) 
0.0127452

>  <r_i_glide_intrahb_reward>  (335) 
-0

>  <i_i_glide_confnum>  (335) 
2

>  <i_i_glide_posenum>  (335) 
2

>  <r_i_glide_eff_state_penalty>  (335) 
0

>  <ligand_id>  (335) 
116

>  <original_smiles>  (335) 
CC12CC3CC(CC1O)CC2C3

>  <smiles>  (335) 
[H]OC1([H])C([H])([H])C2([H])C([H])([H])C3([H])C([H])([H])C([H])(C2([H])[H])C1(C([H])([H])[H])C3([H])[H]

$$$$
116:0:1
     RDKit          3D

 30 32  0  0  1  0  0  0  0  0999 V2000
    5.3131   -3.2421   -2.7799 C   0  0  0  0  0  0  0  0  0  0  0  0
    4.9713   -2.7945   -1.3435 C   0  0  1  0  0  0  0  0  0  0  0  0
    5.1467   -1.2610   -1.1805 C   0  0  0  0  0  0  0  0  0  0  0  0
    5.9397   -1.1011    0.1166 C   0  0  1  0  0  0  0  0  0  0  0  0
    5.0541   -1.3143    1.3748 C   0  0  0  0  0  0  0  0  0  0  0  0
    4.3475   -2.7031    1.4088 C   0  0  1  0  0  0  0  0  0  0  0  0
    3.1280   -2.7706    0.4619 C   0  0  0  0  0  0  0  0  0  0  0  0
    3.5160   -3.1924   -0.9772 C   0  0  1  0  0  0  0  0  0  0  0  0
    2.5919   -2.6572   -1.9061 O   0  0  0  0  0  0  0  0  0  0  0  0
    5.3391   -3.8117    1.0151 C   0  0  0  0  0  0  0  0  0  0  0  0
    6.0006   -3.4063   -0.3237 C   0  0  2  0  0  0  0  0  0  0  0  0
    6.9458   -2.2433   -0.0147 C   0  0  0  0  0  0  0  0  0  0  0  0
    6.3513   -3.0341   -3.0320 H   0  0  0  0  0  0  0  0  0  0  0  0
    4.6914   -2.7323   -3.5137 H   0  0  0  0  0  0  0  0  0  0  0  0
    5.1522   -4.3120   -2.9085 H   0  0  0  0  0  0  0  0  0  0  0  0
    5.7280   -0.8527   -2.0071 H   0  0  0  0  0  0  0  0  0  0  0  0
    4.2103   -0.7015   -1.1646 H   0  0  0  0  0  0  0  0  0  0  0  0
    6.4278   -0.1277    0.1636 H   0  0  0  0  0  0  0  0  0  0  0  0
    5.6881   -1.2199    2.2580 H   0  0  0  0  0  0  0  0  0  0  0  0
    4.3165   -0.5137    1.4545 H   0  0  0  0  0  0  0  0  0  0  0  0
    3.9903   -2.8779    2.4244 H   0  0  0  0  0  0  0  0  0  0  0  0
    2.4030   -3.4881    0.8467 H   0  0  0  0  0  0  0  0  0  0  0  0
    2.6174   -1.8069    0.4683 H   0  0  0  0  0  0  0  0  0  0  0  0
    3.4405   -4.2793   -1.0487 H   0  0  0  0  0  0  0  0  0  0  0  0
    2.0386   -2.0009   -1.4769 H   0  0  0  0  0  0  0  0  0  0  0  0
    6.0942   -3.9507    1.7899 H   0  0  0  0  0  0  0  0  0  0  0  0
    4.8299   -4.7719    0.9188 H   0  0  0  0  0  0  0  0  0  0  0  0
    6.5534   -4.2567   -0.7229 H   0  0  0  0  0  0  0  0  0  0  0  0
    7.6348   -2.0813   -0.8449 H   0  0  0  0  0  0  0  0  0  0  0  0
    7.5468   -2.3907    0.8815 H   0  0  0  0  0  0  0  0  0  0  0  0
  2  1  1  6
  1 13  1  0
  1 14  1  0
  1 15  1  0
  2  8  1  0
  2 11  1  0
  2  3  1  0
  3  4  1  0
  3 16  1  0
  3 17  1  0
  4 12  1  0
  4  5  1  0
  4 18  1  1
  5  6  1  0
  5 19  1  0
  5 20  1  0
  6  7  1  0
  6 10  1  0
  6 21  1  1
  7  8  1  0
  7 22  1  0
  7 23  1  0
  8  9  1  0
  8 24  1  1
  9 25  1  0
 10 11  1  0
 10 26  1  0
 10 27  1  0
 11 12  1  0
 11 28  1  6
 12 29  1  0
 12 30  1  0
M  END
>  <i_m_ct_stereo_status>  (336) 
1

>  <s_m_source_file>  (336) 
/var/tmp/pbs.5076255.sched01/tmpt85fkz7r/123fjz13bl5.sdf

>  <i_m_source_file_index>  (336) 
39

>  <i_lp_mmshare_version>  (336) 
48012

>  <i_f3d_flags>  (336) 
0

>  <s_epik_input>  (336) 
W0NIM11bQ0BAXTEyW0NAQEhdM1tDSDJdW0NAQEhdKFtDSDJdW0NASF0oW0NIMl0xKVtDSDJdMylbQ0gyXVtDQEhdMltPSF0=

>  <s_epik_cmdline>  (336) 
J2VwaWtfcHl0aG9uJywgJy1waHQnLCAnMi4wJywgJy1waCcsICc3LjAnLCAnLXRuJywgJzgnLCAnLW1hJywgJzIwMCcsICctaW1hZScsICc8aW5maWxlLm1hZT4nLCAnLW9tYWUnLCAnPG91dGZpbGUubWFlPic=

>  <r_lp_tautomer_probability>  (336) 
1

>  <r_epik_Ionization_Penalty>  (336) 
2.58974e-06

>  <r_epik_Ionization_Penalty_Charging>  (336) 
0

>  <r_epik_Ionization_Penalty_Neutral>  (336) 
2.58974e-06

>  <r_epik_State_Penalty>  (336) 
-0

>  <r_epik_Charging_Adjusted_Penalty>  (336) 
0

>  <i_epik_Tot_Q>  (336) 
0

>  <i_epik_Tot_abs_Q>  (336) 
0

>  <s_lp_Force_Field>  (336) 
OPLS3e

>  <r_lp_Energy>  (336) 
33.3376

>  <b_lp_Chiralities_Consistent>  (336) 
1

>  <s_lp_Variant>  (336) 
116:0-1

>  <s_i_glide_gridfile>  (336) 
pfpi4k_grid

>  <i_i_glide_lignum>  (336) 
39

>  <i_i_glide_rotatable_bonds>  (336) 
1

>  <r_i_docking_score>  (336) 
-4.20235

>  <r_i_glide_ligand_efficiency>  (336) 
-0.350196

>  <r_i_glide_ligand_efficiency_sa>  (336) 
-0.801749

>  <r_i_glide_ligand_efficiency_ln>  (336) 
-1.20587

>  <r_i_glide_gscore>  (336) 
-4.20235

>  <r_i_glide_lipo>  (336) 
-0.488595

>  <r_i_glide_hbond>  (336) 
-0.16

>  <r_i_glide_metal>  (336) 
-0

>  <r_i_glide_rewards>  (336) 
-2.25

>  <r_i_glide_evdw>  (336) 
-17.5267

>  <r_i_glide_ecoul>  (336) 
-2.84951

>  <r_i_glide_erotb>  (336) 
0

>  <r_i_glide_esite>  (336) 
0

>  <r_i_glide_emodel>  (336) 
-25.2608

>  <r_i_glide_energy>  (336) 
-20.3762

>  <r_i_glide_einternal>  (336) 
1.35098

>  <r_i_glide_intrahb_reward>  (336) 
-0

>  <i_i_glide_confnum>  (336) 
2

>  <i_i_glide_posenum>  (336) 
34

>  <r_i_glide_eff_state_penalty>  (336) 
0

>  <ligand_id>  (336) 
116

>  <original_smiles>  (336) 
CC12CC3CC(CC1O)CC2C3

>  <smiles>  (336) 
[H]OC1([H])C([H])([H])C2([H])C([H])([H])C3([H])C([H])([H])C([H])(C2([H])[H])C1(C([H])([H])[H])C3([H])[H]

$$$$
116:0:2
     RDKit          3D

 30 32  0  0  1  0  0  0  0  0999 V2000
    5.4947   -1.8747    2.1176 C   0  0  0  0  0  0  0  0  0  0  0  0
    5.4555   -2.2276    0.6166 C   0  0  1  0  0  0  0  0  0  0  0  0
    4.8256   -1.0731   -0.2101 C   0  0  0  0  0  0  0  0  0  0  0  0
    3.8172   -1.7612   -1.1309 C   0  0  1  0  0  0  0  0  0  0  0  0
    4.5048   -2.4773   -2.3232 C   0  0  0  0  0  0  0  0  0  0  0  0
    5.5588   -3.5326   -1.8791 C   0  0  1  0  0  0  0  0  0  0  0  0
    6.8892   -2.8981   -1.4198 C   0  0  0  0  0  0  0  0  0  0  0  0
    6.8824   -2.5500    0.0883 C   0  0  1  0  0  0  0  0  0  0  0  0
    7.7711   -1.4734    0.3085 O   0  0  0  0  0  0  0  0  0  0  0  0
    5.0087   -4.3954   -0.7265 C   0  0  0  0  0  0  0  0  0  0  0  0
    4.4877   -3.4412    0.3742 C   0  0  2  0  0  0  0  0  0  0  0  0
    3.2166   -2.7921   -0.1780 C   0  0  0  0  0  0  0  0  0  0  0  0
    4.4917   -1.7240    2.5163 H   0  0  0  0  0  0  0  0  0  0  0  0
    6.0582   -0.9629    2.3094 H   0  0  0  0  0  0  0  0  0  0  0  0
    5.9526   -2.6738    2.6997 H   0  0  0  0  0  0  0  0  0  0  0  0
    4.2900   -0.3804    0.4404 H   0  0  0  0  0  0  0  0  0  0  0  0
    5.5493   -0.4780   -0.7639 H   0  0  0  0  0  0  0  0  0  0  0  0
    3.0605   -1.0611   -1.4889 H   0  0  0  0  0  0  0  0  0  0  0  0
    3.7333   -2.9789   -2.9092 H   0  0  0  0  0  0  0  0  0  0  0  0
    4.9549   -1.7461   -2.9939 H   0  0  0  0  0  0  0  0  0  0  0  0
    5.7715   -4.1704   -2.7388 H   0  0  0  0  0  0  0  0  0  0  0  0
    7.7185   -3.5809   -1.6149 H   0  0  0  0  0  0  0  0  0  0  0  0
    7.0939   -2.0218   -2.0339 H   0  0  0  0  0  0  0  0  0  0  0  0
    7.2651   -3.4080    0.6428 H   0  0  0  0  0  0  0  0  0  0  0  0
    7.6850   -1.1889    1.2085 H   0  0  0  0  0  0  0  0  0  0  0  0
    4.2145   -5.0501   -1.0881 H   0  0  0  0  0  0  0  0  0  0  0  0
    5.7829   -5.0587   -0.3359 H   0  0  0  0  0  0  0  0  0  0  0  0
    4.2766   -4.0102    1.2799 H   0  0  0  0  0  0  0  0  0  0  0  0
    2.6492   -2.3014    0.6140 H   0  0  0  0  0  0  0  0  0  0  0  0
    2.5457   -3.4925   -0.6781 H   0  0  0  0  0  0  0  0  0  0  0  0
  2  1  1  1
  1 13  1  0
  1 14  1  0
  1 15  1  0
  2  8  1  0
  2 11  1  0
  2  3  1  0
  3  4  1  0
  3 16  1  0
  3 17  1  0
  4 12  1  0
  4  5  1  0
  4 18  1  6
  5  6  1  0
  5 19  1  0
  5 20  1  0
  6  7  1  0
  6 10  1  0
  6 21  1  6
  7  8  1  0
  7 22  1  0
  7 23  1  0
  8  9  1  0
  8 24  1  1
  9 25  1  0
 10 11  1  0
 10 26  1  0
 10 27  1  0
 11 12  1  0
 11 28  1  1
 12 29  1  0
 12 30  1  0
M  END
>  <i_m_ct_stereo_status>  (337) 
1

>  <s_m_source_file>  (337) 
/var/tmp/pbs.5076255.sched01/tmpt85fkz7r/123fjz13bl5.sdf

>  <i_m_source_file_index>  (337) 
39

>  <i_lp_mmshare_version>  (337) 
48012

>  <i_f3d_flags>  (337) 
0

>  <s_epik_input>  (337) 
W0NIM11bQ0BAXTEyW0NAQEhdM1tDSDJdW0NAQEhdKFtDSDJdW0NASF0oW0NIMl0xKVtDSDJdMylbQ0gyXVtDQEhdMltPSF0=

>  <s_epik_cmdline>  (337) 
J2VwaWtfcHl0aG9uJywgJy1waHQnLCAnMi4wJywgJy1waCcsICc3LjAnLCAnLXRuJywgJzgnLCAnLW1hJywgJzIwMCcsICctaW1hZScsICc8aW5maWxlLm1hZT4nLCAnLW9tYWUnLCAnPG91dGZpbGUubWFlPic=

>  <r_lp_tautomer_probability>  (337) 
1

>  <r_epik_Ionization_Penalty>  (337) 
2.58974e-06

>  <r_epik_Ionization_Penalty_Charging>  (337) 
0

>  <r_epik_Ionization_Penalty_Neutral>  (337) 
2.58974e-06

>  <r_epik_State_Penalty>  (337) 
-0

>  <r_epik_Charging_Adjusted_Penalty>  (337) 
0

>  <i_epik_Tot_Q>  (337) 
0

>  <i_epik_Tot_abs_Q>  (337) 
0

>  <s_lp_Force_Field>  (337) 
OPLS3e

>  <r_lp_Energy>  (337) 
33.3376

>  <b_lp_Chiralities_Consistent>  (337) 
1

>  <s_lp_Variant>  (337) 
116:0-1

>  <s_i_glide_gridfile>  (337) 
pfpi4k_grid

>  <i_i_glide_lignum>  (337) 
39

>  <i_i_glide_rotatable_bonds>  (337) 
1

>  <r_i_docking_score>  (337) 
-3.91615

>  <r_i_glide_ligand_efficiency>  (337) 
-0.326346

>  <r_i_glide_ligand_efficiency_sa>  (337) 
-0.747145

>  <r_i_glide_ligand_efficiency_ln>  (337) 
-1.12375

>  <r_i_glide_gscore>  (337) 
-3.91615

>  <r_i_glide_lipo>  (337) 
-0.440171

>  <r_i_glide_hbond>  (337) 
-0.0587641

>  <r_i_glide_metal>  (337) 
-0

>  <r_i_glide_rewards>  (337) 
-2.25

>  <r_i_glide_evdw>  (337) 
-16.9726

>  <r_i_glide_ecoul>  (337) 
-2.12388

>  <r_i_glide_erotb>  (337) 
0

>  <r_i_glide_esite>  (337) 
0

>  <r_i_glide_emodel>  (337) 
-24.2924

>  <r_i_glide_energy>  (337) 
-19.0965

>  <r_i_glide_einternal>  (337) 
0.376924

>  <r_i_glide_intrahb_reward>  (337) 
-0

>  <i_i_glide_confnum>  (337) 
2

>  <i_i_glide_posenum>  (337) 
1

>  <r_i_glide_eff_state_penalty>  (337) 
0

>  <ligand_id>  (337) 
116

>  <original_smiles>  (337) 
CC12CC3CC(CC1O)CC2C3

>  <smiles>  (337) 
[H]OC1([H])C([H])([H])C2([H])C([H])([H])C3([H])C([H])([H])C([H])(C2([H])[H])C1(C([H])([H])[H])C3([H])[H]

$$$$
