0:0:0
     RDKit          3D

 72 78  0  0  1  0  0  0  0  0999 V2000
    0.9502   -4.7341    5.0064 C   0  0  0  0  0  0  0  0  0  0  0  0
    0.6820   -5.1483    3.6630 O   0  0  0  0  0  0  0  0  0  0  0  0
    1.3449   -6.2293    3.0067 C   0  0  0  0  0  0  0  0  0  0  0  0
    0.8832   -6.1967    1.6602 O   0  0  0  0  0  0  0  0  0  0  0  0
    1.6939   -6.6374    0.5949 C   0  0  0  0  0  0  0  0  0  0  0  0
    2.9422   -6.0295    3.0816 C   0  0  1  0  0  0  0  0  0  0  0  0
    3.5137   -4.6886    2.3594 C   0  0  2  0  0  0  0  0  0  0  0  0
    4.5127   -4.9730    1.1890 C   0  0  0  0  0  0  0  0  0  0  0  0
    4.4562   -3.9928   -0.0379 C   0  0  2  0  0  0  0  0  0  0  0  0
    5.8902   -3.4700   -0.2179 C   0  0  0  0  0  0  0  0  0  0  0  0
    5.9361   -2.2475    0.6878 C   0  0  2  0  0  0  0  0  0  0  0  0
    6.1385   -2.6437    2.0574 O   0  0  0  0  0  0  0  0  0  0  0  0
    4.8070   -2.2015    2.4593 C   0  0  2  0  0  0  0  0  0  0  0  0
    5.0350   -1.0626    3.5299 C   0  0  0  0  0  0  0  0  0  0  0  0
    4.9657    0.1475    3.3482 O   0  0  0  0  0  0  0  0  0  0  0  0
    5.3014   -1.4626    4.8193 O   0  0  0  0  0  0  0  0  0  0  0  0
    5.3174   -2.8100    5.3290 C   0  0  0  0  0  0  0  0  0  0  0  0
    5.0633   -3.8356    4.2565 C   0  0  0  0  0  0  0  0  0  0  0  0
    5.8193   -4.8244    4.1598 O   0  0  0  0  0  0  0  0  0  0  0  0
    4.0586   -3.4324    3.1711 C   0  0  2  0  0  0  0  0  0  0  0  0
    2.8949   -2.8136    3.7005 O   0  0  0  0  0  0  0  0  0  0  0  0
    4.5229   -1.7454    0.9585 C   0  0  1  0  0  0  0  0  0  0  0  0
    4.3064   -0.2438    0.6593 C   0  0  0  0  0  0  0  0  0  0  0  0
    3.6542   -2.6383    0.0404 C   0  0  1  0  0  0  0  0  0  0  0  0
    3.4352   -2.1136   -1.4097 C   0  0  0  0  0  0  0  0  0  0  0  0
    2.3134   -2.6496    0.4788 O   0  0  0  0  0  0  0  0  0  0  0  0
    3.5004   -6.4674    4.4650 C   0  0  0  0  0  0  0  0  0  0  0  0
    2.7151   -7.4633    5.2700 C   0  0  0  0  0  0  0  0  0  0  0  0
    1.5360   -7.9804    4.8958 C   0  0  0  0  0  0  0  0  0  0  0  0
    0.6343   -8.8076    5.7800 C   0  0  0  0  0  0  0  0  0  0  0  0
   -0.7306   -8.3892    5.3071 C   0  0  1  0  0  0  0  0  0  0  0  0
   -0.9913   -6.9662    5.1993 O   0  0  0  0  0  0  0  0  0  0  0  0
   -0.6334   -7.6734    4.0128 C   0  0  2  0  0  0  0  0  0  0  0  0
   -1.7162   -7.8313    2.9533 C   0  0  0  0  0  0  0  0  0  0  0  0
    0.8365   -7.6325    3.5938 C   0  0  1  0  0  0  0  0  0  0  0  0
    1.1339   -8.8284    2.6600 C   0  0  0  0  0  0  0  0  0  0  0  0
    0.2406   -3.9518    5.2622 H   0  0  0  0  0  0  0  0  0  0  0  0
    1.9237   -4.3050    5.1465 H   0  0  0  0  0  0  0  0  0  0  0  0
    0.8721   -5.5178    5.7443 H   0  0  0  0  0  0  0  0  0  0  0  0
    1.1616   -6.6250   -0.3394 H   0  0  0  0  0  0  0  0  0  0  0  0
    2.2104   -7.5623    0.8246 H   0  0  0  0  0  0  0  0  0  0  0  0
    2.4452   -5.9230    0.3817 H   0  0  0  0  0  0  0  0  0  0  0  0
    3.3611   -6.8490    2.5062 H   0  0  0  0  0  0  0  0  0  0  0  0
    2.5888   -4.3695    1.9203 H   0  0  0  0  0  0  0  0  0  0  0  0
    5.5126   -5.0261    1.6187 H   0  0  0  0  0  0  0  0  0  0  0  0
    4.4351   -5.9798    0.7731 H   0  0  0  0  0  0  0  0  0  0  0  0
    4.1427   -4.5443   -0.9238 H   0  0  0  0  0  0  0  0  0  0  0  0
    6.6628   -4.2083   -0.0000 H   0  0  0  0  0  0  0  0  0  0  0  0
    6.0504   -3.1643   -1.2515 H   0  0  0  0  0  0  0  0  0  0  0  0
    6.6548   -1.4779    0.4008 H   0  0  0  0  0  0  0  0  0  0  0  0
    6.2820   -3.0211    5.7922 H   0  0  0  0  0  0  0  0  0  0  0  0
    4.5524   -2.9384    6.0995 H   0  0  0  0  0  0  0  0  0  0  0  0
    2.3191   -2.6050    2.9744 H   0  0  0  0  0  0  0  0  0  0  0  0
    3.3849    0.1304    1.1108 H   0  0  0  0  0  0  0  0  0  0  0  0
    4.2991    0.0005   -0.3982 H   0  0  0  0  0  0  0  0  0  0  0  0
    5.1379    0.3583    1.0283 H   0  0  0  0  0  0  0  0  0  0  0  0
    4.3636   -1.8619   -1.9171 H   0  0  0  0  0  0  0  0  0  0  0  0
    2.8096   -1.2208   -1.4598 H   0  0  0  0  0  0  0  0  0  0  0  0
    2.9227   -2.8600   -2.0158 H   0  0  0  0  0  0  0  0  0  0  0  0
    1.8320   -1.9398    0.0602 H   0  0  0  0  0  0  0  0  0  0  0  0
    4.4883   -6.9158    4.3378 H   0  0  0  0  0  0  0  0  0  0  0  0
    3.5563   -5.6469    5.1730 H   0  0  0  0  0  0  0  0  0  0  0  0
    3.0948   -7.6761    6.2561 H   0  0  0  0  0  0  0  0  0  0  0  0
    0.7939   -9.8662    5.5633 H   0  0  0  0  0  0  0  0  0  0  0  0
    0.7720   -8.6210    6.8435 H   0  0  0  0  0  0  0  0  0  0  0  0
   -1.5792   -9.0280    5.5435 H   0  0  0  0  0  0  0  0  0  0  0  0
   -1.6363   -8.7990    2.4574 H   0  0  0  0  0  0  0  0  0  0  0  0
   -1.6515   -7.0429    2.2073 H   0  0  0  0  0  0  0  0  0  0  0  0
   -2.6995   -7.7873    3.4231 H   0  0  0  0  0  0  0  0  0  0  0  0
    0.6071   -8.7493    1.7075 H   0  0  0  0  0  0  0  0  0  0  0  0
    0.8076   -9.7741    3.0917 H   0  0  0  0  0  0  0  0  0  0  0  0
    2.2085   -8.9308    2.4932 H   0  0  0  0  0  0  0  0  0  0  0  0
  1  2  1  0
  1 37  1  0
  1 38  1  0
  1 39  1  0
  2  3  1  0
  3 35  1  0
  3  4  1  0
  3  6  1  0
  4  5  1  0
  5 40  1  0
  5 41  1  0
  5 42  1  0
  6  7  1  0
  6 27  1  0
  6 43  1  6
  7 20  1  0
  7  8  1  0
  7 44  1  6
  8  9  1  0
  8 45  1  0
  8 46  1  0
  9 24  1  0
  9 10  1  0
  9 47  1  6
 10 11  1  0
 10 48  1  0
 10 49  1  0
 11 22  1  0
 11 12  1  0
 11 50  1  6
 13 12  1  6
 13 20  1  0
 13 14  1  0
 13 22  1  0
 14 15  2  0
 14 16  1  0
 16 17  1  0
 17 18  1  0
 17 51  1  0
 17 52  1  0
 18 19  2  0
 18 20  1  0
 20 21  1  1
 21 53  1  0
 22 23  1  1
 22 24  1  0
 23 54  1  0
 23 55  1  0
 23 56  1  0
 24 25  1  0
 24 26  1  1
 25 57  1  0
 25 58  1  0
 25 59  1  0
 26 60  1  0
 27 28  1  0
 27 61  1  0
 27 62  1  0
 28 29  2  0
 28 63  1  0
 29 35  1  0
 29 30  1  0
 30 31  1  0
 30 64  1  0
 30 65  1  0
 31 33  1  0
 31 32  1  0
 31 66  1  6
 32 33  1  0
 33 34  1  6
 33 35  1  0
 34 67  1  0
 34 68  1  0
 34 69  1  0
 35 36  1  6
 36 70  1  0
 36 71  1  0
 36 72  1  0
M  END
>  <i_m_ct_stereo_status>  (1) 
1

>  <s_m_source_file>  (1) 
/var/tmp/pbs.5076255.sched01/tmp0du1nuht/0914ajmtz.sdf

>  <i_m_source_file_index>  (1) 
1

>  <i_lp_mmshare_version>  (1) 
48012

>  <i_f3d_flags>  (1) 
0

>  <s_epik_input>  (1) 
W0NIM11bQ0BdMTJbQ0BIXShPMSlbQ0gyXUMzW0NAXTIoW0NIM10pQyhPW0NIM10pKE9bQ0gzXSlbQ0BIXShbQ0gyXVtDSF09MylbQ0BASF0oW0NAQF0oW0NAXTQ1NikoW09IXSlDKD1PKVtDSDJdT0M1PU8pW0NIMl1bQ0BASF03W0NIMl1bQ0BIXShPNClbQ0BAXTYoW0NIM10pW0NAXTcoW0NIM10pW09IXQ==

>  <s_epik_cmdline>  (1) 
J2VwaWtfcHl0aG9uJywgJy1waHQnLCAnMi4wJywgJy1waCcsICc3LjAnLCAnLXRuJywgJzgnLCAnLW1hJywgJzIwMCcsICctaW1hZScsICc8aW5maWxlLm1hZT4nLCAnLW9tYWUnLCAnPG91dGZpbGUubWFlPic=

>  <r_lp_tautomer_probability>  (1) 
1

>  <r_epik_Ionization_Penalty>  (1) 
9.20776e-07

>  <r_epik_Ionization_Penalty_Charging>  (1) 
0

>  <r_epik_Ionization_Penalty_Neutral>  (1) 
9.20776e-07

>  <r_epik_State_Penalty>  (1) 
-0

>  <r_epik_Charging_Adjusted_Penalty>  (1) 
0

>  <i_epik_Tot_Q>  (1) 
0

>  <i_epik_Tot_abs_Q>  (1) 
0

>  <s_epik_Chemistry_Notes>  (1) 
This compound has an ester and may undergo hydrolysis at high or low pH.

>  <s_lp_Force_Field>  (1) 
OPLS3e

>  <r_lp_Energy>  (1) 
99.5645

>  <b_lp_Chiralities_Consistent>  (1) 
1

>  <s_lp_Variant>  (1) 
0:0-1

>  <s_i_glide_gridfile>  (1) 
pfpi4k_grid

>  <i_i_glide_lignum>  (1) 
1

>  <i_i_glide_rotatable_bonds>  (1) 
5

>  <r_i_docking_score>  (1) 
-3.15982

>  <r_i_glide_ligand_efficiency>  (1) 
-0.0877727

>  <r_i_glide_ligand_efficiency_sa>  (1) 
-0.289819

>  <r_i_glide_ligand_efficiency_ln>  (1) 
-0.689386

>  <r_i_glide_gscore>  (1) 
-3.15982

>  <r_i_glide_lipo>  (1) 
-0.398966

>  <r_i_glide_hbond>  (1) 
-0.165754

>  <r_i_glide_metal>  (1) 
-0

>  <r_i_glide_rewards>  (1) 
-0.6583

>  <r_i_glide_evdw>  (1) 
-19.4711

>  <r_i_glide_ecoul>  (1) 
-6.62024

>  <r_i_glide_erotb>  (1) 
0.0562208

>  <r_i_glide_esite>  (1) 
-0.0264257

>  <r_i_glide_emodel>  (1) 
-23.5537

>  <r_i_glide_energy>  (1) 
-26.0913

>  <r_i_glide_einternal>  (1) 
21.938

>  <r_i_glide_intrahb_reward>  (1) 
-0.5

>  <i_i_glide_confnum>  (1) 
4

>  <i_i_glide_posenum>  (1) 
39

>  <r_i_glide_eff_state_penalty>  (1) 
0

>  <ligand_id>  (1) 
0

>  <original_smiles>  (1) 
COC1(OC)C(C2CC3CC4OC5(C(=O)OCC(=O)C25O)C4(C)C3(C)O)CC=C2CC3OC3(C)C21C

>  <smiles>  (1) 
[H]OC12C(=O)C([H])([H])OC(=O)C13OC1([H])C([H])([H])C([H])(C([H])([H])C2([H])C2([H])C([H])([H])C([H])=C4C([H])([H])C5([H])OC5(C([H])([H])[H])C4(C([H])([H])[H])C2(OC([H])([H])[H])OC([H])([H])[H])C(O[H])(C([H])([H])[H])C13C([H])([H])[H]

$$$$
1:0:0
     RDKit          3D

 50 55  0  0  1  0  0  0  0  0999 V2000
    1.3732   -1.2928    2.4938 C   0  0  0  0  0  0  0  0  0  0  0  0
    1.8036   -2.5238    2.8372 C   0  0  0  0  0  0  0  0  0  0  0  0
    1.0319   -3.5256    3.6761 C   0  0  0  0  0  0  0  0  0  0  0  0
    2.0722   -4.5649    4.1530 C   0  0  0  0  0  0  0  0  0  0  0  0
    3.4356   -3.9147    3.8657 C   0  0  1  0  0  0  0  0  0  0  0  0
    3.6905   -3.0445    4.9695 O   0  0  0  0  0  0  0  0  0  0  0  0
    4.6426   -4.8327    3.6623 C   0  0  0  0  0  0  0  0  0  0  0  0
    4.8035   -5.9956    4.3115 C   0  0  0  0  0  0  0  0  0  0  0  0
    5.6379   -4.3338    2.6021 C   0  0  1  0  0  0  0  0  0  0  0  0
    5.2671   -4.9504    1.2044 C   0  0  0  0  0  0  0  0  0  0  0  0
    5.4047   -3.9230    0.0508 C   0  0  1  0  0  0  0  0  0  0  0  0
    6.8154   -4.0663   -0.1971 O   0  0  0  0  0  0  0  0  0  0  0  0
    4.6931   -4.0675   -1.3512 C   0  0  2  0  0  0  0  0  0  0  0  0
    5.3810   -3.0736   -2.3315 C   0  0  0  0  0  0  0  0  0  0  0  0
    4.9422   -1.8183   -1.7900 O   0  0  0  0  0  0  0  0  0  0  0  0
    4.0448   -2.0882   -0.7280 C   0  0  1  0  0  0  0  0  0  0  0  0
    3.2206   -1.0185   -0.3971 O   0  0  0  0  0  0  0  0  0  0  0  0
    3.3325   -3.3393   -1.3000 C   0  0  1  0  0  0  0  0  0  0  0  0
    2.7392   -3.0391   -2.5588 O   0  0  0  0  0  0  0  0  0  0  0  0
    2.2256   -4.0745   -0.5402 C   0  0  0  0  0  0  0  0  0  0  0  0
    2.3241   -5.1159    0.0543 O   0  0  0  0  0  0  0  0  0  0  0  0
    4.9001   -2.4961    0.4917 C   0  0  2  0  0  0  0  0  0  0  0  0
    6.1124   -1.6131    0.7722 C   0  0  0  0  0  0  0  0  0  0  0  0
    6.5998   -0.7477    0.0565 O   0  0  0  0  0  0  0  0  0  0  0  0
    6.5614   -1.9852    1.9314 O   0  0  0  0  0  0  0  0  0  0  0  0
    5.5959   -2.7515    2.6422 C   0  0  1  0  0  0  0  0  0  0  0  0
    4.3085   -2.3068    1.9533 C   0  0  2  0  0  0  0  0  0  0  0  0
    3.1331   -3.1798    2.5255 C   0  0  2  0  0  0  0  0  0  0  0  0
    1.9782   -0.6063    1.9218 H   0  0  0  0  0  0  0  0  0  0  0  0
    0.3736   -0.9689    2.7484 H   0  0  0  0  0  0  0  0  0  0  0  0
    0.5047   -3.0358    4.4949 H   0  0  0  0  0  0  0  0  0  0  0  0
    0.3054   -4.0230    3.0538 H   0  0  0  0  0  0  0  0  0  0  0  0
    1.9168   -4.8527    5.1940 H   0  0  0  0  0  0  0  0  0  0  0  0
    1.9696   -5.4714    3.5487 H   0  0  0  0  0  0  0  0  0  0  0  0
    4.5242   -2.6239    4.8363 H   0  0  0  0  0  0  0  0  0  0  0  0
    4.0723   -6.3257    5.0355 H   0  0  0  0  0  0  0  0  0  0  0  0
    5.6548   -6.6386    4.1299 H   0  0  0  0  0  0  0  0  0  0  0  0
    6.6238   -4.6931    2.8837 H   0  0  0  0  0  0  0  0  0  0  0  0
    5.8984   -5.8190    1.0143 H   0  0  0  0  0  0  0  0  0  0  0  0
    4.2659   -5.3707    1.2525 H   0  0  0  0  0  0  0  0  0  0  0  0
    7.0658   -3.5166   -0.9253 H   0  0  0  0  0  0  0  0  0  0  0  0
    4.6642   -5.0839   -1.7267 H   0  0  0  0  0  0  0  0  0  0  0  0
    6.4640   -3.1423   -2.4005 H   0  0  0  0  0  0  0  0  0  0  0  0
    5.0259   -3.2074   -3.3539 H   0  0  0  0  0  0  0  0  0  0  0  0
    2.3482   -1.1220   -0.7743 H   0  0  0  0  0  0  0  0  0  0  0  0
    1.9772   -2.4883   -2.4118 H   0  0  0  0  0  0  0  0  0  0  0  0
    1.2620   -3.5546   -0.7141 H   0  0  0  0  0  0  0  0  0  0  0  0
    5.6512   -2.4167    3.6748 H   0  0  0  0  0  0  0  0  0  0  0  0
    4.1514   -1.2392    2.1808 H   0  0  0  0  0  0  0  0  0  0  0  0
    2.9086   -3.9351    1.8229 H   0  0  0  0  0  0  0  0  0  0  0  0
  1  2  2  0
  1 29  1  0
  1 30  1  0
  2 28  1  0
  2  3  1  0
  3  4  1  0
  3 31  1  0
  3 32  1  0
  4  5  1  0
  4 33  1  0
  4 34  1  0
  5 28  1  0
  5  6  1  1
  5  7  1  0
  6 35  1  0
  7  8  2  0
  7  9  1  0
  8 36  1  0
  8 37  1  0
  9 26  1  0
  9 10  1  0
  9 38  1  1
 10 11  1  0
 10 39  1  0
 10 40  1  0
 11 22  1  0
 11 12  1  6
 11 13  1  0
 12 41  1  0
 13 18  1  0
 13 14  1  0
 13 42  1  6
 14 15  1  0
 14 43  1  0
 14 44  1  0
 15 16  1  0
 16 17  1  1
 16 18  1  0
 16 22  1  0
 17 45  1  0
 18 19  1  6
 18 20  1  0
 19 46  1  0
 20 21  2  0
 20 47  1  0
 22 27  1  0
 22 23  1  1
 23 24  2  0
 23 25  1  0
 25 26  1  0
 26 27  1  0
 26 48  1  1
 27 28  1  0
 27 49  1  1
 28 50  1  6
M  END
>  <i_m_ct_stereo_status>  (2) 
1

>  <s_m_source_file>  (2) 
/var/tmp/pbs.5076255.sched01/tmp0du1nuht/0914ajmtz.sdf

>  <i_m_source_file_index>  (2) 
2

>  <i_lp_mmshare_version>  (2) 
48012

>  <i_f3d_flags>  (2) 
0

>  <s_epik_input>  (2) 
W0NIMl09QzFbQ0gyXVtDSDJdW0NAQF0oW09IXSkoQzI9W0NIMl0pW0NAQEhdMVtDQEBIXTNbQ0hdKE9DND1PKVtDQEBIXTJbQ0gyXVtDQEBdKFtDQEBdMzQ1KShbT0hdKVtDQEBIXTZbQ0gyXU9bQ0BAXTUoW09IXSlbQ0BdNihbT0hdKVtDSF09Tw==

>  <s_epik_cmdline>  (2) 
J2VwaWtfcHl0aG9uJywgJy1waHQnLCAnMi4wJywgJy1waCcsICc3LjAnLCAnLXRuJywgJzgnLCAnLW1hJywgJzIwMCcsICctaW1hZScsICc8aW5maWxlLm1hZT4nLCAnLW9tYWUnLCAnPG91dGZpbGUubWFlPic=

>  <r_lp_tautomer_probability>  (2) 
1

>  <r_epik_Ionization_Penalty>  (2) 
1.89905e-05

>  <r_epik_Ionization_Penalty_Charging>  (2) 
0

>  <r_epik_Ionization_Penalty_Neutral>  (2) 
1.89905e-05

>  <r_epik_State_Penalty>  (2) 
-0

>  <r_epik_Charging_Adjusted_Penalty>  (2) 
0

>  <i_epik_Tot_Q>  (2) 
0

>  <i_epik_Tot_abs_Q>  (2) 
0

>  <s_epik_Chemistry_Notes>  (2) 
This compound has an ester and may undergo hydrolysis at high or low pH.

>  <s_lp_Force_Field>  (2) 
OPLS3e

>  <r_lp_Energy>  (2) 
81.4261

>  <b_lp_Chiralities_Consistent>  (2) 
1

>  <s_lp_Variant>  (2) 
1:0-1

>  <s_i_glide_gridfile>  (2) 
pfpi4k_grid

>  <i_i_glide_lignum>  (2) 
2

>  <i_i_glide_rotatable_bonds>  (2) 
5

>  <r_i_docking_score>  (2) 
-3.31594

>  <r_i_glide_ligand_efficiency>  (2) 
-0.118426

>  <r_i_glide_ligand_efficiency_sa>  (2) 
-0.359612

>  <r_i_glide_ligand_efficiency_ln>  (2) 
-0.765416

>  <r_i_glide_gscore>  (2) 
-3.31594

>  <r_i_glide_lipo>  (2) 
-0.466607

>  <r_i_glide_hbond>  (2) 
-0.0403921

>  <r_i_glide_metal>  (2) 
-0

>  <r_i_glide_rewards>  (2) 
-0.929633

>  <r_i_glide_evdw>  (2) 
-9.65662

>  <r_i_glide_ecoul>  (2) 
-8.63422

>  <r_i_glide_erotb>  (2) 
0

>  <r_i_glide_esite>  (2) 
-0.101344

>  <r_i_glide_emodel>  (2) 
-17.9324

>  <r_i_glide_energy>  (2) 
-18.2908

>  <r_i_glide_einternal>  (2) 
3.11258

>  <r_i_glide_intrahb_reward>  (2) 
-0

>  <i_i_glide_confnum>  (2) 
2

>  <i_i_glide_posenum>  (2) 
14

>  <r_i_glide_eff_state_penalty>  (2) 
0

>  <ligand_id>  (2) 
1

>  <original_smiles>  (2) 
C=C1CCC2(O)C(=C)C3CC4(O)C5COC(O)(C5(O)C=O)C45C(=O)OC3C5C12

>  <smiles>  (2) 
[H]OC12OC([H])([H])C([H])(C1(O[H])C([H])=O)C1(O[H])C([H])([H])C3([H])C(=C([H])[H])C4(O[H])C([H])([H])C([H])([H])C(=C([H])[H])C4([H])C4([H])C3([H])OC(=O)C241

$$$$
1:0:1
     RDKit          3D

 50 55  0  0  1  0  0  0  0  0999 V2000
    2.3576    0.1024    1.4538 C   0  0  0  0  0  0  0  0  0  0  0  0
    2.2850   -1.1292    1.9839 C   0  0  0  0  0  0  0  0  0  0  0  0
    1.1680   -1.6368    2.8551 C   0  0  0  0  0  0  0  0  0  0  0  0
    1.6768   -2.9363    3.5072 C   0  0  0  0  0  0  0  0  0  0  0  0
    3.1972   -2.8620    3.3130 C   0  0  1  0  0  0  0  0  0  0  0  0
    3.6400   -1.9690    4.3244 O   0  0  0  0  0  0  0  0  0  0  0  0
    4.0225   -4.1432    3.3708 C   0  0  0  0  0  0  0  0  0  0  0  0
    3.7079   -5.1929    4.1499 C   0  0  0  0  0  0  0  0  0  0  0  0
    5.2022   -4.1579    2.4123 C   0  0  1  0  0  0  0  0  0  0  0  0
    4.7615   -4.7762    1.0492 C   0  0  0  0  0  0  0  0  0  0  0  0
    5.3621   -3.9868   -0.1395 C   0  0  1  0  0  0  0  0  0  0  0  0
    6.6400   -4.6059   -0.1323 O   0  0  0  0  0  0  0  0  0  0  0  0
    4.9355   -4.0817   -1.6216 C   0  0  2  0  0  0  0  0  0  0  0  0
    5.9328   -3.4089   -2.5867 C   0  0  0  0  0  0  0  0  0  0  0  0
    5.8290   -2.0332   -2.2440 O   0  0  0  0  0  0  0  0  0  0  0  0
    4.7953   -1.9281   -1.3202 C   0  0  1  0  0  0  0  0  0  0  0  0
    4.2828   -0.6613   -1.2785 O   0  0  0  0  0  0  0  0  0  0  0  0
    3.8647   -3.0424   -1.8640 C   0  0  1  0  0  0  0  0  0  0  0  0
    3.4559   -2.7750   -3.2062 O   0  0  0  0  0  0  0  0  0  0  0  0
    2.5604   -3.3034   -1.1864 C   0  0  0  0  0  0  0  0  0  0  0  0
    2.1617   -4.3826   -0.7465 O   0  0  0  0  0  0  0  0  0  0  0  0
    5.3646   -2.4496    0.0433 C   0  0  2  0  0  0  0  0  0  0  0  0
    6.7637   -2.0921    0.4330 C   0  0  0  0  0  0  0  0  0  0  0  0
    7.6265   -1.5736   -0.2976 O   0  0  0  0  0  0  0  0  0  0  0  0
    6.9051   -2.5022    1.6403 O   0  0  0  0  0  0  0  0  0  0  0  0
    5.6680   -2.6795    2.2796 C   0  0  1  0  0  0  0  0  0  0  0  0
    4.7353   -1.8887    1.3749 C   0  0  2  0  0  0  0  0  0  0  0  0
    3.3098   -2.2158    1.9129 C   0  0  2  0  0  0  0  0  0  0  0  0
    3.2104    0.4329    0.8741 H   0  0  0  0  0  0  0  0  0  0  0  0
    1.5113    0.7688    1.5466 H   0  0  0  0  0  0  0  0  0  0  0  0
    0.8177   -0.8720    3.5409 H   0  0  0  0  0  0  0  0  0  0  0  0
    0.3744   -1.8724    2.1918 H   0  0  0  0  0  0  0  0  0  0  0  0
    1.3929   -3.0329    4.5503 H   0  0  0  0  0  0  0  0  0  0  0  0
    1.3127   -3.8116    2.9678 H   0  0  0  0  0  0  0  0  0  0  0  0
    4.5694   -1.8657    4.2652 H   0  0  0  0  0  0  0  0  0  0  0  0
    2.8426   -5.1406    4.8062 H   0  0  0  0  0  0  0  0  0  0  0  0
    4.3077   -6.0952    4.1645 H   0  0  0  0  0  0  0  0  0  0  0  0
    5.9667   -4.7806    2.8737 H   0  0  0  0  0  0  0  0  0  0  0  0
    5.1165   -5.8028    1.0295 H   0  0  0  0  0  0  0  0  0  0  0  0
    3.6803   -4.8683    1.0313 H   0  0  0  0  0  0  0  0  0  0  0  0
    7.0572   -4.4760    0.7056 H   0  0  0  0  0  0  0  0  0  0  0  0
    4.7249   -5.0848   -1.9038 H   0  0  0  0  0  0  0  0  0  0  0  0
    6.9621   -3.7175   -2.5472 H   0  0  0  0  0  0  0  0  0  0  0  0
    5.5849   -3.6242   -3.6027 H   0  0  0  0  0  0  0  0  0  0  0  0
    4.9533   -0.0754   -0.8838 H   0  0  0  0  0  0  0  0  0  0  0  0
    2.9032   -2.0067   -3.1787 H   0  0  0  0  0  0  0  0  0  0  0  0
    1.9775   -2.4241   -1.3328 H   0  0  0  0  0  0  0  0  0  0  0  0
    5.7890   -2.2201    3.2508 H   0  0  0  0  0  0  0  0  0  0  0  0
    4.9444   -0.8186    1.4782 H   0  0  0  0  0  0  0  0  0  0  0  0
    2.8483   -2.9411    1.2687 H   0  0  0  0  0  0  0  0  0  0  0  0
  1  2  2  0
  1 29  1  0
  1 30  1  0
  2 28  1  0
  2  3  1  0
  3  4  1  0
  3 31  1  0
  3 32  1  0
  4  5  1  0
  4 33  1  0
  4 34  1  0
  5 28  1  0
  5  6  1  1
  5  7  1  0
  6 35  1  0
  7  8  2  0
  7  9  1  0
  8 36  1  0
  8 37  1  0
  9 26  1  0
  9 10  1  0
  9 38  1  1
 10 11  1  0
 10 39  1  0
 10 40  1  0
 11 22  1  0
 11 12  1  6
 11 13  1  0
 12 41  1  0
 13 18  1  0
 13 14  1  0
 13 42  1  6
 14 15  1  0
 14 43  1  0
 14 44  1  0
 15 16  1  0
 16 17  1  1
 16 18  1  0
 16 22  1  0
 17 45  1  0
 18 19  1  6
 18 20  1  0
 19 46  1  0
 20 21  2  0
 20 47  1  0
 22 27  1  0
 22 23  1  1
 23 24  2  0
 23 25  1  0
 25 26  1  0
 26 27  1  0
 26 48  1  1
 27 28  1  0
 27 49  1  6
 28 50  1  6
M  END
>  <i_m_ct_stereo_status>  (3) 
1

>  <s_m_source_file>  (3) 
/var/tmp/pbs.5076255.sched01/tmp0du1nuht/0914ajmtz.sdf

>  <i_m_source_file_index>  (3) 
2

>  <i_lp_mmshare_version>  (3) 
48012

>  <i_f3d_flags>  (3) 
0

>  <s_epik_input>  (3) 
W0NIMl09QzFbQ0gyXVtDSDJdW0NAQF0oW09IXSkoQzI9W0NIMl0pW0NAQEhdMVtDQEBIXTNbQ0hdKE9DND1PKVtDQEBIXTJbQ0gyXVtDQEBdKFtDQEBdMzQ1KShbT0hdKVtDQEBIXTZbQ0gyXU9bQ0BAXTUoW09IXSlbQ0BdNihbT0hdKVtDSF09Tw==

>  <s_epik_cmdline>  (3) 
J2VwaWtfcHl0aG9uJywgJy1waHQnLCAnMi4wJywgJy1waCcsICc3LjAnLCAnLXRuJywgJzgnLCAnLW1hJywgJzIwMCcsICctaW1hZScsICc8aW5maWxlLm1hZT4nLCAnLW9tYWUnLCAnPG91dGZpbGUubWFlPic=

>  <r_lp_tautomer_probability>  (3) 
1

>  <r_epik_Ionization_Penalty>  (3) 
1.89905e-05

>  <r_epik_Ionization_Penalty_Charging>  (3) 
0

>  <r_epik_Ionization_Penalty_Neutral>  (3) 
1.89905e-05

>  <r_epik_State_Penalty>  (3) 
-0

>  <r_epik_Charging_Adjusted_Penalty>  (3) 
0

>  <i_epik_Tot_Q>  (3) 
0

>  <i_epik_Tot_abs_Q>  (3) 
0

>  <s_epik_Chemistry_Notes>  (3) 
This compound has an ester and may undergo hydrolysis at high or low pH.

>  <s_lp_Force_Field>  (3) 
OPLS3e

>  <r_lp_Energy>  (3) 
81.4261

>  <b_lp_Chiralities_Consistent>  (3) 
1

>  <s_lp_Variant>  (3) 
1:0-1

>  <s_i_glide_gridfile>  (3) 
pfpi4k_grid

>  <i_i_glide_lignum>  (3) 
2

>  <i_i_glide_rotatable_bonds>  (3) 
5

>  <r_i_docking_score>  (3) 
-2.96157

>  <r_i_glide_ligand_efficiency>  (3) 
-0.10577

>  <r_i_glide_ligand_efficiency_sa>  (3) 
-0.321181

>  <r_i_glide_ligand_efficiency_ln>  (3) 
-0.683617

>  <r_i_glide_gscore>  (3) 
-2.96157

>  <r_i_glide_lipo>  (3) 
-0.535783

>  <r_i_glide_hbond>  (3) 
-0.122055

>  <r_i_glide_metal>  (3) 
-0

>  <r_i_glide_rewards>  (3) 
-0.867628

>  <r_i_glide_evdw>  (3) 
-6.47746

>  <r_i_glide_ecoul>  (3) 
-7.20927

>  <r_i_glide_erotb>  (3) 
0

>  <r_i_glide_esite>  (3) 
-0.0308386

>  <r_i_glide_emodel>  (3) 
-14.4655

>  <r_i_glide_energy>  (3) 
-13.6867

>  <r_i_glide_einternal>  (3) 
2.39057

>  <r_i_glide_intrahb_reward>  (3) 
-0

>  <i_i_glide_confnum>  (3) 
2

>  <i_i_glide_posenum>  (3) 
25

>  <r_i_glide_eff_state_penalty>  (3) 
0

>  <ligand_id>  (3) 
1

>  <original_smiles>  (3) 
C=C1CCC2(O)C(=C)C3CC4(O)C5COC(O)(C5(O)C=O)C45C(=O)OC3C5C12

>  <smiles>  (3) 
[H]OC12OC([H])([H])C([H])(C1(O[H])C([H])=O)C1(O[H])C([H])([H])C3([H])C(=C([H])[H])C4(O[H])C([H])([H])C([H])([H])C(=C([H])[H])C4([H])C4([H])C3([H])OC(=O)C241

$$$$
1:0:2
     RDKit          3D

 50 55  0  0  1  0  0  0  0  0999 V2000
    2.4597    0.2497    1.3203 C   0  0  0  0  0  0  0  0  0  0  0  0
    2.5391   -0.8466    2.0835 C   0  0  0  0  0  0  0  0  0  0  0  0
    1.6194   -1.2034    3.2240 C   0  0  0  0  0  0  0  0  0  0  0  0
    2.3980   -2.2469    4.0671 C   0  0  0  0  0  0  0  0  0  0  0  0
    3.8478   -2.1885    3.5515 C   0  0  1  0  0  0  0  0  0  0  0  0
    4.4449   -1.0844    4.2140 O   0  0  0  0  0  0  0  0  0  0  0  0
    4.7297   -3.4378    3.7129 C   0  0  0  0  0  0  0  0  0  0  0  0
    4.6462   -4.2646    4.7628 C   0  0  0  0  0  0  0  0  0  0  0  0
    5.6776   -3.6723    2.5518 C   0  0  1  0  0  0  0  0  0  0  0  0
    4.9629   -4.5734    1.5093 C   0  0  0  0  0  0  0  0  0  0  0  0
    5.2930   -4.0838    0.0907 C   0  0  1  0  0  0  0  0  0  0  0  0
    6.5528   -4.7513   -0.0172 O   0  0  0  0  0  0  0  0  0  0  0  0
    4.4677   -4.4716   -1.1531 C   0  0  2  0  0  0  0  0  0  0  0  0
    5.1904   -4.1293   -2.4613 C   0  0  0  0  0  0  0  0  0  0  0  0
    5.2010   -2.7091   -2.4586 O   0  0  0  0  0  0  0  0  0  0  0  0
    4.4175   -2.3112   -1.3834 C   0  0  1  0  0  0  0  0  0  0  0  0
    3.9317   -1.0030   -1.5614 O   0  0  0  0  0  0  0  0  0  0  0  0
    3.3769   -3.4158   -1.4275 C   0  0  1  0  0  0  0  0  0  0  0  0
    2.6952   -3.4011   -2.6788 O   0  0  0  0  0  0  0  0  0  0  0  0
    2.2938   -3.5514   -0.4066 C   0  0  0  0  0  0  0  0  0  0  0  0
    1.9321   -4.6645   -0.0213 O   0  0  0  0  0  0  0  0  0  0  0  0
    5.2539   -2.5306   -0.0703 C   0  0  2  0  0  0  0  0  0  0  0  0
    6.7088   -2.1226   -0.1330 C   0  0  0  0  0  0  0  0  0  0  0  0
    7.3731   -1.8931   -1.1350 O   0  0  0  0  0  0  0  0  0  0  0  0
    7.1053   -2.1136    1.1029 O   0  0  0  0  0  0  0  0  0  0  0  0
    6.0548   -2.2338    2.0256 C   0  0  1  0  0  0  0  0  0  0  0  0
    4.8930   -1.6812    1.2002 C   0  0  2  0  0  0  0  0  0  0  0  0
    3.6197   -1.8767    2.0683 C   0  0  2  0  0  0  0  0  0  0  0  0
    3.1879    0.4674    0.5611 H   0  0  0  0  0  0  0  0  0  0  0  0
    1.6498    0.9477    1.4362 H   0  0  0  0  0  0  0  0  0  0  0  0
    1.3754   -0.3055    3.7918 H   0  0  0  0  0  0  0  0  0  0  0  0
    0.6995   -1.6254    2.8234 H   0  0  0  0  0  0  0  0  0  0  0  0
    2.3094   -2.0628    5.1378 H   0  0  0  0  0  0  0  0  0  0  0  0
    1.9895   -3.2361    3.8620 H   0  0  0  0  0  0  0  0  0  0  0  0
    5.2442   -0.8390    3.7744 H   0  0  0  0  0  0  0  0  0  0  0  0
    3.9500   -4.0717    5.5624 H   0  0  0  0  0  0  0  0  0  0  0  0
    5.2687   -5.1405    4.8368 H   0  0  0  0  0  0  0  0  0  0  0  0
    6.5726   -4.2444    2.8772 H   0  0  0  0  0  0  0  0  0  0  0  0
    5.3179   -5.6009    1.6302 H   0  0  0  0  0  0  0  0  0  0  0  0
    3.8820   -4.6303    1.6361 H   0  0  0  0  0  0  0  0  0  0  0  0
    7.1400   -4.4641    0.6692 H   0  0  0  0  0  0  0  0  0  0  0  0
    4.2278   -5.5181   -1.0989 H   0  0  0  0  0  0  0  0  0  0  0  0
    6.2091   -4.4029   -2.5240 H   0  0  0  0  0  0  0  0  0  0  0  0
    4.7159   -4.5750   -3.3423 H   0  0  0  0  0  0  0  0  0  0  0  0
    4.6263   -0.4028   -1.3388 H   0  0  0  0  0  0  0  0  0  0  0  0
    2.3155   -4.2663   -2.8011 H   0  0  0  0  0  0  0  0  0  0  0  0
    1.8607   -2.6148   -0.1052 H   0  0  0  0  0  0  0  0  0  0  0  0
    6.3525   -1.5834    2.8432 H   0  0  0  0  0  0  0  0  0  0  0  0
    5.0805   -0.6169    1.0256 H   0  0  0  0  0  0  0  0  0  0  0  0
    3.1138   -2.7506    1.7378 H   0  0  0  0  0  0  0  0  0  0  0  0
  1  2  2  0
  1 29  1  0
  1 30  1  0
  2 28  1  0
  2  3  1  0
  3  4  1  0
  3 31  1  0
  3 32  1  0
  4  5  1  0
  4 33  1  0
  4 34  1  0
  5 28  1  0
  5  6  1  1
  5  7  1  0
  6 35  1  0
  7  8  2  0
  7  9  1  0
  8 36  1  0
  8 37  1  0
  9 26  1  0
  9 10  1  0
  9 38  1  1
 10 11  1  0
 10 39  1  0
 10 40  1  0
 11 22  1  0
 11 12  1  6
 11 13  1  0
 12 41  1  0
 13 18  1  0
 13 14  1  0
 13 42  1  6
 14 15  1  0
 14 43  1  0
 14 44  1  0
 15 16  1  0
 16 17  1  6
 16 18  1  0
 16 22  1  0
 17 45  1  0
 18 19  1  6
 18 20  1  0
 19 46  1  0
 20 21  2  0
 20 47  1  0
 22 27  1  0
 22 23  1  6
 23 24  2  0
 23 25  1  0
 25 26  1  0
 26 27  1  0
 26 48  1  1
 27 28  1  0
 27 49  1  6
 28 50  1  6
M  END
>  <i_m_ct_stereo_status>  (4) 
1

>  <s_m_source_file>  (4) 
/var/tmp/pbs.5076255.sched01/tmp0du1nuht/0914ajmtz.sdf

>  <i_m_source_file_index>  (4) 
2

>  <i_lp_mmshare_version>  (4) 
48012

>  <i_f3d_flags>  (4) 
0

>  <s_epik_input>  (4) 
W0NIMl09QzFbQ0gyXVtDSDJdW0NAQF0oW09IXSkoQzI9W0NIMl0pW0NAQEhdMVtDQEBIXTNbQ0hdKE9DND1PKVtDQEBIXTJbQ0gyXVtDQEBdKFtDQEBdMzQ1KShbT0hdKVtDQEBIXTZbQ0gyXU9bQ0BAXTUoW09IXSlbQ0BdNihbT0hdKVtDSF09Tw==

>  <s_epik_cmdline>  (4) 
J2VwaWtfcHl0aG9uJywgJy1waHQnLCAnMi4wJywgJy1waCcsICc3LjAnLCAnLXRuJywgJzgnLCAnLW1hJywgJzIwMCcsICctaW1hZScsICc8aW5maWxlLm1hZT4nLCAnLW9tYWUnLCAnPG91dGZpbGUubWFlPic=

>  <r_lp_tautomer_probability>  (4) 
1

>  <r_epik_Ionization_Penalty>  (4) 
1.89905e-05

>  <r_epik_Ionization_Penalty_Charging>  (4) 
0

>  <r_epik_Ionization_Penalty_Neutral>  (4) 
1.89905e-05

>  <r_epik_State_Penalty>  (4) 
-0

>  <r_epik_Charging_Adjusted_Penalty>  (4) 
0

>  <i_epik_Tot_Q>  (4) 
0

>  <i_epik_Tot_abs_Q>  (4) 
0

>  <s_epik_Chemistry_Notes>  (4) 
This compound has an ester and may undergo hydrolysis at high or low pH.

>  <s_lp_Force_Field>  (4) 
OPLS3e

>  <r_lp_Energy>  (4) 
81.4261

>  <b_lp_Chiralities_Consistent>  (4) 
1

>  <s_lp_Variant>  (4) 
1:0-1

>  <s_i_glide_gridfile>  (4) 
pfpi4k_grid

>  <i_i_glide_lignum>  (4) 
2

>  <i_i_glide_rotatable_bonds>  (4) 
5

>  <r_i_docking_score>  (4) 
-2.76613

>  <r_i_glide_ligand_efficiency>  (4) 
-0.0987902

>  <r_i_glide_ligand_efficiency_sa>  (4) 
-0.299985

>  <r_i_glide_ligand_efficiency_ln>  (4) 
-0.638503

>  <r_i_glide_gscore>  (4) 
-2.76613

>  <r_i_glide_lipo>  (4) 
-0.315845

>  <r_i_glide_hbond>  (4) 
-0.152877

>  <r_i_glide_metal>  (4) 
-0

>  <r_i_glide_rewards>  (4) 
-0.747383

>  <r_i_glide_evdw>  (4) 
3.02348

>  <r_i_glide_ecoul>  (4) 
-10.6845

>  <r_i_glide_erotb>  (4) 
0

>  <r_i_glide_esite>  (4) 
-0.0985249

>  <r_i_glide_emodel>  (4) 
-8.18823

>  <r_i_glide_energy>  (4) 
-7.66099

>  <r_i_glide_einternal>  (4) 
2.31364

>  <r_i_glide_intrahb_reward>  (4) 
-0

>  <i_i_glide_confnum>  (4) 
1

>  <i_i_glide_posenum>  (4) 
37

>  <r_i_glide_eff_state_penalty>  (4) 
0

>  <ligand_id>  (4) 
1

>  <original_smiles>  (4) 
C=C1CCC2(O)C(=C)C3CC4(O)C5COC(O)(C5(O)C=O)C45C(=O)OC3C5C12

>  <smiles>  (4) 
[H]OC12OC([H])([H])C([H])(C1(O[H])C([H])=O)C1(O[H])C([H])([H])C3([H])C(=C([H])[H])C4(O[H])C([H])([H])C([H])([H])C(=C([H])[H])C4([H])C4([H])C3([H])OC(=O)C241

$$$$
3:0:0
     RDKit          3D

 68 74  0  0  1  0  0  0  0  0999 V2000
    3.3682   -2.9052   -1.6046 C   0  0  0  0  0  0  0  0  0  0  0  0
    4.3189   -3.2689   -0.4694 C   0  0  0  0  0  0  0  0  0  0  0  0
    3.9870   -3.9651    0.6591 C   0  0  0  0  0  0  0  0  0  0  0  0
    2.6394   -4.6487    0.8878 C   0  0  1  0  0  0  0  0  0  0  0  0
    1.9686   -5.0540   -0.2883 O   0  0  0  0  0  0  0  0  0  0  0  0
    2.8129   -5.9057    1.6964 C   0  0  1  0  0  0  0  0  0  0  0  0
    4.0998   -6.7662    1.7331 C   0  0  2  0  0  0  0  0  0  0  0  0
    4.8014   -7.1526    0.4280 C   0  0  0  0  0  0  0  0  0  0  0  0
    3.7650   -7.9930    2.5779 C   0  0  0  0  0  0  0  0  0  0  0  0
    2.9703   -7.3042    3.6914 C   0  0  1  0  0  0  0  0  0  0  0  0
    3.5141   -7.7576    4.9196 O   0  0  0  0  0  0  0  0  0  0  0  0
    3.5718   -6.8698    6.0312 C   0  0  1  0  0  0  0  0  0  0  0  0
    3.8938   -7.6950    7.3052 C   0  0  1  0  0  0  0  0  0  0  0  0
    3.5497   -9.1988    7.2620 C   0  0  0  0  0  0  0  0  0  0  0  0
    5.3487   -7.3171    7.6640 C   0  0  1  0  0  0  0  0  0  0  0  0
    6.3927   -8.0887    6.7993 C   0  0  0  0  0  0  0  0  0  0  0  0
    6.4868   -7.5763    5.3619 C   0  0  0  0  0  0  0  0  0  0  0  0
    5.7549   -6.5275    4.9250 C   0  0  0  0  0  0  0  0  0  0  0  0
    5.9022   -5.9205    3.5205 C   0  0  0  0  0  0  0  0  0  0  0  0
    4.6458   -5.5850    2.6176 C   0  0  1  0  0  0  0  0  0  0  0  0
    4.9561   -4.2146    1.8379 C   0  0  2  0  0  0  0  0  0  0  0  0
    4.7947   -3.0026    2.7923 C   0  0  0  0  0  0  0  0  0  0  0  0
    6.3908   -4.1321    1.2828 C   0  0  0  0  0  0  0  0  0  0  0  0
    6.7459   -3.4955    0.1602 C   0  0  0  0  0  0  0  0  0  0  0  0
    5.7324   -2.8630   -0.6792 C   0  0  0  0  0  0  0  0  0  0  0  0
    6.0700   -2.0183   -1.5221 O   0  0  0  0  0  0  0  0  0  0  0  0
    3.2049   -5.8850    3.1774 C   0  0  1  0  0  0  0  0  0  0  0  0
    2.4942   -4.9096    3.9211 O   0  0  0  0  0  0  0  0  0  0  0  0
    4.7729   -5.8816    5.8960 C   0  0  2  0  0  0  0  0  0  0  0  0
    5.3797   -5.8058    7.3241 C   0  0  0  0  0  0  0  0  0  0  0  0
    4.4976   -4.9490    8.2722 C   0  0  0  0  0  0  0  0  0  0  0  0
    6.7933   -5.1613    7.4020 C   0  0  0  0  0  0  0  0  0  0  0  0
    3.6332   -1.9586   -2.0752 H   0  0  0  0  0  0  0  0  0  0  0  0
    2.3492   -2.7688   -1.2457 H   0  0  0  0  0  0  0  0  0  0  0  0
    3.3661   -3.6750   -2.3729 H   0  0  0  0  0  0  0  0  0  0  0  0
    1.9888   -3.9469    1.4180 H   0  0  0  0  0  0  0  0  0  0  0  0
    2.5902   -5.4040   -0.9244 H   0  0  0  0  0  0  0  0  0  0  0  0
    1.9372   -6.5598    1.5722 H   0  0  0  0  0  0  0  0  0  0  0  0
    5.7776   -7.5953    0.6313 H   0  0  0  0  0  0  0  0  0  0  0  0
    4.9674   -6.2859   -0.2251 H   0  0  0  0  0  0  0  0  0  0  0  0
    4.2351   -7.8738   -0.1580 H   0  0  0  0  0  0  0  0  0  0  0  0
    3.1688   -8.7358    2.0527 H   0  0  0  0  0  0  0  0  0  0  0  0
    4.6682   -8.4747    2.9526 H   0  0  0  0  0  0  0  0  0  0  0  0
    1.9143   -7.5602    3.6564 H   0  0  0  0  0  0  0  0  0  0  0  0
    2.6245   -6.3515    6.1713 H   0  0  0  0  0  0  0  0  0  0  0  0
    3.2643   -7.3141    8.1120 H   0  0  0  0  0  0  0  0  0  0  0  0
    4.0596   -9.7228    6.4507 H   0  0  0  0  0  0  0  0  0  0  0  0
    2.4796   -9.3485    7.1161 H   0  0  0  0  0  0  0  0  0  0  0  0
    3.8213   -9.6911    8.1969 H   0  0  0  0  0  0  0  0  0  0  0  0
    5.5402   -7.4999    8.7233 H   0  0  0  0  0  0  0  0  0  0  0  0
    7.3785   -7.9770    7.2499 H   0  0  0  0  0  0  0  0  0  0  0  0
    6.2011   -9.1641    6.8003 H   0  0  0  0  0  0  0  0  0  0  0  0
    7.2047   -8.0660    4.7209 H   0  0  0  0  0  0  0  0  0  0  0  0
    6.4804   -5.0373    3.7438 H   0  0  0  0  0  0  0  0  0  0  0  0
    6.5675   -6.5793    2.9559 H   0  0  0  0  0  0  0  0  0  0  0  0
    5.1057   -2.0794    2.2922 H   0  0  0  0  0  0  0  0  0  0  0  0
    5.4027   -3.0936    3.6912 H   0  0  0  0  0  0  0  0  0  0  0  0
    3.7617   -2.8385    3.0961 H   0  0  0  0  0  0  0  0  0  0  0  0
    7.1934   -4.5768    1.8509 H   0  0  0  0  0  0  0  0  0  0  0  0
    7.7808   -3.4302   -0.1504 H   0  0  0  0  0  0  0  0  0  0  0  0
    2.6855   -4.0807    3.5305 H   0  0  0  0  0  0  0  0  0  0  0  0
    4.4893   -4.8932    5.5400 H   0  0  0  0  0  0  0  0  0  0  0  0
    4.6070   -3.8905    8.0582 H   0  0  0  0  0  0  0  0  0  0  0  0
    4.7841   -5.0997    9.3166 H   0  0  0  0  0  0  0  0  0  0  0  0
    3.4319   -5.1615    8.1973 H   0  0  0  0  0  0  0  0  0  0  0  0
    6.7627   -4.1232    7.0682 H   0  0  0  0  0  0  0  0  0  0  0  0
    7.5520   -5.6575    6.7961 H   0  0  0  0  0  0  0  0  0  0  0  0
    7.1634   -5.1624    8.4258 H   0  0  0  0  0  0  0  0  0  0  0  0
  1  2  1  0
  1 33  1  0
  1 34  1  0
  1 35  1  0
  2 25  1  0
  2  3  2  0
  3 21  1  0
  3  4  1  0
  4  5  1  0
  4  6  1  0
  4 36  1  1
  5 37  1  0
  6 27  1  0
  6  7  1  0
  6 38  1  1
  7 20  1  0
  7  8  1  6
  7  9  1  0
  8 39  1  0
  8 40  1  0
  8 41  1  0
  9 10  1  0
  9 42  1  0
  9 43  1  0
 10 27  1  0
 10 11  1  0
 10 44  1  1
 11 12  1  0
 12 29  1  0
 12 13  1  0
 12 45  1  1
 13 14  1  0
 13 15  1  0
 13 46  1  1
 14 47  1  0
 14 48  1  0
 14 49  1  0
 15 30  1  0
 15 16  1  0
 15 50  1  1
 16 17  1  0
 16 51  1  0
 16 52  1  0
 17 18  2  0
 17 53  1  0
 18 19  1  0
 18 29  1  0
 20 19  1  1
 19 54  1  0
 19 55  1  0
 20 21  1  0
 20 27  1  0
 21 22  1  1
 21 23  1  0
 22 56  1  0
 22 57  1  0
 22 58  1  0
 23 24  2  0
 23 59  1  0
 24 25  1  0
 24 60  1  0
 25 26  2  0
 27 28  1  1
 28 61  1  0
 29 30  1  0
 29 62  1  6
 30 31  1  0
 30 32  1  0
 31 63  1  0
 31 64  1  0
 31 65  1  0
 32 66  1  0
 32 67  1  0
 32 68  1  0
M  END
>  <i_m_ct_stereo_status>  (5) 
1

>  <s_m_source_file>  (5) 
/var/tmp/pbs.5076255.sched01/tmp0du1nuht/0914ajmtz.sdf

>  <i_m_source_file_index>  (5) 
4

>  <i_lp_mmshare_version>  (5) 
48012

>  <i_f3d_flags>  (5) 
0

>  <s_epik_input>  (5) 
W0NIM11DPTFDKD1PKVtDSF09W0NIXVtDQEBdMihbQ0gzXSlDMVtDQEBIXShbT0hdKVtDQEBIXShbQ0BdMyhbQ0BdMjQ1KVtDSDNdKVtDQEBdNShbT0hdKVtDQEBIXShbQ0gyXTMpT1tDQEBIXTZbQ0BASF03QyhbQ0gyXTQpPVtDSF1bQ0gyXVtDQEhdKFtDQEBIXTZbQ0gzXSlDNyhbQ0gzXSlbQ0gzXQ==

>  <s_epik_cmdline>  (5) 
J2VwaWtfcHl0aG9uJywgJy1waHQnLCAnMi4wJywgJy1waCcsICc3LjAnLCAnLXRuJywgJzgnLCAnLW1hJywgJzIwMCcsICctaW1hZScsICc8aW5maWxlLm1hZT4nLCAnLW9tYWUnLCAnPG91dGZpbGUubWFlPic=

>  <r_lp_tautomer_probability>  (5) 
1

>  <r_epik_Ionization_Penalty>  (5) 
7.12965e-07

>  <r_epik_Ionization_Penalty_Charging>  (5) 
0

>  <r_epik_Ionization_Penalty_Neutral>  (5) 
7.12965e-07

>  <r_epik_State_Penalty>  (5) 
-0

>  <r_epik_Charging_Adjusted_Penalty>  (5) 
0

>  <i_epik_Tot_Q>  (5) 
0

>  <i_epik_Tot_abs_Q>  (5) 
0

>  <s_lp_Force_Field>  (5) 
OPLS3e

>  <r_lp_Energy>  (5) 
106.397

>  <b_lp_Chiralities_Consistent>  (5) 
1

>  <s_lp_Variant>  (5) 
3:0-1

>  <s_i_glide_gridfile>  (5) 
pfpi4k_grid

>  <i_i_glide_lignum>  (5) 
4

>  <i_i_glide_rotatable_bonds>  (5) 
2

>  <r_i_docking_score>  (5) 
-3.14232

>  <r_i_glide_ligand_efficiency>  (5) 
-0.0981976

>  <r_i_glide_ligand_efficiency_sa>  (5) 
-0.311758

>  <r_i_glide_ligand_efficiency_ln>  (5) 
-0.703652

>  <r_i_glide_gscore>  (5) 
-3.14232

>  <r_i_glide_lipo>  (5) 
-0.458937

>  <r_i_glide_hbond>  (5) 
-0.425776

>  <r_i_glide_metal>  (5) 
-0

>  <r_i_glide_rewards>  (5) 
-0.441411

>  <r_i_glide_evdw>  (5) 
-17.2946

>  <r_i_glide_ecoul>  (5) 
-6.34314

>  <r_i_glide_erotb>  (5) 
0

>  <r_i_glide_esite>  (5) 
0

>  <r_i_glide_emodel>  (5) 
-28.1752

>  <r_i_glide_energy>  (5) 
-23.6377

>  <r_i_glide_einternal>  (5) 
0.357791

>  <r_i_glide_intrahb_reward>  (5) 
-0

>  <i_i_glide_confnum>  (5) 
2

>  <i_i_glide_posenum>  (5) 
35

>  <r_i_glide_eff_state_penalty>  (5) 
0

>  <ligand_id>  (5) 
3

>  <original_smiles>  (5) 
CC1=C2C(O)C3C4(C)CC5OC6C(C)C7CC=C(CC4(C2(C)C=CC1=O)C53O)C6C7(C)C

>  <smiles>  (5) 
[H]OC1([H])C2=C(C([H])([H])[H])C(=O)C([H])=C([H])C2(C([H])([H])[H])C23C([H])([H])C4=C([H])C([H])([H])C5([H])C([H])(C([H])([H])[H])C([H])(OC6([H])C([H])([H])C2(C([H])([H])[H])C1([H])C63O[H])C4([H])C5(C([H])([H])[H])C([H])([H])[H]

$$$$
3:0:1
     RDKit          3D

 68 74  0  0  1  0  0  0  0  0999 V2000
    2.6063   -2.9724   -2.3900 C   0  0  0  0  0  0  0  0  0  0  0  0
    3.6452   -3.0278   -1.2681 C   0  0  0  0  0  0  0  0  0  0  0  0
    3.4954   -3.5902   -0.0391 C   0  0  0  0  0  0  0  0  0  0  0  0
    2.3118   -4.3831    0.3482 C   0  0  1  0  0  0  0  0  0  0  0  0
    1.5682   -4.9898   -0.7069 O   0  0  0  0  0  0  0  0  0  0  0  0
    2.6574   -5.4638    1.3389 C   0  0  1  0  0  0  0  0  0  0  0  0
    4.0209   -6.1390    1.4414 C   0  0  2  0  0  0  0  0  0  0  0  0
    4.7135   -6.6300    0.1796 C   0  0  0  0  0  0  0  0  0  0  0  0
    3.8819   -7.2550    2.4743 C   0  0  0  0  0  0  0  0  0  0  0  0
    3.0482   -6.5220    3.5219 C   0  0  1  0  0  0  0  0  0  0  0  0
    3.7166   -6.6939    4.7548 O   0  0  0  0  0  0  0  0  0  0  0  0
    3.6879   -5.6473    5.7205 C   0  0  1  0  0  0  0  0  0  0  0  0
    4.1664   -6.2130    7.0834 C   0  0  1  0  0  0  0  0  0  0  0  0
    4.0363   -7.7351    7.2808 C   0  0  0  0  0  0  0  0  0  0  0  0
    5.5619   -5.5899    7.2989 C   0  0  1  0  0  0  0  0  0  0  0  0
    6.6610   -6.3368    6.4853 C   0  0  0  0  0  0  0  0  0  0  0  0
    6.6286   -6.0534    4.9853 C   0  0  0  0  0  0  0  0  0  0  0  0
    5.7341   -5.1893    4.4398 C   0  0  0  0  0  0  0  0  0  0  0  0
    5.7367   -4.7729    2.9629 C   0  0  0  0  0  0  0  0  0  0  0  0
    4.4257   -4.7697    2.1004 C   0  0  1  0  0  0  0  0  0  0  0  0
    4.5244   -3.5086    1.0993 C   0  0  2  0  0  0  0  0  0  0  0  0
    4.2186   -2.2066    1.8857 C   0  0  0  0  0  0  0  0  0  0  0  0
    5.9160   -3.3189    0.4759 C   0  0  0  0  0  0  0  0  0  0  0  0
    6.1326   -2.8337   -0.7582 C   0  0  0  0  0  0  0  0  0  0  0  0
    4.9766   -2.4969   -1.6081 C   0  0  0  0  0  0  0  0  0  0  0  0
    5.1094   -1.7664   -2.5868 O   0  0  0  0  0  0  0  0  0  0  0  0
    3.0708   -5.1808    2.7899 C   0  0  1  0  0  0  0  0  0  0  0  0
    2.2489   -4.2338    3.4148 O   0  0  0  0  0  0  0  0  0  0  0  0
    4.7243   -4.5385    5.3735 C   0  0  2  0  0  0  0  0  0  0  0  0
    5.3642   -4.1654    6.7345 C   0  0  0  0  0  0  0  0  0  0  0  0
    4.4122   -3.3021    7.5962 C   0  0  0  0  0  0  0  0  0  0  0  0
    6.6671   -3.3384    6.6392 C   0  0  0  0  0  0  0  0  0  0  0  0
    2.7165   -2.0773   -3.0034 H   0  0  0  0  0  0  0  0  0  0  0  0
    1.5940   -2.9223   -1.9973 H   0  0  0  0  0  0  0  0  0  0  0  0
    2.6909   -3.8431   -3.0394 H   0  0  0  0  0  0  0  0  0  0  0  0
    1.8193   -3.5885    0.8775 H   0  0  0  0  0  0  0  0  0  0  0  0
    2.1704   -5.3935   -1.3414 H   0  0  0  0  0  0  0  0  0  0  0  0
    1.8785   -6.2196    1.3762 H   0  0  0  0  0  0  0  0  0  0  0  0
    5.7451   -6.8673    0.4168 H   0  0  0  0  0  0  0  0  0  0  0  0
    4.7253   -5.8645   -0.6037 H   0  0  0  0  0  0  0  0  0  0  0  0
    4.2428   -7.5080   -0.2691 H   0  0  0  0  0  0  0  0  0  0  0  0
    3.3773   -8.1439    2.0956 H   0  0  0  0  0  0  0  0  0  0  0  0
    4.8586   -7.5439    2.8574 H   0  0  0  0  0  0  0  0  0  0  0  0
    2.0340   -6.9103    3.5794 H   0  0  0  0  0  0  0  0  0  0  0  0
    2.6860   -5.2379    5.8470 H   0  0  0  0  0  0  0  0  0  0  0  0
    3.5241   -5.7918    7.8581 H   0  0  0  0  0  0  0  0  0  0  0  0
    4.5775   -8.3052    6.5272 H   0  0  0  0  0  0  0  0  0  0  0  0
    2.9912   -8.0425    7.2275 H   0  0  0  0  0  0  0  0  0  0  0  0
    4.4102   -8.0334    8.2603 H   0  0  0  0  0  0  0  0  0  0  0  0
    5.8187   -5.5826    8.3607 H   0  0  0  0  0  0  0  0  0  0  0  0
    7.6385   -6.0263    6.8529 H   0  0  0  0  0  0  0  0  0  0  0  0
    6.6277   -7.4113    6.6570 H   0  0  0  0  0  0  0  0  0  0  0  0
    7.3938   -6.5392    4.4006 H   0  0  0  0  0  0  0  0  0  0  0  0
    6.1862   -3.7911    3.0019 H   0  0  0  0  0  0  0  0  0  0  0  0
    6.4616   -5.4217    2.4664 H   0  0  0  0  0  0  0  0  0  0  0  0
    4.3734   -1.3372    1.2407 H   0  0  0  0  0  0  0  0  0  0  0  0
    4.8702   -2.0689    2.7502 H   0  0  0  0  0  0  0  0  0  0  0  0
    3.1820   -2.1307    2.2236 H   0  0  0  0  0  0  0  0  0  0  0  0
    6.7739   -3.5653    1.0651 H   0  0  0  0  0  0  0  0  0  0  0  0
    7.1183   -2.6692   -1.1586 H   0  0  0  0  0  0  0  0  0  0  0  0
    2.3345   -3.4463    2.9033 H   0  0  0  0  0  0  0  0  0  0  0  0
    4.2939   -3.6633    4.8856 H   0  0  0  0  0  0  0  0  0  0  0  0
    4.3668   -2.2801    7.2178 H   0  0  0  0  0  0  0  0  0  0  0  0
    4.7610   -3.2440    8.6296 H   0  0  0  0  0  0  0  0  0  0  0  0
    3.3839   -3.6589    7.6183 H   0  0  0  0  0  0  0  0  0  0  0  0
    6.4850   -2.3790    6.1539 H   0  0  0  0  0  0  0  0  0  0  0  0
    7.4516   -3.8340    6.0787 H   0  0  0  0  0  0  0  0  0  0  0  0
    7.0779   -3.1291    7.6287 H   0  0  0  0  0  0  0  0  0  0  0  0
  1  2  1  0
  1 33  1  0
  1 34  1  0
  1 35  1  0
  2 25  1  0
  2  3  2  0
  3 21  1  0
  3  4  1  0
  4  5  1  0
  4  6  1  0
  4 36  1  1
  5 37  1  0
  6 27  1  0
  6  7  1  0
  6 38  1  1
  7 20  1  0
  7  8  1  6
  7  9  1  0
  8 39  1  0
  8 40  1  0
  8 41  1  0
  9 10  1  0
  9 42  1  0
  9 43  1  0
 10 27  1  0
 10 11  1  0
 10 44  1  1
 11 12  1  0
 12 29  1  0
 12 13  1  0
 12 45  1  1
 13 14  1  0
 13 15  1  0
 13 46  1  1
 14 47  1  0
 14 48  1  0
 14 49  1  0
 15 30  1  0
 15 16  1  0
 15 50  1  1
 16 17  1  0
 16 51  1  0
 16 52  1  0
 17 18  2  0
 17 53  1  0
 18 19  1  0
 18 29  1  0
 20 19  1  1
 19 54  1  0
 19 55  1  0
 20 21  1  0
 20 27  1  0
 21 22  1  1
 21 23  1  0
 22 56  1  0
 22 57  1  0
 22 58  1  0
 23 24  2  0
 23 59  1  0
 24 25  1  0
 24 60  1  0
 25 26  2  0
 27 28  1  1
 28 61  1  0
 29 30  1  0
 29 62  1  6
 30 31  1  0
 30 32  1  0
 31 63  1  0
 31 64  1  0
 31 65  1  0
 32 66  1  0
 32 67  1  0
 32 68  1  0
M  END
>  <i_m_ct_stereo_status>  (6) 
1

>  <s_m_source_file>  (6) 
/var/tmp/pbs.5076255.sched01/tmp0du1nuht/0914ajmtz.sdf

>  <i_m_source_file_index>  (6) 
4

>  <i_lp_mmshare_version>  (6) 
48012

>  <i_f3d_flags>  (6) 
0

>  <s_epik_input>  (6) 
W0NIM11DPTFDKD1PKVtDSF09W0NIXVtDQEBdMihbQ0gzXSlDMVtDQEBIXShbT0hdKVtDQEBIXShbQ0BdMyhbQ0BdMjQ1KVtDSDNdKVtDQEBdNShbT0hdKVtDQEBIXShbQ0gyXTMpT1tDQEBIXTZbQ0BASF03QyhbQ0gyXTQpPVtDSF1bQ0gyXVtDQEhdKFtDQEBIXTZbQ0gzXSlDNyhbQ0gzXSlbQ0gzXQ==

>  <s_epik_cmdline>  (6) 
J2VwaWtfcHl0aG9uJywgJy1waHQnLCAnMi4wJywgJy1waCcsICc3LjAnLCAnLXRuJywgJzgnLCAnLW1hJywgJzIwMCcsICctaW1hZScsICc8aW5maWxlLm1hZT4nLCAnLW9tYWUnLCAnPG91dGZpbGUubWFlPic=

>  <r_lp_tautomer_probability>  (6) 
1

>  <r_epik_Ionization_Penalty>  (6) 
7.12965e-07

>  <r_epik_Ionization_Penalty_Charging>  (6) 
0

>  <r_epik_Ionization_Penalty_Neutral>  (6) 
7.12965e-07

>  <r_epik_State_Penalty>  (6) 
-0

>  <r_epik_Charging_Adjusted_Penalty>  (6) 
0

>  <i_epik_Tot_Q>  (6) 
0

>  <i_epik_Tot_abs_Q>  (6) 
0

>  <s_lp_Force_Field>  (6) 
OPLS3e

>  <r_lp_Energy>  (6) 
106.397

>  <b_lp_Chiralities_Consistent>  (6) 
1

>  <s_lp_Variant>  (6) 
3:0-1

>  <s_i_glide_gridfile>  (6) 
pfpi4k_grid

>  <i_i_glide_lignum>  (6) 
4

>  <i_i_glide_rotatable_bonds>  (6) 
2

>  <r_i_docking_score>  (6) 
-3.11802

>  <r_i_glide_ligand_efficiency>  (6) 
-0.0974381

>  <r_i_glide_ligand_efficiency_sa>  (6) 
-0.309347

>  <r_i_glide_ligand_efficiency_ln>  (6) 
-0.69821

>  <r_i_glide_gscore>  (6) 
-3.11802

>  <r_i_glide_lipo>  (6) 
-0.290044

>  <r_i_glide_hbond>  (6) 
-0.355375

>  <r_i_glide_metal>  (6) 
-0

>  <r_i_glide_rewards>  (6) 
-0.432388

>  <r_i_glide_evdw>  (6) 
-17.117

>  <r_i_glide_ecoul>  (6) 
-7.78607

>  <r_i_glide_erotb>  (6) 
0

>  <r_i_glide_esite>  (6) 
-0.0164518

>  <r_i_glide_emodel>  (6) 
-29.0065

>  <r_i_glide_energy>  (6) 
-24.9031

>  <r_i_glide_einternal>  (6) 
0.40522

>  <r_i_glide_intrahb_reward>  (6) 
-0

>  <i_i_glide_confnum>  (6) 
1

>  <i_i_glide_posenum>  (6) 
1

>  <r_i_glide_eff_state_penalty>  (6) 
0

>  <ligand_id>  (6) 
3

>  <original_smiles>  (6) 
CC1=C2C(O)C3C4(C)CC5OC6C(C)C7CC=C(CC4(C2(C)C=CC1=O)C53O)C6C7(C)C

>  <smiles>  (6) 
[H]OC1([H])C2=C(C([H])([H])[H])C(=O)C([H])=C([H])C2(C([H])([H])[H])C23C([H])([H])C4=C([H])C([H])([H])C5([H])C([H])(C([H])([H])[H])C([H])(OC6([H])C([H])([H])C2(C([H])([H])[H])C1([H])C63O[H])C4([H])C5(C([H])([H])[H])C([H])([H])[H]

$$$$
3:0:2
     RDKit          3D

 68 74  0  0  1  0  0  0  0  0999 V2000
    2.7494   -1.8045   -2.7807 C   0  0  0  0  0  0  0  0  0  0  0  0
    3.6355   -1.9283   -1.5444 C   0  0  0  0  0  0  0  0  0  0  0  0
    3.3787   -2.6448   -0.4162 C   0  0  0  0  0  0  0  0  0  0  0  0
    2.2232   -3.5696   -0.2669 C   0  0  1  0  0  0  0  0  0  0  0  0
    1.6335   -4.0471   -1.4549 O   0  0  0  0  0  0  0  0  0  0  0  0
    2.6276   -4.7859    0.5640 C   0  0  1  0  0  0  0  0  0  0  0  0
    4.0733   -5.3082    0.7106 C   0  0  2  0  0  0  0  0  0  0  0  0
    4.9708   -5.5188   -0.5129 C   0  0  0  0  0  0  0  0  0  0  0  0
    3.9731   -6.5919    1.5393 C   0  0  0  0  0  0  0  0  0  0  0  0
    2.9539   -6.1283    2.5708 C   0  0  1  0  0  0  0  0  0  0  0  0
    3.4897   -6.4294    3.8464 O   0  0  0  0  0  0  0  0  0  0  0  0
    3.2420   -5.5502    4.9421 C   0  0  1  0  0  0  0  0  0  0  0  0
    3.6433   -6.2747    6.2523 C   0  0  1  0  0  0  0  0  0  0  0  0
    3.6743   -7.8158    6.2062 C   0  0  0  0  0  0  0  0  0  0  0  0
    4.9308   -5.5592    6.7187 C   0  0  1  0  0  0  0  0  0  0  0  0
    6.1918   -6.0598    5.9506 C   0  0  0  0  0  0  0  0  0  0  0  0
    6.2754   -5.5429    4.5180 C   0  0  0  0  0  0  0  0  0  0  0  0
    5.3589   -4.6928    4.0084 C   0  0  0  0  0  0  0  0  0  0  0  0
    5.4698   -4.0645    2.6209 C   0  0  0  0  0  0  0  0  0  0  0  0
    4.2465   -4.0485    1.6227 C   0  0  1  0  0  0  0  0  0  0  0  0
    4.2690   -2.6443    0.8492 C   0  0  2  0  0  0  0  0  0  0  0  0
    3.7513   -1.5039    1.7505 C   0  0  0  0  0  0  0  0  0  0  0  0
    5.6791   -2.2374    0.4303 C   0  0  0  0  0  0  0  0  0  0  0  0
    5.9441   -1.5549   -0.6782 C   0  0  0  0  0  0  0  0  0  0  0  0
    4.8837   -1.2031   -1.6169 C   0  0  0  0  0  0  0  0  0  0  0  0
    5.0263   -0.3156   -2.4359 O   0  0  0  0  0  0  0  0  0  0  0  0
    2.8817   -4.6854    2.0728 C   0  0  1  0  0  0  0  0  0  0  0  0
    1.9293   -3.9211    2.7528 O   0  0  0  0  0  0  0  0  0  0  0  0
    4.1752   -4.3027    4.8860 C   0  0  2  0  0  0  0  0  0  0  0  0
    4.6290   -4.0850    6.3538 C   0  0  0  0  0  0  0  0  0  0  0  0
    3.4944   -3.4689    7.2135 C   0  0  0  0  0  0  0  0  0  0  0  0
    5.8362   -3.1242    6.5300 C   0  0  0  0  0  0  0  0  0  0  0  0
    2.7468   -0.7967   -3.1991 H   0  0  0  0  0  0  0  0  0  0  0  0
    1.7197   -1.9773   -2.5299 H   0  0  0  0  0  0  0  0  0  0  0  0
    3.0270   -2.5092   -3.5618 H   0  0  0  0  0  0  0  0  0  0  0  0
    1.4526   -2.9443    0.2042 H   0  0  0  0  0  0  0  0  0  0  0  0
    2.0919   -3.6573   -2.1938 H   0  0  0  0  0  0  0  0  0  0  0  0
    1.9628   -5.6184    0.3596 H   0  0  0  0  0  0  0  0  0  0  0  0
    6.0138   -5.6993   -0.2332 H   0  0  0  0  0  0  0  0  0  0  0  0
    4.9564   -4.6603   -1.1887 H   0  0  0  0  0  0  0  0  0  0  0  0
    4.6384   -6.3823   -1.0938 H   0  0  0  0  0  0  0  0  0  0  0  0
    3.6152   -7.4516    0.9738 H   0  0  0  0  0  0  0  0  0  0  0  0
    4.9323   -6.8466    1.9918 H   0  0  0  0  0  0  0  0  0  0  0  0
    1.9888   -6.6184    2.4553 H   0  0  0  0  0  0  0  0  0  0  0  0
    2.1921   -5.2731    5.0000 H   0  0  0  0  0  0  0  0  0  0  0  0
    2.8792   -6.0546    6.9981 H   0  0  0  0  0  0  0  0  0  0  0  0
    4.3580   -8.2001    5.4482 H   0  0  0  0  0  0  0  0  0  0  0  0
    2.6841   -8.2134    5.9786 H   0  0  0  0  0  0  0  0  0  0  0  0
    3.9781   -8.2288    7.1690 H   0  0  0  0  0  0  0  0  0  0  0  0
    5.0741   -5.6925    7.7920 H   0  0  0  0  0  0  0  0  0  0  0  0
    7.0805   -5.7094    6.4704 H   0  0  0  0  0  0  0  0  0  0  0  0
    6.2650   -7.1450    5.9563 H   0  0  0  0  0  0  0  0  0  0  0  0
    7.1429   -5.8448    3.9489 H   0  0  0  0  0  0  0  0  0  0  0  0
    5.7966   -3.0559    2.8698 H   0  0  0  0  0  0  0  0  0  0  0  0
    6.3120   -4.5411    2.1123 H   0  0  0  0  0  0  0  0  0  0  0  0
    3.8796   -0.5400    1.2500 H   0  0  0  0  0  0  0  0  0  0  0  0
    4.2927   -1.4385    2.6966 H   0  0  0  0  0  0  0  0  0  0  0  0
    2.6838   -1.5861    1.9542 H   0  0  0  0  0  0  0  0  0  0  0  0
    6.5294   -2.4569    1.0568 H   0  0  0  0  0  0  0  0  0  0  0  0
    6.9511   -1.2803   -0.8793 H   0  0  0  0  0  0  0  0  0  0  0  0
    2.2715   -3.0385    2.7621 H   0  0  0  0  0  0  0  0  0  0  0  0
    3.7002   -3.4058    4.4913 H   0  0  0  0  0  0  0  0  0  0  0  0
    3.3664   -2.4115    6.9867 H   0  0  0  0  0  0  0  0  0  0  0  0
    3.7233   -3.5457    8.2773 H   0  0  0  0  0  0  0  0  0  0  0  0
    2.5198   -3.9276    7.0575 H   0  0  0  0  0  0  0  0  0  0  0  0
    5.5845   -2.1231    6.1775 H   0  0  0  0  0  0  0  0  0  0  0  0
    6.7390   -3.4252    6.0000 H   0  0  0  0  0  0  0  0  0  0  0  0
    6.1096   -3.0371    7.5818 H   0  0  0  0  0  0  0  0  0  0  0  0
  1  2  1  0
  1 33  1  0
  1 34  1  0
  1 35  1  0
  2 25  1  0
  2  3  2  0
  3 21  1  0
  3  4  1  0
  4  5  1  0
  4  6  1  0
  4 36  1  1
  5 37  1  0
  6 27  1  0
  6  7  1  0
  6 38  1  1
  7 20  1  0
  7  8  1  6
  7  9  1  0
  8 39  1  0
  8 40  1  0
  8 41  1  0
  9 10  1  0
  9 42  1  0
  9 43  1  0
 10 27  1  0
 10 11  1  0
 10 44  1  6
 11 12  1  0
 12 29  1  0
 12 13  1  0
 12 45  1  1
 13 14  1  0
 13 15  1  0
 13 46  1  1
 14 47  1  0
 14 48  1  0
 14 49  1  0
 15 30  1  0
 15 16  1  0
 15 50  1  1
 16 17  1  0
 16 51  1  0
 16 52  1  0
 17 18  2  0
 17 53  1  0
 18 19  1  0
 18 29  1  0
 20 19  1  1
 19 54  1  0
 19 55  1  0
 20 21  1  0
 20 27  1  0
 21 22  1  1
 21 23  1  0
 22 56  1  0
 22 57  1  0
 22 58  1  0
 23 24  2  0
 23 59  1  0
 24 25  1  0
 24 60  1  0
 25 26  2  0
 27 28  1  1
 28 61  1  0
 29 30  1  0
 29 62  1  6
 30 31  1  0
 30 32  1  0
 31 63  1  0
 31 64  1  0
 31 65  1  0
 32 66  1  0
 32 67  1  0
 32 68  1  0
M  END
>  <i_m_ct_stereo_status>  (7) 
1

>  <s_m_source_file>  (7) 
/var/tmp/pbs.5076255.sched01/tmp0du1nuht/0914ajmtz.sdf

>  <i_m_source_file_index>  (7) 
4

>  <i_lp_mmshare_version>  (7) 
48012

>  <i_f3d_flags>  (7) 
0

>  <s_epik_input>  (7) 
W0NIM11DPTFDKD1PKVtDSF09W0NIXVtDQEBdMihbQ0gzXSlDMVtDQEBIXShbT0hdKVtDQEBIXShbQ0BdMyhbQ0BdMjQ1KVtDSDNdKVtDQEBdNShbT0hdKVtDQEBIXShbQ0gyXTMpT1tDQEBIXTZbQ0BASF03QyhbQ0gyXTQpPVtDSF1bQ0gyXVtDQEhdKFtDQEBIXTZbQ0gzXSlDNyhbQ0gzXSlbQ0gzXQ==

>  <s_epik_cmdline>  (7) 
J2VwaWtfcHl0aG9uJywgJy1waHQnLCAnMi4wJywgJy1waCcsICc3LjAnLCAnLXRuJywgJzgnLCAnLW1hJywgJzIwMCcsICctaW1hZScsICc8aW5maWxlLm1hZT4nLCAnLW9tYWUnLCAnPG91dGZpbGUubWFlPic=

>  <r_lp_tautomer_probability>  (7) 
1

>  <r_epik_Ionization_Penalty>  (7) 
7.12965e-07

>  <r_epik_Ionization_Penalty_Charging>  (7) 
0

>  <r_epik_Ionization_Penalty_Neutral>  (7) 
7.12965e-07

>  <r_epik_State_Penalty>  (7) 
-0

>  <r_epik_Charging_Adjusted_Penalty>  (7) 
0

>  <i_epik_Tot_Q>  (7) 
0

>  <i_epik_Tot_abs_Q>  (7) 
0

>  <s_lp_Force_Field>  (7) 
OPLS3e

>  <r_lp_Energy>  (7) 
106.397

>  <b_lp_Chiralities_Consistent>  (7) 
1

>  <s_lp_Variant>  (7) 
3:0-1

>  <s_i_glide_gridfile>  (7) 
pfpi4k_grid

>  <i_i_glide_lignum>  (7) 
4

>  <i_i_glide_rotatable_bonds>  (7) 
2

>  <r_i_docking_score>  (7) 
-1.10961

>  <r_i_glide_ligand_efficiency>  (7) 
-0.0346754

>  <r_i_glide_ligand_efficiency_sa>  (7) 
-0.110088

>  <r_i_glide_ligand_efficiency_ln>  (7) 
-0.248473

>  <r_i_glide_gscore>  (7) 
-1.10961

>  <r_i_glide_lipo>  (7) 
-0.20877

>  <r_i_glide_hbond>  (7) 
0

>  <r_i_glide_metal>  (7) 
-0

>  <r_i_glide_rewards>  (7) 
-0.432388

>  <r_i_glide_evdw>  (7) 
-13.1144

>  <r_i_glide_ecoul>  (7) 
1.57416

>  <r_i_glide_erotb>  (7) 
0

>  <r_i_glide_esite>  (7) 
-0.048859

>  <r_i_glide_emodel>  (7) 
-11.5214

>  <r_i_glide_energy>  (7) 
-11.5403

>  <r_i_glide_einternal>  (7) 
2.18017

>  <r_i_glide_intrahb_reward>  (7) 
-0

>  <i_i_glide_confnum>  (7) 
2

>  <i_i_glide_posenum>  (7) 
4

>  <r_i_glide_eff_state_penalty>  (7) 
0

>  <ligand_id>  (7) 
3

>  <original_smiles>  (7) 
CC1=C2C(O)C3C4(C)CC5OC6C(C)C7CC=C(CC4(C2(C)C=CC1=O)C53O)C6C7(C)C

>  <smiles>  (7) 
[H]OC1([H])C2=C(C([H])([H])[H])C(=O)C([H])=C([H])C2(C([H])([H])[H])C23C([H])([H])C4=C([H])C([H])([H])C5([H])C([H])(C([H])([H])[H])C([H])(OC6([H])C([H])([H])C2(C([H])([H])[H])C1([H])C63O[H])C4([H])C5(C([H])([H])[H])C([H])([H])[H]

$$$$
4:0:0
     RDKit          3D

 33 36  0  0  1  0  0  0  0  0999 V2000
    8.3848   -2.8111    0.3040 C   0  0  0  0  0  0  0  0  0  0  0  0
    6.9453   -2.9654   -0.0792 C   0  0  0  0  0  0  0  0  0  0  0  0
    6.4693   -2.2487   -1.0961 N   0  0  0  0  0  0  0  0  0  0  0  0
    5.1555   -2.5827   -1.2045 N   0  0  0  0  0  0  0  0  0  0  0  0
    4.3633   -2.0404   -2.2352 C   0  0  0  0  0  0  0  0  0  0  0  0
    3.3437   -2.8184   -2.8427 C   0  0  0  0  0  0  0  0  0  0  0  0
    2.5675   -2.2762   -3.8841 C   0  0  0  0  0  0  0  0  0  0  0  0
    2.8302   -0.9536   -4.2717 C   0  0  0  0  0  0  0  0  0  0  0  0
    3.8344   -0.2117   -3.7235 C   0  0  0  0  0  0  0  0  0  0  0  0
    4.6184   -0.7197   -2.6829 C   0  0  0  0  0  0  0  0  0  0  0  0
    3.8718    1.0131   -4.3129 O   0  0  0  0  0  0  0  0  0  0  0  0
    2.7464    1.0713   -5.1365 C   0  0  0  0  0  0  0  0  0  0  0  0
    2.1342   -0.1763   -5.1207 O   0  0  0  0  0  0  0  0  0  0  0  0
    4.8333   -3.4822   -0.2138 C   0  0  0  0  0  0  0  0  0  0  0  0
    5.9402   -3.7824    0.5142 C   0  0  0  0  0  0  0  0  0  0  0  0
    5.9206   -4.7620    1.6482 C   0  0  0  0  0  0  0  0  0  0  0  0
    4.7253   -5.7320    1.4542 C   0  0  0  0  0  0  0  0  0  0  0  0
    3.4481   -5.0331    0.9176 C   0  0  0  0  0  0  0  0  0  0  0  0
    2.3351   -5.4509    1.2307 O   0  0  0  0  0  0  0  0  0  0  0  0
    3.6178   -4.0074    0.0559 N   0  0  0  0  0  0  0  0  0  0  0  0
    8.6412   -3.4367    1.1593 H   0  0  0  0  0  0  0  0  0  0  0  0
    8.6192   -1.7753    0.5526 H   0  0  0  0  0  0  0  0  0  0  0  0
    9.0246   -3.0940   -0.5277 H   0  0  0  0  0  0  0  0  0  0  0  0
    3.1352   -3.8231   -2.5187 H   0  0  0  0  0  0  0  0  0  0  0  0
    1.7531   -2.8345   -4.3205 H   0  0  0  0  0  0  0  0  0  0  0  0
    5.3954   -0.1107   -2.2514 H   0  0  0  0  0  0  0  0  0  0  0  0
    2.0156    1.7655   -4.7416 H   0  0  0  0  0  0  0  0  0  0  0  0
    3.0144    1.3518   -6.1558 H   0  0  0  0  0  0  0  0  0  0  0  0
    6.8458   -5.3334    1.6967 H   0  0  0  0  0  0  0  0  0  0  0  0
    5.8082   -4.2406    2.5963 H   0  0  0  0  0  0  0  0  0  0  0  0
    5.0058   -6.4914    0.7152 H   0  0  0  0  0  0  0  0  0  0  0  0
    4.5030   -6.2832    2.3716 H   0  0  0  0  0  0  0  0  0  0  0  0
    2.8252   -3.5915   -0.4127 H   0  0  0  0  0  0  0  0  0  0  0  0
  1  2  1  0
  1 21  1  0
  1 22  1  0
  1 23  1  0
  2 15  1  0
  2  3  2  0
  3  4  1  0
  4  5  1  0
  4 14  1  0
  5 10  1  0
  5  6  2  0
  6  7  1  0
  6 24  1  0
  7  8  2  0
  7 25  1  0
  8 13  1  0
  8  9  1  0
  9 10  2  0
  9 11  1  0
 10 26  1  0
 11 12  1  0
 12 13  1  0
 12 27  1  0
 12 28  1  0
 14 20  1  0
 14 15  2  0
 15 16  1  0
 16 17  1  0
 16 29  1  0
 16 30  1  0
 17 18  1  0
 17 31  1  0
 17 32  1  0
 18 19  2  0
 18 20  1  0
 20 33  1  0
M  END
>  <i_m_ct_stereo_status>  (8) 
1

>  <s_m_source_file>  (8) 
/var/tmp/pbs.5076255.sched01/tmp0du1nuht/0914ajmtz.sdf

>  <i_m_source_file_index>  (8) 
5

>  <i_lp_mmshare_version>  (8) 
48012

>  <i_f3d_flags>  (8) 
0

>  <s_epik_input>  (8) 
Tz1DKFtOSF0xKVtDSDJdW0NIMl1jKGMxMiljKFtDSDNdKW5uMi1jKFtjSF1bY0hdMylbY0hdYyhjMzQpT1tDSDJdTzQ=

>  <s_epik_cmdline>  (8) 
J2VwaWtfcHl0aG9uJywgJy1waHQnLCAnMi4wJywgJy1waCcsICc3LjAnLCAnLXRuJywgJzgnLCAnLW1hJywgJzIwMCcsICctaW1hZScsICc8aW5maWxlLm1hZT4nLCAnLW9tYWUnLCAnPG91dGZpbGUubWFlPic=

>  <r_lp_tautomer_probability>  (8) 
1

>  <r_epik_Ionization_Penalty>  (8) 
8.4817e-07

>  <r_epik_Ionization_Penalty_Charging>  (8) 
0

>  <r_epik_Ionization_Penalty_Neutral>  (8) 
8.4817e-07

>  <r_epik_State_Penalty>  (8) 
-0

>  <r_epik_Charging_Adjusted_Penalty>  (8) 
0

>  <i_epik_Tot_Q>  (8) 
0

>  <i_epik_Tot_abs_Q>  (8) 
0

>  <s_epik_Chemistry_Notes>  (8) 
This compound contains an acetal/aminal-like group ( X-CH(R)-Y where X, Y are N, S, or O) that may be acid/base labile, releasing an aldehyde.

>  <s_lp_Force_Field>  (8) 
OPLS3e

>  <r_lp_Energy>  (8) 
39.1378

>  <b_lp_Chiralities_Consistent>  (8) 
1

>  <s_lp_Variant>  (8) 
4:0-1

>  <s_i_glide_gridfile>  (8) 
pfpi4k_grid

>  <i_i_glide_lignum>  (8) 
5

>  <i_i_glide_rotatable_bonds>  (8) 
1

>  <r_i_docking_score>  (8) 
-4.10944

>  <r_i_glide_ligand_efficiency>  (8) 
-0.205472

>  <r_i_glide_ligand_efficiency_sa>  (8) 
-0.557737

>  <r_i_glide_ligand_efficiency_ln>  (8) 
-1.02846

>  <r_i_glide_gscore>  (8) 
-4.10944

>  <r_i_glide_lipo>  (8) 
-0.909947

>  <r_i_glide_hbond>  (8) 
-0.106547

>  <r_i_glide_metal>  (8) 
-0

>  <r_i_glide_rewards>  (8) 
-1.55951

>  <r_i_glide_evdw>  (8) 
-24.1529

>  <r_i_glide_ecoul>  (8) 
-3.5192

>  <r_i_glide_erotb>  (8) 
0.24326

>  <r_i_glide_esite>  (8) 
-0.0411724

>  <r_i_glide_emodel>  (8) 
-34.5572

>  <r_i_glide_energy>  (8) 
-27.6721

>  <r_i_glide_einternal>  (8) 
0.0702496

>  <r_i_glide_intrahb_reward>  (8) 
-0

>  <i_i_glide_confnum>  (8) 
3

>  <i_i_glide_posenum>  (8) 
27

>  <r_i_glide_eff_state_penalty>  (8) 
0

>  <ligand_id>  (8) 
4

>  <original_smiles>  (8) 
Cc1nn(-c2ccc3c(c2)OCO3)c2c1CCC(=O)N2

>  <smiles>  (8) 
[H]c1c([H])c(-n2nc(C([H])([H])[H])c3c2N([H])C(=O)C([H])([H])C3([H])[H])c([H])c2c1OC([H])([H])O2

$$$$
4:0:1
     RDKit          3D

 33 36  0  0  1  0  0  0  0  0999 V2000
    5.5000   -5.3126    1.3267 C   0  0  0  0  0  0  0  0  0  0  0  0
    4.7252   -4.1057    0.8926 C   0  0  0  0  0  0  0  0  0  0  0  0
    4.0044   -3.4409    1.7958 N   0  0  0  0  0  0  0  0  0  0  0  0
    3.4410   -2.3917    1.1368 N   0  0  0  0  0  0  0  0  0  0  0  0
    2.6357   -1.4599    1.8267 C   0  0  0  0  0  0  0  0  0  0  0  0
    1.7719   -1.9000    2.8654 C   0  0  0  0  0  0  0  0  0  0  0  0
    0.9617   -0.9808    3.5749 C   0  0  0  0  0  0  0  0  0  0  0  0
    1.0654    0.3761    3.2274 C   0  0  0  0  0  0  0  0  0  0  0  0
    1.9131    0.8093    2.2303 C   0  0  0  0  0  0  0  0  0  0  0  0
    2.7171   -0.0840    1.5064 C   0  0  0  0  0  0  0  0  0  0  0  0
    1.8354    2.1566    2.1213 O   0  0  0  0  0  0  0  0  0  0  0  0
    0.9942    2.5765    3.1654 C   0  0  0  0  0  0  0  0  0  0  0  0
    0.4285    1.4402    3.7745 O   0  0  0  0  0  0  0  0  0  0  0  0
    3.8110   -2.4479   -0.1912 C   0  0  0  0  0  0  0  0  0  0  0  0
    4.6240   -3.5183   -0.4030 C   0  0  0  0  0  0  0  0  0  0  0  0
    5.1928   -3.8540   -1.7455 C   0  0  0  0  0  0  0  0  0  0  0  0
    5.1888   -2.5812   -2.6296 C   0  0  0  0  0  0  0  0  0  0  0  0
    3.9353   -1.7007   -2.4396 C   0  0  0  0  0  0  0  0  0  0  0  0
    3.4573   -1.0990   -3.4012 O   0  0  0  0  0  0  0  0  0  0  0  0
    3.4175   -1.6276   -1.1966 N   0  0  0  0  0  0  0  0  0  0  0  0
    6.0220   -5.7829    0.4914 H   0  0  0  0  0  0  0  0  0  0  0  0
    4.8469   -6.0630    1.7744 H   0  0  0  0  0  0  0  0  0  0  0  0
    6.2432   -5.0414    2.0747 H   0  0  0  0  0  0  0  0  0  0  0  0
    1.7265   -2.9453    3.1178 H   0  0  0  0  0  0  0  0  0  0  0  0
    0.3065   -1.3033    4.3673 H   0  0  0  0  0  0  0  0  0  0  0  0
    3.3904    0.2843    0.7512 H   0  0  0  0  0  0  0  0  0  0  0  0
    1.6122    3.0865    3.9053 H   0  0  0  0  0  0  0  0  0  0  0  0
    0.2206    3.2621    2.8127 H   0  0  0  0  0  0  0  0  0  0  0  0
    6.2140   -4.2101   -1.6508 H   0  0  0  0  0  0  0  0  0  0  0  0
    4.6145   -4.6412   -2.2277 H   0  0  0  0  0  0  0  0  0  0  0  0
    6.0249   -1.9486   -2.3289 H   0  0  0  0  0  0  0  0  0  0  0  0
    5.3254   -2.8292   -3.6820 H   0  0  0  0  0  0  0  0  0  0  0  0
    2.5614   -1.0996   -1.0460 H   0  0  0  0  0  0  0  0  0  0  0  0
  1  2  1  0
  1 21  1  0
  1 22  1  0
  1 23  1  0
  2 15  1  0
  2  3  2  0
  3  4  1  0
  4  5  1  0
  4 14  1  0
  5 10  1  0
  5  6  2  0
  6  7  1  0
  6 24  1  0
  7  8  2  0
  7 25  1  0
  8 13  1  0
  8  9  1  0
  9 10  2  0
  9 11  1  0
 10 26  1  0
 11 12  1  0
 12 13  1  0
 12 27  1  0
 12 28  1  0
 14 20  1  0
 14 15  2  0
 15 16  1  0
 16 17  1  0
 16 29  1  0
 16 30  1  0
 17 18  1  0
 17 31  1  0
 17 32  1  0
 18 19  2  0
 18 20  1  0
 20 33  1  0
M  END
>  <i_m_ct_stereo_status>  (9) 
1

>  <s_m_source_file>  (9) 
/var/tmp/pbs.5076255.sched01/tmp0du1nuht/0914ajmtz.sdf

>  <i_m_source_file_index>  (9) 
5

>  <i_lp_mmshare_version>  (9) 
48012

>  <i_f3d_flags>  (9) 
0

>  <s_epik_input>  (9) 
Tz1DKFtOSF0xKVtDSDJdW0NIMl1jKGMxMiljKFtDSDNdKW5uMi1jKFtjSF1bY0hdMylbY0hdYyhjMzQpT1tDSDJdTzQ=

>  <s_epik_cmdline>  (9) 
J2VwaWtfcHl0aG9uJywgJy1waHQnLCAnMi4wJywgJy1waCcsICc3LjAnLCAnLXRuJywgJzgnLCAnLW1hJywgJzIwMCcsICctaW1hZScsICc8aW5maWxlLm1hZT4nLCAnLW9tYWUnLCAnPG91dGZpbGUubWFlPic=

>  <r_lp_tautomer_probability>  (9) 
1

>  <r_epik_Ionization_Penalty>  (9) 
8.4817e-07

>  <r_epik_Ionization_Penalty_Charging>  (9) 
0

>  <r_epik_Ionization_Penalty_Neutral>  (9) 
8.4817e-07

>  <r_epik_State_Penalty>  (9) 
-0

>  <r_epik_Charging_Adjusted_Penalty>  (9) 
0

>  <i_epik_Tot_Q>  (9) 
0

>  <i_epik_Tot_abs_Q>  (9) 
0

>  <s_epik_Chemistry_Notes>  (9) 
This compound contains an acetal/aminal-like group ( X-CH(R)-Y where X, Y are N, S, or O) that may be acid/base labile, releasing an aldehyde.

>  <s_lp_Force_Field>  (9) 
OPLS3e

>  <r_lp_Energy>  (9) 
39.1378

>  <b_lp_Chiralities_Consistent>  (9) 
1

>  <s_lp_Variant>  (9) 
4:0-1

>  <s_i_glide_gridfile>  (9) 
pfpi4k_grid

>  <i_i_glide_lignum>  (9) 
5

>  <i_i_glide_rotatable_bonds>  (9) 
1

>  <r_i_docking_score>  (9) 
-3.6144

>  <r_i_glide_ligand_efficiency>  (9) 
-0.18072

>  <r_i_glide_ligand_efficiency_sa>  (9) 
-0.49055

>  <r_i_glide_ligand_efficiency_ln>  (9) 
-0.904566

>  <r_i_glide_gscore>  (9) 
-3.6144

>  <r_i_glide_lipo>  (9) 
-0.30692

>  <r_i_glide_hbond>  (9) 
-0.16

>  <r_i_glide_metal>  (9) 
-0

>  <r_i_glide_rewards>  (9) 
-1.55951

>  <r_i_glide_evdw>  (9) 
-23.0282

>  <r_i_glide_ecoul>  (9) 
-3.13318

>  <r_i_glide_erotb>  (9) 
0.24326

>  <r_i_glide_esite>  (9) 
-0.209842

>  <r_i_glide_emodel>  (9) 
-32.1306

>  <r_i_glide_energy>  (9) 
-26.1614

>  <r_i_glide_einternal>  (9) 
0.256812

>  <r_i_glide_intrahb_reward>  (9) 
-0

>  <i_i_glide_confnum>  (9) 
6

>  <i_i_glide_posenum>  (9) 
16

>  <r_i_glide_eff_state_penalty>  (9) 
0

>  <ligand_id>  (9) 
4

>  <original_smiles>  (9) 
Cc1nn(-c2ccc3c(c2)OCO3)c2c1CCC(=O)N2

>  <smiles>  (9) 
[H]c1c([H])c(-n2nc(C([H])([H])[H])c3c2N([H])C(=O)C([H])([H])C3([H])[H])c([H])c2c1OC([H])([H])O2

$$$$
4:0:2
     RDKit          3D

 33 36  0  0  1  0  0  0  0  0999 V2000
    4.5007   -5.8649    0.1135 C   0  0  0  0  0  0  0  0  0  0  0  0
    4.2762   -4.3839    0.0132 C   0  0  0  0  0  0  0  0  0  0  0  0
    4.1071   -3.6835    1.1317 N   0  0  0  0  0  0  0  0  0  0  0  0
    3.9134   -2.3933    0.7461 N   0  0  0  0  0  0  0  0  0  0  0  0
    3.7427   -1.3762    1.7154 C   0  0  0  0  0  0  0  0  0  0  0  0
    4.3797   -1.4922    2.9838 C   0  0  0  0  0  0  0  0  0  0  0  0
    4.2187   -0.4969    3.9736 C   0  0  0  0  0  0  0  0  0  0  0  0
    3.4193    0.6126    3.6537 C   0  0  0  0  0  0  0  0  0  0  0  0
    2.8047    0.7306    2.4266 C   0  0  0  0  0  0  0  0  0  0  0  0
    2.9344   -0.2501    1.4353 C   0  0  0  0  0  0  0  0  0  0  0  0
    2.1164    1.8989    2.3690 O   0  0  0  0  0  0  0  0  0  0  0  0
    2.4237    2.5727    3.5597 C   0  0  0  0  0  0  0  0  0  0  0  0
    3.1377    1.7074    4.4080 O   0  0  0  0  0  0  0  0  0  0  0  0
    3.9606   -2.3288   -0.6304 C   0  0  0  0  0  0  0  0  0  0  0  0
    4.2161   -3.5585   -1.1449 C   0  0  0  0  0  0  0  0  0  0  0  0
    4.3680   -3.8107   -2.6174 C   0  0  0  0  0  0  0  0  0  0  0  0
    4.7657   -2.4962   -3.3143 C   0  0  0  0  0  0  0  0  0  0  0  0
    4.0589   -1.2521   -2.7453 C   0  0  0  0  0  0  0  0  0  0  0  0
    3.7847   -0.3163   -3.4908 O   0  0  0  0  0  0  0  0  0  0  0  0
    3.8083   -1.2372   -1.4211 N   0  0  0  0  0  0  0  0  0  0  0  0
    4.6197   -6.3279   -0.8681 H   0  0  0  0  0  0  0  0  0  0  0  0
    3.6647   -6.3549    0.6167 H   0  0  0  0  0  0  0  0  0  0  0  0
    5.4000   -6.0774    0.6909 H   0  0  0  0  0  0  0  0  0  0  0  0
    5.0014   -2.3490    3.1984 H   0  0  0  0  0  0  0  0  0  0  0  0
    4.7060   -0.5729    4.9364 H   0  0  0  0  0  0  0  0  0  0  0  0
    2.4209   -0.1284    0.4940 H   0  0  0  0  0  0  0  0  0  0  0  0
    3.0685    3.4161    3.3080 H   0  0  0  0  0  0  0  0  0  0  0  0
    1.5133    2.9373    4.0416 H   0  0  0  0  0  0  0  0  0  0  0  0
    5.1126   -4.5824   -2.8170 H   0  0  0  0  0  0  0  0  0  0  0  0
    3.4289   -4.1307   -3.0612 H   0  0  0  0  0  0  0  0  0  0  0  0
    5.8261   -2.3362   -3.1499 H   0  0  0  0  0  0  0  0  0  0  0  0
    4.6045   -2.5613   -4.3870 H   0  0  0  0  0  0  0  0  0  0  0  0
    3.3788   -0.4265   -1.0045 H   0  0  0  0  0  0  0  0  0  0  0  0
  1  2  1  0
  1 21  1  0
  1 22  1  0
  1 23  1  0
  2 15  1  0
  2  3  2  0
  3  4  1  0
  4  5  1  0
  4 14  1  0
  5 10  1  0
  5  6  2  0
  6  7  1  0
  6 24  1  0
  7  8  2  0
  7 25  1  0
  8 13  1  0
  8  9  1  0
  9 10  2  0
  9 11  1  0
 10 26  1  0
 11 12  1  0
 12 13  1  0
 12 27  1  0
 12 28  1  0
 14 20  1  0
 14 15  2  0
 15 16  1  0
 16 17  1  0
 16 29  1  0
 16 30  1  0
 17 18  1  0
 17 31  1  0
 17 32  1  0
 18 19  2  0
 18 20  1  0
 20 33  1  0
M  END
>  <i_m_ct_stereo_status>  (10) 
1

>  <s_m_source_file>  (10) 
/var/tmp/pbs.5076255.sched01/tmp0du1nuht/0914ajmtz.sdf

>  <i_m_source_file_index>  (10) 
5

>  <i_lp_mmshare_version>  (10) 
48012

>  <i_f3d_flags>  (10) 
0

>  <s_epik_input>  (10) 
Tz1DKFtOSF0xKVtDSDJdW0NIMl1jKGMxMiljKFtDSDNdKW5uMi1jKFtjSF1bY0hdMylbY0hdYyhjMzQpT1tDSDJdTzQ=

>  <s_epik_cmdline>  (10) 
J2VwaWtfcHl0aG9uJywgJy1waHQnLCAnMi4wJywgJy1waCcsICc3LjAnLCAnLXRuJywgJzgnLCAnLW1hJywgJzIwMCcsICctaW1hZScsICc8aW5maWxlLm1hZT4nLCAnLW9tYWUnLCAnPG91dGZpbGUubWFlPic=

>  <r_lp_tautomer_probability>  (10) 
1

>  <r_epik_Ionization_Penalty>  (10) 
8.4817e-07

>  <r_epik_Ionization_Penalty_Charging>  (10) 
0

>  <r_epik_Ionization_Penalty_Neutral>  (10) 
8.4817e-07

>  <r_epik_State_Penalty>  (10) 
-0

>  <r_epik_Charging_Adjusted_Penalty>  (10) 
0

>  <i_epik_Tot_Q>  (10) 
0

>  <i_epik_Tot_abs_Q>  (10) 
0

>  <s_epik_Chemistry_Notes>  (10) 
This compound contains an acetal/aminal-like group ( X-CH(R)-Y where X, Y are N, S, or O) that may be acid/base labile, releasing an aldehyde.

>  <s_lp_Force_Field>  (10) 
OPLS3e

>  <r_lp_Energy>  (10) 
39.1378

>  <b_lp_Chiralities_Consistent>  (10) 
1

>  <s_lp_Variant>  (10) 
4:0-1

>  <s_i_glide_gridfile>  (10) 
pfpi4k_grid

>  <i_i_glide_lignum>  (10) 
5

>  <i_i_glide_rotatable_bonds>  (10) 
1

>  <r_i_docking_score>  (10) 
-2.96176

>  <r_i_glide_ligand_efficiency>  (10) 
-0.148088

>  <r_i_glide_ligand_efficiency_sa>  (10) 
-0.401973

>  <r_i_glide_ligand_efficiency_ln>  (10) 
-0.741232

>  <r_i_glide_gscore>  (10) 
-2.96176

>  <r_i_glide_lipo>  (10) 
-0.211286

>  <r_i_glide_hbond>  (10) 
0

>  <r_i_glide_metal>  (10) 
-0

>  <r_i_glide_rewards>  (10) 
-1.55951

>  <r_i_glide_evdw>  (10) 
-23.7133

>  <r_i_glide_ecoul>  (10) 
-0.845071

>  <r_i_glide_erotb>  (10) 
0.24326

>  <r_i_glide_esite>  (10) 
-0.121797

>  <r_i_glide_emodel>  (10) 
-29.46

>  <r_i_glide_energy>  (10) 
-24.5584

>  <r_i_glide_einternal>  (10) 
0.0942086

>  <r_i_glide_intrahb_reward>  (10) 
-0

>  <i_i_glide_confnum>  (10) 
2

>  <i_i_glide_posenum>  (10) 
37

>  <r_i_glide_eff_state_penalty>  (10) 
0

>  <ligand_id>  (10) 
4

>  <original_smiles>  (10) 
Cc1nn(-c2ccc3c(c2)OCO3)c2c1CCC(=O)N2

>  <smiles>  (10) 
[H]c1c([H])c(-n2nc(C([H])([H])[H])c3c2N([H])C(=O)C([H])([H])C3([H])[H])c([H])c2c1OC([H])([H])O2

$$$$
5:0:0
     RDKit          3D

 64 68  0  0  1  0  0  0  0  0999 V2000
   -2.2483    2.2503    9.5546 C   0  0  0  0  0  0  0  0  0  0  0  0
   -2.4731    3.2122    8.3732 C   0  0  0  0  0  0  0  0  0  0  0  0
   -3.2453    2.4738    7.2766 C   0  0  0  0  0  0  0  0  0  0  0  0
   -1.1302    3.8115    7.9220 C   0  0  0  0  0  0  0  0  0  0  0  0
   -0.7458    4.2034    6.6874 C   0  0  0  0  0  0  0  0  0  0  0  0
   -1.5487    4.2486    5.3969 C   0  0  0  0  0  0  0  0  0  0  0  0
   -1.3154    3.0320    4.4779 C   0  0  1  0  0  0  0  0  0  0  0  0
   -2.3679    2.9892    3.3536 C   0  0  0  0  0  0  0  0  0  0  0  0
    0.1290    3.0171    3.9223 C   0  0  1  0  0  0  0  0  0  0  0  0
    0.3232    4.2868    3.3284 O   0  0  0  0  0  0  0  0  0  0  0  0
    1.2936    2.6520    4.9385 C   0  0  1  0  0  0  0  0  0  0  0  0
    1.6125    3.7802    5.9290 C   0  0  0  0  0  0  0  0  0  0  0  0
    2.9274    3.8504    6.1514 C   0  0  0  0  0  0  0  0  0  0  0  0
    3.6452    2.7389    5.4312 C   0  0  1  0  0  0  0  0  0  0  0  0
    3.6317    1.3359    6.1046 C   0  0  2  0  0  0  0  0  0  0  0  0
    3.9911    0.4988    4.8651 C   0  0  0  0  0  0  0  0  0  0  0  0
    3.0614    1.0188    3.7599 C   0  0  1  0  0  0  0  0  0  0  0  0
    1.8077    0.1474    3.4890 C   0  0  1  0  0  0  0  0  0  0  0  0
    2.0799   -1.2843    2.9977 C   0  0  0  0  0  0  0  0  0  0  0  0
    0.7914    0.1749    4.6550 C   0  0  0  0  0  0  0  0  0  0  0  0
    1.0620    1.2862    5.7123 C   0  0  1  0  0  0  0  0  0  0  0  0
    2.2392    0.9086    6.7173 C   0  0  0  0  0  0  0  0  0  0  0  0
    2.2372   -0.6103    7.0883 C   0  0  0  0  0  0  0  0  0  0  0  0
    2.0040    1.5585    8.1128 C   0  0  0  0  0  0  0  0  0  0  0  0
    2.7056    2.4558    4.2494 C   0  0  1  0  0  0  0  0  0  0  0  0
    3.0207    3.3986    3.2278 O   0  0  0  0  0  0  0  0  0  0  0  0
    0.6415    4.6979    6.5673 C   0  0  0  0  0  0  0  0  0  0  0  0
    0.9515    5.7956    7.0198 O   0  0  0  0  0  0  0  0  0  0  0  0
   -1.8064    2.7394   10.4259 H   0  0  0  0  0  0  0  0  0  0  0  0
   -1.6017    1.4124    9.2759 H   0  0  0  0  0  0  0  0  0  0  0  0
   -3.2066    1.8396    9.8859 H   0  0  0  0  0  0  0  0  0  0  0  0
   -3.0836    4.0360    8.7443 H   0  0  0  0  0  0  0  0  0  0  0  0
   -3.6720    3.0888    6.5106 H   0  0  0  0  0  0  0  0  0  0  0  0
   -4.1807    2.1251    7.6859 H   0  0  0  0  0  0  0  0  0  0  0  0
   -2.6389    1.6744    6.8336 H   0  0  0  0  0  0  0  0  0  0  0  0
   -0.4215    3.9155    8.7363 H   0  0  0  0  0  0  0  0  0  0  0  0
   -2.5973    4.3737    5.5675 H   0  0  0  0  0  0  0  0  0  0  0  0
   -1.3279    5.1813    4.8672 H   0  0  0  0  0  0  0  0  0  0  0  0
   -1.4683    2.1052    5.0280 H   0  0  0  0  0  0  0  0  0  0  0  0
   -2.3354    3.8865    2.7362 H   0  0  0  0  0  0  0  0  0  0  0  0
   -3.3786    2.9023    3.7571 H   0  0  0  0  0  0  0  0  0  0  0  0
   -2.2157    2.1324    2.6973 H   0  0  0  0  0  0  0  0  0  0  0  0
    0.1534    2.3072    3.0979 H   0  0  0  0  0  0  0  0  0  0  0  0
    0.2386    4.1936    2.3662 H   0  0  0  0  0  0  0  0  0  0  0  0
    3.4172    4.5824    6.7688 H   0  0  0  0  0  0  0  0  0  0  0  0
    4.6470    3.0513    5.1372 H   0  0  0  0  0  0  0  0  0  0  0  0
    4.4095    1.2450    6.8635 H   0  0  0  0  0  0  0  0  0  0  0  0
    5.0194    0.7315    4.5889 H   0  0  0  0  0  0  0  0  0  0  0  0
    3.9780   -0.5783    4.9911 H   0  0  0  0  0  0  0  0  0  0  0  0
    3.6391    1.0682    2.8387 H   0  0  0  0  0  0  0  0  0  0  0  0
    1.3336    0.6284    2.6331 H   0  0  0  0  0  0  0  0  0  0  0  0
    2.5090   -1.9299    3.7653 H   0  0  0  0  0  0  0  0  0  0  0  0
    2.7452   -1.2888    2.1354 H   0  0  0  0  0  0  0  0  0  0  0  0
    1.1464   -1.7454    2.6761 H   0  0  0  0  0  0  0  0  0  0  0  0
   -0.1971    0.3158    4.2242 H   0  0  0  0  0  0  0  0  0  0  0  0
    0.6897   -0.8031    5.1210 H   0  0  0  0  0  0  0  0  0  0  0  0
    0.1574    1.3711    6.3129 H   0  0  0  0  0  0  0  0  0  0  0  0
    1.2746   -0.9288    7.4865 H   0  0  0  0  0  0  0  0  0  0  0  0
    2.9771   -0.8504    7.8502 H   0  0  0  0  0  0  0  0  0  0  0  0
    2.4514   -1.2839    6.2639 H   0  0  0  0  0  0  0  0  0  0  0  0
    1.0339    1.2795    8.5248 H   0  0  0  0  0  0  0  0  0  0  0  0
    2.0275    2.6387    8.1328 H   0  0  0  0  0  0  0  0  0  0  0  0
    2.7618    1.2471    8.8319 H   0  0  0  0  0  0  0  0  0  0  0  0
    3.7908    3.1318    2.7828 H   0  0  0  0  0  0  0  0  0  0  0  0
  1  2  1  0
  1 29  1  0
  1 30  1  0
  1 31  1  0
  2  3  1  0
  2  4  1  0
  2 32  1  0
  3 33  1  0
  3 34  1  0
  3 35  1  0
  4  5  2  3
  4 36  1  0
  5 27  1  0
  5  6  1  0
  6  7  1  0
  6 37  1  0
  6 38  1  0
  7  8  1  0
  7  9  1  0
  7 39  1  1
  8 40  1  0
  8 41  1  0
  8 42  1  0
  9 10  1  0
  9 11  1  0
  9 43  1  6
 10 44  1  0
 11 21  1  0
 11 25  1  0
 11 12  1  1
 12 13  2  0
 12 27  1  0
 13 14  1  0
 13 45  1  0
 14 25  1  0
 14 15  1  0
 14 46  1  6
 15 22  1  0
 15 16  1  0
 15 47  1  1
 16 17  1  0
 16 48  1  0
 16 49  1  0
 17 18  1  0
 17 25  1  0
 17 50  1  6
 18 19  1  0
 18 20  1  0
 18 51  1  6
 19 52  1  0
 19 53  1  0
 19 54  1  0
 20 21  1  0
 20 55  1  0
 20 56  1  0
 21 22  1  0
 21 57  1  1
 22 23  1  0
 22 24  1  0
 23 58  1  0
 23 59  1  0
 23 60  1  0
 24 61  1  0
 24 62  1  0
 24 63  1  0
 25 26  1  6
 26 64  1  0
 27 28  2  0
M  END
>  <i_m_ct_stereo_status>  (11) 
1

>  <s_m_source_file>  (11) 
/var/tmp/pbs.5076255.sched01/tmp0du1nuht/0914ajmtz.sdf

>  <i_m_source_file_index>  (11) 
6

>  <i_lp_mmshare_version>  (11) 
48012

>  <i_f3d_flags>  (11) 
0

>  <s_epik_input>  (11) 
W09IXVtDQEBIXTFbQ0BIXShbQ0gzXSlbQ0gyXVxDKD1bQ0hdXFtDSF0oW0NIM10pW0NIM10pQyg9TylDKFtDQF0xMjMpPVtDSF1bQ0BIXTRbQ0BASF01W0NIMl1bQ0BIXShbQ0BAXTM0W09IXSlbQ0BASF0oW0NIM10pW0NIMl1bQ0BIXTJDNShbQ0gzXSlbQ0gzXQ==

>  <s_epik_cmdline>  (11) 
J2VwaWtfcHl0aG9uJywgJy1waHQnLCAnMi4wJywgJy1waCcsICc3LjAnLCAnLXRuJywgJzgnLCAnLW1hJywgJzIwMCcsICctaW1hZScsICc8aW5maWxlLm1hZT4nLCAnLW9tYWUnLCAnPG91dGZpbGUubWFlPic=

>  <r_lp_tautomer_probability>  (11) 
1

>  <r_epik_Ionization_Penalty>  (11) 
7.43867e-08

>  <r_epik_Ionization_Penalty_Charging>  (11) 
0

>  <r_epik_Ionization_Penalty_Neutral>  (11) 
7.43867e-08

>  <r_epik_State_Penalty>  (11) 
-0

>  <r_epik_Charging_Adjusted_Penalty>  (11) 
0

>  <i_epik_Tot_Q>  (11) 
0

>  <i_epik_Tot_abs_Q>  (11) 
0

>  <s_lp_Force_Field>  (11) 
OPLS3e

>  <r_lp_Energy>  (11) 
76.2977

>  <b_lp_Chiralities_Consistent>  (11) 
1

>  <s_lp_Variant>  (11) 
5:0-1

>  <s_i_glide_gridfile>  (11) 
pfpi4k_grid

>  <i_i_glide_lignum>  (11) 
6

>  <i_i_glide_rotatable_bonds>  (11) 
3

>  <r_i_docking_score>  (11) 
-2.59241

>  <r_i_glide_ligand_efficiency>  (11) 
-0.092586

>  <r_i_glide_ligand_efficiency_sa>  (11) 
-0.281146

>  <r_i_glide_ligand_efficiency_ln>  (11) 
-0.598404

>  <r_i_glide_gscore>  (11) 
-2.59241

>  <r_i_glide_lipo>  (11) 
-0.18258

>  <r_i_glide_hbond>  (11) 
0

>  <r_i_glide_metal>  (11) 
-0

>  <r_i_glide_rewards>  (11) 
-0.787149

>  <r_i_glide_evdw>  (11) 
-10.9028

>  <r_i_glide_ecoul>  (11) 
-8.05883

>  <r_i_glide_erotb>  (11) 
0.131484

>  <r_i_glide_esite>  (11) 
-0.000201593

>  <r_i_glide_emodel>  (11) 
-20.601

>  <r_i_glide_energy>  (11) 
-18.9616

>  <r_i_glide_einternal>  (11) 
3.05849

>  <r_i_glide_intrahb_reward>  (11) 
-0

>  <i_i_glide_confnum>  (11) 
1

>  <i_i_glide_posenum>  (11) 
25

>  <r_i_glide_eff_state_penalty>  (11) 
0

>  <ligand_id>  (11) 
5

>  <original_smiles>  (11) 
CC(C)C=C1CC(C)C(O)C23C(=CC4C5CC(C(C)CC2C5(C)C)C43O)C1=O

>  <smiles>  (11) 
[H]OC1([H])C([H])(C([H])([H])[H])C([H])([H])C(=C([H])C([H])(C([H])([H])[H])C([H])([H])[H])C(=O)C2=C([H])C3([H])C4([H])C([H])([H])C5([H])C([H])(C([H])([H])[H])C([H])([H])C([H])(C21C35O[H])C4(C([H])([H])[H])C([H])([H])[H]

$$$$
5:0:1
     RDKit          3D

 64 68  0  0  1  0  0  0  0  0999 V2000
   -0.4549   -0.9581    4.6898 C   0  0  0  0  0  0  0  0  0  0  0  0
   -0.0539   -2.3587    5.1415 C   0  0  0  0  0  0  0  0  0  0  0  0
   -0.6739   -2.6298    6.5216 C   0  0  0  0  0  0  0  0  0  0  0  0
    1.4561   -2.6733    5.1384 C   0  0  0  0  0  0  0  0  0  0  0  0
    2.5062   -1.9091    4.7450 C   0  0  0  0  0  0  0  0  0  0  0  0
    2.5552   -0.4916    4.2146 C   0  0  0  0  0  0  0  0  0  0  0  0
    2.5941   -0.4266    2.6742 C   0  0  1  0  0  0  0  0  0  0  0  0
    2.3094    0.9972    2.1832 C   0  0  0  0  0  0  0  0  0  0  0  0
    3.9317   -0.9801    2.0938 C   0  0  1  0  0  0  0  0  0  0  0  0
    4.9982   -0.2758    2.7281 O   0  0  0  0  0  0  0  0  0  0  0  0
    4.1466   -2.5447    2.1580 C   0  0  1  0  0  0  0  0  0  0  0  0
    4.4479   -3.0738    3.5675 C   0  0  0  0  0  0  0  0  0  0  0  0
    5.3587   -4.0343    3.5283 C   0  0  0  0  0  0  0  0  0  0  0  0
    5.7315   -4.3701    2.0997 C   0  0  1  0  0  0  0  0  0  0  0  0
    4.7281   -5.2967    1.3188 C   0  0  2  0  0  0  0  0  0  0  0  0
    5.1891   -4.9291   -0.1106 C   0  0  0  0  0  0  0  0  0  0  0  0
    5.2634   -3.3994   -0.1172 C   0  0  1  0  0  0  0  0  0  0  0  0
    4.0450   -2.6906   -0.7704 C   0  0  1  0  0  0  0  0  0  0  0  0
    3.8151   -2.9847   -2.2621 C   0  0  0  0  0  0  0  0  0  0  0  0
    2.7543   -2.8618    0.0589 C   0  0  0  0  0  0  0  0  0  0  0  0
    2.9703   -3.4017    1.4998 C   0  0  1  0  0  0  0  0  0  0  0  0
    3.2102   -4.9613    1.5455 C   0  0  0  0  0  0  0  0  0  0  0  0
    2.3202   -5.7194    0.5081 C   0  0  0  0  0  0  0  0  0  0  0  0
    2.6725   -5.5739    2.8812 C   0  0  0  0  0  0  0  0  0  0  0  0
    5.4281   -3.0438    1.3807 C   0  0  1  0  0  0  0  0  0  0  0  0
    6.5564   -2.1727    1.5025 O   0  0  0  0  0  0  0  0  0  0  0  0
    3.8348   -2.5856    4.8245 C   0  0  0  0  0  0  0  0  0  0  0  0
    4.3836   -2.7429    5.9201 O   0  0  0  0  0  0  0  0  0  0  0  0
   -0.0507   -0.7738    3.6931 H   0  0  0  0  0  0  0  0  0  0  0  0
   -0.0383   -0.2245    5.3900 H   0  0  0  0  0  0  0  0  0  0  0  0
   -1.5331   -0.7915    4.6243 H   0  0  0  0  0  0  0  0  0  0  0  0
   -0.4968   -3.0712    4.4409 H   0  0  0  0  0  0  0  0  0  0  0  0
   -0.5557   -3.6701    6.8255 H   0  0  0  0  0  0  0  0  0  0  0  0
   -1.7436   -2.4113    6.4945 H   0  0  0  0  0  0  0  0  0  0  0  0
   -0.2183   -1.9958    7.2867 H   0  0  0  0  0  0  0  0  0  0  0  0
    1.6511   -3.6587    5.5210 H   0  0  0  0  0  0  0  0  0  0  0  0
    1.7033    0.1246    4.5266 H   0  0  0  0  0  0  0  0  0  0  0  0
    3.4151    0.0193    4.6516 H   0  0  0  0  0  0  0  0  0  0  0  0
    1.7950   -1.0307    2.2502 H   0  0  0  0  0  0  0  0  0  0  0  0
    3.0326    1.7064    2.5847 H   0  0  0  0  0  0  0  0  0  0  0  0
    1.3210    1.3269    2.5109 H   0  0  0  0  0  0  0  0  0  0  0  0
    2.3180    1.0728    1.0968 H   0  0  0  0  0  0  0  0  0  0  0  0
    3.9908   -0.6537    1.0529 H   0  0  0  0  0  0  0  0  0  0  0  0
    5.8018   -0.6272    2.3858 H   0  0  0  0  0  0  0  0  0  0  0  0
    5.7548   -4.5642    4.3778 H   0  0  0  0  0  0  0  0  0  0  0  0
    6.7515   -4.6891    2.0243 H   0  0  0  0  0  0  0  0  0  0  0  0
    4.9194   -6.3370    1.5394 H   0  0  0  0  0  0  0  0  0  0  0  0
    6.1904   -5.3271   -0.2325 H   0  0  0  0  0  0  0  0  0  0  0  0
    4.6061   -5.3748   -0.9111 H   0  0  0  0  0  0  0  0  0  0  0  0
    6.1466   -3.1218   -0.6909 H   0  0  0  0  0  0  0  0  0  0  0  0
    4.3014   -1.6360   -0.7549 H   0  0  0  0  0  0  0  0  0  0  0  0
    3.4741   -3.9966   -2.4373 H   0  0  0  0  0  0  0  0  0  0  0  0
    4.7175   -2.8253   -2.8487 H   0  0  0  0  0  0  0  0  0  0  0  0
    3.0373   -2.3240   -2.6544 H   0  0  0  0  0  0  0  0  0  0  0  0
    2.3034   -1.8821    0.1499 H   0  0  0  0  0  0  0  0  0  0  0  0
    1.9916   -3.4213   -0.4815 H   0  0  0  0  0  0  0  0  0  0  0  0
    2.0518   -3.1940    2.0538 H   0  0  0  0  0  0  0  0  0  0  0  0
    1.2668   -5.4925    0.6317 H   0  0  0  0  0  0  0  0  0  0  0  0
    2.4177   -6.7923    0.6048 H   0  0  0  0  0  0  0  0  0  0  0  0
    2.5497   -5.4807   -0.5215 H   0  0  0  0  0  0  0  0  0  0  0  0
    1.6196   -5.3273    3.0329 H   0  0  0  0  0  0  0  0  0  0  0  0
    3.1818   -5.2488    3.7791 H   0  0  0  0  0  0  0  0  0  0  0  0
    2.7610   -6.6562    2.8773 H   0  0  0  0  0  0  0  0  0  0  0  0
    7.3042   -2.6734    1.2747 H   0  0  0  0  0  0  0  0  0  0  0  0
  1  2  1  0
  1 29  1  0
  1 30  1  0
  1 31  1  0
  2  3  1  0
  2  4  1  0
  2 32  1  0
  3 33  1  0
  3 34  1  0
  3 35  1  0
  4  5  2  3
  4 36  1  0
  5 27  1  0
  5  6  1  0
  6  7  1  0
  6 37  1  0
  6 38  1  0
  7  8  1  0
  7  9  1  0
  7 39  1  6
  8 40  1  0
  8 41  1  0
  8 42  1  0
  9 10  1  0
  9 11  1  0
  9 43  1  6
 10 44  1  0
 11 21  1  0
 11 25  1  0
 11 12  1  1
 12 13  2  0
 12 27  1  0
 13 14  1  0
 13 45  1  0
 14 25  1  0
 14 15  1  0
 14 46  1  1
 15 22  1  0
 15 16  1  0
 15 47  1  1
 16 17  1  0
 16 48  1  0
 16 49  1  0
 17 18  1  0
 17 25  1  0
 17 50  1  6
 18 19  1  0
 18 20  1  0
 18 51  1  6
 19 52  1  0
 19 53  1  0
 19 54  1  0
 20 21  1  0
 20 55  1  0
 20 56  1  0
 21 22  1  0
 21 57  1  1
 22 23  1  0
 22 24  1  0
 23 58  1  0
 23 59  1  0
 23 60  1  0
 24 61  1  0
 24 62  1  0
 24 63  1  0
 25 26  1  6
 26 64  1  0
 27 28  2  0
M  END
>  <i_m_ct_stereo_status>  (12) 
1

>  <s_m_source_file>  (12) 
/var/tmp/pbs.5076255.sched01/tmp0du1nuht/0914ajmtz.sdf

>  <i_m_source_file_index>  (12) 
6

>  <i_lp_mmshare_version>  (12) 
48012

>  <i_f3d_flags>  (12) 
0

>  <s_epik_input>  (12) 
W09IXVtDQEBIXTFbQ0BIXShbQ0gzXSlbQ0gyXVxDKD1bQ0hdXFtDSF0oW0NIM10pW0NIM10pQyg9TylDKFtDQF0xMjMpPVtDSF1bQ0BIXTRbQ0BASF01W0NIMl1bQ0BIXShbQ0BAXTM0W09IXSlbQ0BASF0oW0NIM10pW0NIMl1bQ0BIXTJDNShbQ0gzXSlbQ0gzXQ==

>  <s_epik_cmdline>  (12) 
J2VwaWtfcHl0aG9uJywgJy1waHQnLCAnMi4wJywgJy1waCcsICc3LjAnLCAnLXRuJywgJzgnLCAnLW1hJywgJzIwMCcsICctaW1hZScsICc8aW5maWxlLm1hZT4nLCAnLW9tYWUnLCAnPG91dGZpbGUubWFlPic=

>  <r_lp_tautomer_probability>  (12) 
1

>  <r_epik_Ionization_Penalty>  (12) 
7.43867e-08

>  <r_epik_Ionization_Penalty_Charging>  (12) 
0

>  <r_epik_Ionization_Penalty_Neutral>  (12) 
7.43867e-08

>  <r_epik_State_Penalty>  (12) 
-0

>  <r_epik_Charging_Adjusted_Penalty>  (12) 
0

>  <i_epik_Tot_Q>  (12) 
0

>  <i_epik_Tot_abs_Q>  (12) 
0

>  <s_lp_Force_Field>  (12) 
OPLS3e

>  <r_lp_Energy>  (12) 
76.2977

>  <b_lp_Chiralities_Consistent>  (12) 
1

>  <s_lp_Variant>  (12) 
5:0-1

>  <s_i_glide_gridfile>  (12) 
pfpi4k_grid

>  <i_i_glide_lignum>  (12) 
6

>  <i_i_glide_rotatable_bonds>  (12) 
3

>  <r_i_docking_score>  (12) 
-2.41337

>  <r_i_glide_ligand_efficiency>  (12) 
-0.0861918

>  <r_i_glide_ligand_efficiency_sa>  (12) 
-0.261729

>  <r_i_glide_ligand_efficiency_ln>  (12) 
-0.557077

>  <r_i_glide_gscore>  (12) 
-2.41337

>  <r_i_glide_lipo>  (12) 
-0.265125

>  <r_i_glide_hbond>  (12) 
0

>  <r_i_glide_metal>  (12) 
-0

>  <r_i_glide_rewards>  (12) 
-1.28715

>  <r_i_glide_evdw>  (12) 
-16.2098

>  <r_i_glide_ecoul>  (12) 
-1.21394

>  <r_i_glide_erotb>  (12) 
0.131484

>  <r_i_glide_esite>  (12) 
0

>  <r_i_glide_emodel>  (12) 
-25.1328

>  <r_i_glide_energy>  (12) 
-17.4238

>  <r_i_glide_einternal>  (12) 
0.949594

>  <r_i_glide_intrahb_reward>  (12) 
-0.5

>  <i_i_glide_confnum>  (12) 
2

>  <i_i_glide_posenum>  (12) 
23

>  <r_i_glide_eff_state_penalty>  (12) 
0

>  <ligand_id>  (12) 
5

>  <original_smiles>  (12) 
CC(C)C=C1CC(C)C(O)C23C(=CC4C5CC(C(C)CC2C5(C)C)C43O)C1=O

>  <smiles>  (12) 
[H]OC1([H])C([H])(C([H])([H])[H])C([H])([H])C(=C([H])C([H])(C([H])([H])[H])C([H])([H])[H])C(=O)C2=C([H])C3([H])C4([H])C([H])([H])C5([H])C([H])(C([H])([H])[H])C([H])([H])C([H])(C21C35O[H])C4(C([H])([H])[H])C([H])([H])[H]

$$$$
5:0:2
     RDKit          3D

 64 68  0  0  1  0  0  0  0  0999 V2000
    2.0838    2.1496    2.1915 C   0  0  0  0  0  0  0  0  0  0  0  0
    1.9306    3.2174    3.3020 C   0  0  0  0  0  0  0  0  0  0  0  0
    2.7313    4.4793    2.9294 C   0  0  0  0  0  0  0  0  0  0  0  0
    2.3331    2.7162    4.6834 C   0  0  0  0  0  0  0  0  0  0  0  0
    1.8634    1.6656    5.3824 C   0  0  0  0  0  0  0  0  0  0  0  0
    0.8318    0.6411    4.8932 C   0  0  0  0  0  0  0  0  0  0  0  0
   -0.5727    0.8593    5.4918 C   0  0  1  0  0  0  0  0  0  0  0  0
   -1.5765   -0.0714    4.7853 C   0  0  0  0  0  0  0  0  0  0  0  0
   -0.6380    0.7092    7.0263 C   0  0  1  0  0  0  0  0  0  0  0  0
   -0.1525   -0.5919    7.3262 O   0  0  0  0  0  0  0  0  0  0  0  0
    0.0279    1.8666    7.8856 C   0  0  1  0  0  0  0  0  0  0  0  0
    1.5569    1.8288    7.8827 C   0  0  0  0  0  0  0  0  0  0  0  0
    2.0457    2.1510    9.0771 C   0  0  0  0  0  0  0  0  0  0  0  0
    0.9261    2.5494   10.0028 C   0  0  1  0  0  0  0  0  0  0  0  0
    0.3764    3.9871    9.8651 C   0  0  2  0  0  0  0  0  0  0  0  0
   -0.9709    3.7859   10.5656 C   0  0  0  0  0  0  0  0  0  0  0  0
   -1.5387    2.4932    9.9572 C   0  0  1  0  0  0  0  0  0  0  0  0
   -2.6044    2.7127    8.8564 C   0  0  1  0  0  0  0  0  0  0  0  0
   -3.8949    3.4147    9.3003 C   0  0  0  0  0  0  0  0  0  0  0  0
   -2.0295    3.3269    7.5570 C   0  0  0  0  0  0  0  0  0  0  0  0
   -0.4755    3.3198    7.4973 C   0  0  1  0  0  0  0  0  0  0  0  0
    0.1864    4.4831    8.3706 C   0  0  0  0  0  0  0  0  0  0  0  0
   -0.6471    5.8004    8.3244 C   0  0  0  0  0  0  0  0  0  0  0  0
    1.5301    4.9591    7.7414 C   0  0  0  0  0  0  0  0  0  0  0  0
   -0.2672    1.7576    9.4371 C   0  0  1  0  0  0  0  0  0  0  0  0
   -0.2211    0.4471    9.9591 O   0  0  0  0  0  0  0  0  0  0  0  0
    2.4190    1.4630    6.7255 C   0  0  0  0  0  0  0  0  0  0  0  0
    3.5534    1.0413    6.8790 O   0  0  0  0  0  0  0  0  0  0  0  0
    1.4560    1.3024    2.2417 H   0  0  0  0  0  0  0  0  0  0  0  0
    3.1314    1.8163    2.1075 H   0  0  0  0  0  0  0  0  0  0  0  0
    1.8349    2.6428    1.2494 H   0  0  0  0  0  0  0  0  0  0  0  0
    0.8858    3.5089    3.3715 H   0  0  0  0  0  0  0  0  0  0  0  0
    2.6059    5.2870    3.6525 H   0  0  0  0  0  0  0  0  0  0  0  0
    2.4231    4.8687    1.9609 H   0  0  0  0  0  0  0  0  0  0  0  0
    3.8003    4.2683    2.8602 H   0  0  0  0  0  0  0  0  0  0  0  0
    3.0837    3.3383    5.1602 H   0  0  0  0  0  0  0  0  0  0  0  0
    0.6846    0.6768    3.8654 H   0  0  0  0  0  0  0  0  0  0  0  0
    1.2085   -0.3695    5.1430 H   0  0  0  0  0  0  0  0  0  0  0  0
   -0.8762    1.8640    5.2175 H   0  0  0  0  0  0  0  0  0  0  0  0
   -1.3316   -1.1238    4.9374 H   0  0  0  0  0  0  0  0  0  0  0  0
   -1.5783    0.1046    3.7085 H   0  0  0  0  0  0  0  0  0  0  0  0
   -2.5990    0.0949    5.1307 H   0  0  0  0  0  0  0  0  0  0  0  0
   -1.6850    0.6644    7.2834 H   0  0  0  0  0  0  0  0  0  0  0  0
    0.7847   -0.6061    7.1595 H   0  0  0  0  0  0  0  0  0  0  0  0
    3.0831    2.1888    9.3468 H   0  0  0  0  0  0  0  0  0  0  0  0
    1.1603    2.2737   11.0509 H   0  0  0  0  0  0  0  0  0  0  0  0
    0.9998    4.7058   10.4010 H   0  0  0  0  0  0  0  0  0  0  0  0
   -0.7709    3.6044   11.6197 H   0  0  0  0  0  0  0  0  0  0  0  0
   -1.6518    4.6375   10.5528 H   0  0  0  0  0  0  0  0  0  0  0  0
   -2.0045    1.9346   10.7725 H   0  0  0  0  0  0  0  0  0  0  0  0
   -2.9398    1.7079    8.5964 H   0  0  0  0  0  0  0  0  0  0  0  0
   -3.7380    4.4741    9.5191 H   0  0  0  0  0  0  0  0  0  0  0  0
   -4.3213    2.9444   10.1892 H   0  0  0  0  0  0  0  0  0  0  0  0
   -4.6469    3.3471    8.5155 H   0  0  0  0  0  0  0  0  0  0  0  0
   -2.4201    2.7649    6.7193 H   0  0  0  0  0  0  0  0  0  0  0  0
   -2.4442    4.3180    7.3758 H   0  0  0  0  0  0  0  0  0  0  0  0
   -0.2044    3.5239    6.4655 H   0  0  0  0  0  0  0  0  0  0  0  0
   -0.8051    6.1366    7.3030 H   0  0  0  0  0  0  0  0  0  0  0  0
   -0.1401    6.6120    8.8449 H   0  0  0  0  0  0  0  0  0  0  0  0
   -1.6293    5.7349    8.7776 H   0  0  0  0  0  0  0  0  0  0  0  0
    1.3911    5.2827    6.7113 H   0  0  0  0  0  0  0  0  0  0  0  0
    2.3282    4.2321    7.7146 H   0  0  0  0  0  0  0  0  0  0  0  0
    1.9396    5.8049    8.2961 H   0  0  0  0  0  0  0  0  0  0  0  0
   -0.3235    0.5062   10.9019 H   0  0  0  0  0  0  0  0  0  0  0  0
  1  2  1  0
  1 29  1  0
  1 30  1  0
  1 31  1  0
  2  3  1  0
  2  4  1  0
  2 32  1  0
  3 33  1  0
  3 34  1  0
  3 35  1  0
  4  5  2  3
  4 36  1  0
  5 27  1  0
  5  6  1  0
  6  7  1  0
  6 37  1  0
  6 38  1  0
  7  8  1  0
  7  9  1  0
  7 39  1  1
  8 40  1  0
  8 41  1  0
  8 42  1  0
  9 10  1  0
  9 11  1  0
  9 43  1  1
 10 44  1  0
 11 21  1  0
 11 25  1  0
 11 12  1  1
 12 13  2  0
 12 27  1  0
 13 14  1  0
 13 45  1  0
 14 25  1  0
 14 15  1  0
 14 46  1  1
 15 22  1  0
 15 16  1  0
 15 47  1  1
 16 17  1  0
 16 48  1  0
 16 49  1  0
 17 18  1  0
 17 25  1  0
 17 50  1  1
 18 19  1  0
 18 20  1  0
 18 51  1  6
 19 52  1  0
 19 53  1  0
 19 54  1  0
 20 21  1  0
 20 55  1  0
 20 56  1  0
 21 22  1  0
 21 57  1  6
 22 23  1  0
 22 24  1  0
 23 58  1  0
 23 59  1  0
 23 60  1  0
 24 61  1  0
 24 62  1  0
 24 63  1  0
 25 26  1  1
 26 64  1  0
 27 28  2  0
M  END
>  <i_m_ct_stereo_status>  (13) 
1

>  <s_m_source_file>  (13) 
/var/tmp/pbs.5076255.sched01/tmp0du1nuht/0914ajmtz.sdf

>  <i_m_source_file_index>  (13) 
6

>  <i_lp_mmshare_version>  (13) 
48012

>  <i_f3d_flags>  (13) 
0

>  <s_epik_input>  (13) 
W09IXVtDQEBIXTFbQ0BIXShbQ0gzXSlbQ0gyXVxDKD1bQ0hdXFtDSF0oW0NIM10pW0NIM10pQyg9TylDKFtDQF0xMjMpPVtDSF1bQ0BIXTRbQ0BASF01W0NIMl1bQ0BIXShbQ0BAXTM0W09IXSlbQ0BASF0oW0NIM10pW0NIMl1bQ0BIXTJDNShbQ0gzXSlbQ0gzXQ==

>  <s_epik_cmdline>  (13) 
J2VwaWtfcHl0aG9uJywgJy1waHQnLCAnMi4wJywgJy1waCcsICc3LjAnLCAnLXRuJywgJzgnLCAnLW1hJywgJzIwMCcsICctaW1hZScsICc8aW5maWxlLm1hZT4nLCAnLW9tYWUnLCAnPG91dGZpbGUubWFlPic=

>  <r_lp_tautomer_probability>  (13) 
1

>  <r_epik_Ionization_Penalty>  (13) 
7.43867e-08

>  <r_epik_Ionization_Penalty_Charging>  (13) 
0

>  <r_epik_Ionization_Penalty_Neutral>  (13) 
7.43867e-08

>  <r_epik_State_Penalty>  (13) 
-0

>  <r_epik_Charging_Adjusted_Penalty>  (13) 
0

>  <i_epik_Tot_Q>  (13) 
0

>  <i_epik_Tot_abs_Q>  (13) 
0

>  <s_lp_Force_Field>  (13) 
OPLS3e

>  <r_lp_Energy>  (13) 
76.2977

>  <b_lp_Chiralities_Consistent>  (13) 
1

>  <s_lp_Variant>  (13) 
5:0-1

>  <s_i_glide_gridfile>  (13) 
pfpi4k_grid

>  <i_i_glide_lignum>  (13) 
6

>  <i_i_glide_rotatable_bonds>  (13) 
3

>  <r_i_docking_score>  (13) 
-2.17563

>  <r_i_glide_ligand_efficiency>  (13) 
-0.0777009

>  <r_i_glide_ligand_efficiency_sa>  (13) 
-0.235946

>  <r_i_glide_ligand_efficiency_ln>  (13) 
-0.502198

>  <r_i_glide_gscore>  (13) 
-2.17563

>  <r_i_glide_lipo>  (13) 
-0.21258

>  <r_i_glide_hbond>  (13) 
0

>  <r_i_glide_metal>  (13) 
-0

>  <r_i_glide_rewards>  (13) 
-0.787149

>  <r_i_glide_evdw>  (13) 
-17.3278

>  <r_i_glide_ecoul>  (13) 
-2.93995

>  <r_i_glide_erotb>  (13) 
0.131484

>  <r_i_glide_esite>  (13) 
0

>  <r_i_glide_emodel>  (13) 
-21.3933

>  <r_i_glide_energy>  (13) 
-20.2677

>  <r_i_glide_einternal>  (13) 
2.79565

>  <r_i_glide_intrahb_reward>  (13) 
-0

>  <i_i_glide_confnum>  (13) 
1

>  <i_i_glide_posenum>  (13) 
16

>  <r_i_glide_eff_state_penalty>  (13) 
0

>  <ligand_id>  (13) 
5

>  <original_smiles>  (13) 
CC(C)C=C1CC(C)C(O)C23C(=CC4C5CC(C(C)CC2C5(C)C)C43O)C1=O

>  <smiles>  (13) 
[H]OC1([H])C([H])(C([H])([H])[H])C([H])([H])C(=C([H])C([H])(C([H])([H])[H])C([H])([H])[H])C(=O)C2=C([H])C3([H])C4([H])C([H])([H])C5([H])C([H])(C([H])([H])[H])C([H])([H])C([H])(C21C35O[H])C4(C([H])([H])[H])C([H])([H])[H]

$$$$
6:0:0
     RDKit          3D

 45 47  0  0  1  0  0  0  0  0999 V2000
    3.0502   -0.2917   -4.4484 C   0  0  0  0  0  0  0  0  0  0  0  0
    3.0258   -1.0563   -3.1696 N   0  0  2  0  0  0  0  0  0  0  0  0
    4.3251   -0.9796   -2.4619 C   0  0  0  0  0  0  0  0  0  0  0  0
    4.2634   -1.6804   -1.1102 C   0  0  0  0  0  0  0  0  0  0  0  0
    3.8203   -3.1612   -1.2276 C   0  0  1  0  0  0  0  0  0  0  0  0
    3.6278   -3.7643    0.1192 N   0  0  1  0  0  0  0  0  0  0  0  0
    3.1406   -5.1774    0.1132 C   0  0  0  0  0  0  0  0  0  0  0  0
    2.7822   -5.6442    1.5216 C   0  0  0  0  0  0  0  0  0  0  0  0
    3.9658   -5.5026    2.4772 C   0  0  2  0  0  0  0  0  0  0  0  0
    5.0811   -6.5525    2.2560 C   0  0  0  0  0  0  0  0  0  0  0  0
    5.5920   -6.8602    3.6517 C   0  0  0  0  0  0  0  0  0  0  0  0
    4.6646   -6.0875    4.5884 C   0  0  0  0  0  0  0  0  0  0  0  0
    3.5183   -5.8101    3.7905 O   0  0  0  0  0  0  0  0  0  0  0  0
    4.4893   -4.0463    2.4341 C   0  0  0  0  0  0  0  0  0  0  0  0
    4.8102   -3.6274    1.0016 C   0  0  0  0  0  0  0  0  0  0  0  0
    2.5085   -3.2056   -2.0428 C   0  0  0  0  0  0  0  0  0  0  0  0
    2.6144   -2.4709   -3.3752 C   0  0  0  0  0  0  0  0  0  0  0  0
    3.7855   -0.7129   -5.1341 H   0  0  0  0  0  0  0  0  0  0  0  0
    3.3111    0.7561   -4.2828 H   0  0  0  0  0  0  0  0  0  0  0  0
    2.0806   -0.3166   -4.9457 H   0  0  0  0  0  0  0  0  0  0  0  0
    5.1001   -1.4599   -3.0585 H   0  0  0  0  0  0  0  0  0  0  0  0
    4.6192    0.0651   -2.3157 H   0  0  0  0  0  0  0  0  0  0  0  0
    5.2646   -1.5631   -0.6952 H   0  0  0  0  0  0  0  0  0  0  0  0
    3.5938   -1.1385   -0.4443 H   0  0  0  0  0  0  0  0  0  0  0  0
    4.5864   -3.7216   -1.7643 H   0  0  0  0  0  0  0  0  0  0  0  0
    2.2297   -5.2974   -0.4690 H   0  0  0  0  0  0  0  0  0  0  0  0
    3.9018   -5.8339   -0.3261 H   0  0  0  0  0  0  0  0  0  0  0  0
    1.9453   -5.0427    1.8718 H   0  0  0  0  0  0  0  0  0  0  0  0
    2.4165   -6.6707    1.4869 H   0  0  0  0  0  0  0  0  0  0  0  0
    4.6765   -7.4520    1.7724 H   0  0  0  0  0  0  0  0  0  0  0  0
    5.9065   -6.2123    1.6159 H   0  0  0  0  0  0  0  0  0  0  0  0
    5.5383   -7.9181    3.8474 H   0  0  0  0  0  0  0  0  0  0  0  0
    6.6011   -6.5128    3.7494 H   0  0  0  0  0  0  0  0  0  0  0  0
    4.3882   -6.6412    5.4956 H   0  0  0  0  0  0  0  0  0  0  0  0
    5.1015   -5.1368    4.9269 H   0  0  0  0  0  0  0  0  0  0  0  0
    3.7376   -3.3746    2.8428 H   0  0  0  0  0  0  0  0  0  0  0  0
    5.3701   -3.8867    3.0505 H   0  0  0  0  0  0  0  0  0  0  0  0
    5.6127   -4.2098    0.5562 H   0  0  0  0  0  0  0  0  0  0  0  0
    5.1502   -2.6033    1.0958 H   0  0  0  0  0  0  0  0  0  0  0  0
    2.1625   -4.2061   -2.2947 H   0  0  0  0  0  0  0  0  0  0  0  0
    1.7203   -2.7729   -1.4466 H   0  0  0  0  0  0  0  0  0  0  0  0
    1.6440   -2.5145   -3.8758 H   0  0  0  0  0  0  0  0  0  0  0  0
    3.3297   -2.9944   -4.0087 H   0  0  0  0  0  0  0  0  0  0  0  0
    2.8958   -3.2357    0.5826 H   0  0  0  0  0  0  0  0  0  0  0  0
    2.3343   -0.6355   -2.5659 H   0  0  0  0  0  0  0  0  0  0  0  0
  1  2  1  0
  1 18  1  0
  1 19  1  0
  1 20  1  0
  2 17  1  0
  2  3  1  0
  2 45  1  1
  3  4  1  0
  3 21  1  0
  3 22  1  0
  4  5  1  0
  4 23  1  0
  4 24  1  0
  5  6  1  0
  5 16  1  0
  5 25  1  6
  6 15  1  0
  6  7  1  0
  6 44  1  1
  7  8  1  0
  7 26  1  0
  7 27  1  0
  8  9  1  0
  8 28  1  0
  8 29  1  0
  9 13  1  1
  9 10  1  0
  9 14  1  0
 10 11  1  0
 10 30  1  0
 10 31  1  0
 11 12  1  0
 11 32  1  0
 11 33  1  0
 12 13  1  0
 12 34  1  0
 12 35  1  0
 14 15  1  0
 14 36  1  0
 14 37  1  0
 15 38  1  0
 15 39  1  0
 16 17  1  0
 16 40  1  0
 16 41  1  0
 17 42  1  0
 17 43  1  0
M  CHG  2   2   1   6   1
M  END
>  <i_m_ct_stereo_status>  (14) 
1

>  <s_m_source_file>  (14) 
/var/tmp/pbs.5076255.sched01/tmp0du1nuht/0914ajmtz.sdf

>  <i_m_source_file_index>  (14) 
7

>  <i_lp_mmshare_version>  (14) 
48012

>  <i_f3d_flags>  (14) 
0

>  <s_epik_input>  (14) 
W0NIM11OMVtDSDJdW0NIMl1bQ0hdKFtDSDJdW0NIMl0xKU4oW0NIMl1bQ0gyXTIpW0NIMl1bQ0gyXUMyM1tDSDJdW0NIMl1bQ0gyXU8z

>  <s_epik_cmdline>  (14) 
J2VwaWtfcHl0aG9uJywgJy1waHQnLCAnMi4wJywgJy1waCcsICc3LjAnLCAnLXRuJywgJzgnLCAnLW1hJywgJzIwMCcsICctaW1hZScsICc8aW5maWxlLm1hZT4nLCAnLW9tYWUnLCAnPG91dGZpbGUubWFlPic=

>  <r_epik_Ionization_Penalty>  (14) 
0.175634

>  <r_epik_Ionization_Penalty_Charging>  (14) 
0.175634

>  <r_epik_Ionization_Penalty_Neutral>  (14) 
1.94522e-12

>  <r_epik_State_Penalty>  (14) 
0.149045

>  <r_epik_Charging_Adjusted_Penalty>  (14) 
0.324679

>  <i_epik_Tot_Q>  (14) 
2

>  <i_epik_Tot_abs_Q>  (14) 
2

>  <s_lp_Force_Field>  (14) 
OPLS3e

>  <r_lp_Energy>  (14) 
51.8072

>  <b_lp_Chiralities_Consistent>  (14) 
1

>  <s_lp_Variant>  (14) 
6:0-1

>  <s_i_glide_gridfile>  (14) 
pfpi4k_grid

>  <i_i_glide_lignum>  (14) 
7

>  <i_i_glide_rotatable_bonds>  (14) 
1

>  <r_i_docking_score>  (14) 
-3.69413

>  <r_i_glide_ligand_efficiency>  (14) 
-0.217302

>  <r_i_glide_ligand_efficiency_sa>  (14) 
-0.558744

>  <r_i_glide_ligand_efficiency_ln>  (14) 
-0.963717

>  <r_i_glide_gscore>  (14) 
-3.69413

>  <r_i_glide_lipo>  (14) 
-0.618064

>  <r_i_glide_hbond>  (14) 
-0.0289127

>  <r_i_glide_metal>  (14) 
-0

>  <r_i_glide_rewards>  (14) 
-1.7701

>  <r_i_glide_evdw>  (14) 
-14.466

>  <r_i_glide_ecoul>  (14) 
-5.6698

>  <r_i_glide_erotb>  (14) 
0.299425

>  <r_i_glide_esite>  (14) 
-0.00270861

>  <r_i_glide_emodel>  (14) 
-25.2383

>  <r_i_glide_energy>  (14) 
-20.1358

>  <r_i_glide_einternal>  (14) 
0.651184

>  <r_i_glide_intrahb_reward>  (14) 
-0

>  <i_i_glide_confnum>  (14) 
2

>  <i_i_glide_posenum>  (14) 
7

>  <r_i_glide_eff_state_penalty>  (14) 
0

>  <ligand_id>  (14) 
6

>  <original_smiles>  (14) 
CN1CCC(N2CCC3(CCCO3)CC2)CC1

>  <smiles>  (14) 
[H]C1([H])OC2(C([H])([H])C1([H])[H])C([H])([H])C([H])([H])[N+]([H])(C1([H])C([H])([H])C([H])([H])[N+]([H])(C([H])([H])[H])C([H])([H])C1([H])[H])C([H])([H])C2([H])[H]

$$$$
6:0:1
     RDKit          3D

 45 47  0  0  1  0  0  0  0  0999 V2000
    2.7855    0.1104   -5.0262 C   0  0  0  0  0  0  0  0  0  0  0  0
    2.9646   -0.6341   -3.7611 N   0  0  2  0  0  0  0  0  0  0  0  0
    4.2770   -0.4228   -3.1454 C   0  0  0  0  0  0  0  0  0  0  0  0
    4.3916   -1.1130   -1.7840 C   0  0  0  0  0  0  0  0  0  0  0  0
    4.0759   -2.6215   -1.8640 C   0  0  1  0  0  0  0  0  0  0  0  0
    4.0697   -3.2102   -0.4899 N   0  0  1  0  0  0  0  0  0  0  0  0
    3.5516   -4.5917   -0.4206 C   0  0  0  0  0  0  0  0  0  0  0  0
    3.3801   -5.0571    1.0259 C   0  0  0  0  0  0  0  0  0  0  0  0
    4.6944   -4.9374    1.8038 C   0  0  2  0  0  0  0  0  0  0  0  0
    5.7483   -6.0001    1.4182 C   0  0  0  0  0  0  0  0  0  0  0  0
    6.4401   -6.3170    2.7373 C   0  0  0  0  0  0  0  0  0  0  0  0
    5.6641   -5.5268    3.7944 C   0  0  0  0  0  0  0  0  0  0  0  0
    4.4265   -5.2349    3.1711 O   0  0  0  0  0  0  0  0  0  0  0  0
    5.2396   -3.4957    1.6704 C   0  0  0  0  0  0  0  0  0  0  0  0
    5.3621   -3.0863    0.1992 C   0  0  0  0  0  0  0  0  0  0  0  0
    2.7208   -2.8150   -2.5837 C   0  0  0  0  0  0  0  0  0  0  0  0
    2.6517   -2.0830   -3.9199 C   0  0  0  0  0  0  0  0  0  0  0  0
    3.4876   -0.2462   -5.7875 H   0  0  0  0  0  0  0  0  0  0  0  0
    2.9411    1.1841   -4.8860 H   0  0  0  0  0  0  0  0  0  0  0  0
    1.7759   -0.0321   -5.4063 H   0  0  0  0  0  0  0  0  0  0  0  0
    5.0163   -0.8455   -3.8147 H   0  0  0  0  0  0  0  0  0  0  0  0
    4.4827    0.6522   -3.0360 H   0  0  0  0  0  0  0  0  0  0  0  0
    5.3982   -0.8946   -1.4320 H   0  0  0  0  0  0  0  0  0  0  0  0
    3.7166   -0.6560   -1.0564 H   0  0  0  0  0  0  0  0  0  0  0  0
    4.8504   -3.1191   -2.4589 H   0  0  0  0  0  0  0  0  0  0  0  0
    2.5619   -4.6681   -0.8519 H   0  0  0  0  0  0  0  0  0  0  0  0
    4.2327   -5.2725   -0.9488 H   0  0  0  0  0  0  0  0  0  0  0  0
    2.6110   -4.4394    1.4897 H   0  0  0  0  0  0  0  0  0  0  0  0
    2.9991   -6.0796    1.0469 H   0  0  0  0  0  0  0  0  0  0  0  0
    5.2682   -6.8948    1.0008 H   0  0  0  0  0  0  0  0  0  0  0  0
    6.4730   -5.6542    0.6669 H   0  0  0  0  0  0  0  0  0  0  0  0
    6.3936   -7.3850    2.9348 H   0  0  0  0  0  0  0  0  0  0  0  0
    7.4756   -5.9995    2.6927 H   0  0  0  0  0  0  0  0  0  0  0  0
    5.5226   -6.0757    4.7245 H   0  0  0  0  0  0  0  0  0  0  0  0
    6.1600   -4.5904    4.0489 H   0  0  0  0  0  0  0  0  0  0  0  0
    4.5667   -2.8030    2.1745 H   0  0  0  0  0  0  0  0  0  0  0  0
    6.2012   -3.3608    2.1541 H   0  0  0  0  0  0  0  0  0  0  0  0
    6.0909   -3.7108   -0.3320 H   0  0  0  0  0  0  0  0  0  0  0  0
    5.7495   -2.0737    0.2142 H   0  0  0  0  0  0  0  0  0  0  0  0
    2.5102   -3.8615   -2.8115 H   0  0  0  0  0  0  0  0  0  0  0  0
    1.9067   -2.4733   -1.9479 H   0  0  0  0  0  0  0  0  0  0  0  0
    1.6551   -2.2186   -4.3318 H   0  0  0  0  0  0  0  0  0  0  0  0
    3.3558   -2.5508   -4.6127 H   0  0  0  0  0  0  0  0  0  0  0  0
    3.4033   -2.6562    0.0560 H   0  0  0  0  0  0  0  0  0  0  0  0
    2.2817   -0.2539   -3.0950 H   0  0  0  0  0  0  0  0  0  0  0  0
  1  2  1  0
  1 18  1  0
  1 19  1  0
  1 20  1  0
  2 17  1  0
  2  3  1  0
  2 45  1  1
  3  4  1  0
  3 21  1  0
  3 22  1  0
  4  5  1  0
  4 23  1  0
  4 24  1  0
  5  6  1  0
  5 16  1  0
  5 25  1  6
  6 15  1  0
  6  7  1  0
  6 44  1  1
  7  8  1  0
  7 26  1  0
  7 27  1  0
  8  9  1  0
  8 28  1  0
  8 29  1  0
  9 13  1  1
  9 10  1  0
  9 14  1  0
 10 11  1  0
 10 30  1  0
 10 31  1  0
 11 12  1  0
 11 32  1  0
 11 33  1  0
 12 13  1  0
 12 34  1  0
 12 35  1  0
 14 15  1  0
 14 36  1  0
 14 37  1  0
 15 38  1  0
 15 39  1  0
 16 17  1  0
 16 40  1  0
 16 41  1  0
 17 42  1  0
 17 43  1  0
M  CHG  2   2   1   6   1
M  END
>  <i_m_ct_stereo_status>  (15) 
1

>  <s_m_source_file>  (15) 
/var/tmp/pbs.5076255.sched01/tmp0du1nuht/0914ajmtz.sdf

>  <i_m_source_file_index>  (15) 
7

>  <i_lp_mmshare_version>  (15) 
48012

>  <i_f3d_flags>  (15) 
0

>  <s_epik_input>  (15) 
W0NIM11OMVtDSDJdW0NIMl1bQ0hdKFtDSDJdW0NIMl0xKU4oW0NIMl1bQ0gyXTIpW0NIMl1bQ0gyXUMyM1tDSDJdW0NIMl1bQ0gyXU8z

>  <s_epik_cmdline>  (15) 
J2VwaWtfcHl0aG9uJywgJy1waHQnLCAnMi4wJywgJy1waCcsICc3LjAnLCAnLXRuJywgJzgnLCAnLW1hJywgJzIwMCcsICctaW1hZScsICc8aW5maWxlLm1hZT4nLCAnLW9tYWUnLCAnPG91dGZpbGUubWFlPic=

>  <r_epik_Ionization_Penalty>  (15) 
0.175634

>  <r_epik_Ionization_Penalty_Charging>  (15) 
0.175634

>  <r_epik_Ionization_Penalty_Neutral>  (15) 
1.94522e-12

>  <r_epik_State_Penalty>  (15) 
0.149045

>  <r_epik_Charging_Adjusted_Penalty>  (15) 
0.324679

>  <i_epik_Tot_Q>  (15) 
2

>  <i_epik_Tot_abs_Q>  (15) 
2

>  <s_lp_Force_Field>  (15) 
OPLS3e

>  <r_lp_Energy>  (15) 
51.8072

>  <b_lp_Chiralities_Consistent>  (15) 
1

>  <s_lp_Variant>  (15) 
6:0-1

>  <s_i_glide_gridfile>  (15) 
pfpi4k_grid

>  <i_i_glide_lignum>  (15) 
7

>  <i_i_glide_rotatable_bonds>  (15) 
1

>  <r_i_docking_score>  (15) 
-3.6085

>  <r_i_glide_ligand_efficiency>  (15) 
-0.212265

>  <r_i_glide_ligand_efficiency_sa>  (15) 
-0.545792

>  <r_i_glide_ligand_efficiency_ln>  (15) 
-0.941377

>  <r_i_glide_gscore>  (15) 
-3.6085

>  <r_i_glide_lipo>  (15) 
-0.564813

>  <r_i_glide_hbond>  (15) 
0

>  <r_i_glide_metal>  (15) 
-0

>  <r_i_glide_rewards>  (15) 
-1.7701

>  <r_i_glide_evdw>  (15) 
-16.0236

>  <r_i_glide_ecoul>  (15) 
-5.14553

>  <r_i_glide_erotb>  (15) 
0.299425

>  <r_i_glide_esite>  (15) 
0

>  <r_i_glide_emodel>  (15) 
-25.9373

>  <r_i_glide_energy>  (15) 
-21.1691

>  <r_i_glide_einternal>  (15) 
1.00586

>  <r_i_glide_intrahb_reward>  (15) 
-0

>  <i_i_glide_confnum>  (15) 
2

>  <i_i_glide_posenum>  (15) 
30

>  <r_i_glide_eff_state_penalty>  (15) 
0

>  <ligand_id>  (15) 
6

>  <original_smiles>  (15) 
CN1CCC(N2CCC3(CCCO3)CC2)CC1

>  <smiles>  (15) 
[H]C1([H])OC2(C([H])([H])C1([H])[H])C([H])([H])C([H])([H])[N+]([H])(C1([H])C([H])([H])C([H])([H])[N+]([H])(C([H])([H])[H])C([H])([H])C1([H])[H])C([H])([H])C2([H])[H]

$$$$
6:0:2
     RDKit          3D

 45 47  0  0  1  0  0  0  0  0999 V2000
    6.0051   -5.6761    3.6608 C   0  0  0  0  0  0  0  0  0  0  0  0
    5.4231   -5.0131    2.4726 N   0  0  2  0  0  0  0  0  0  0  0  0
    4.3450   -5.8383    1.8683 C   0  0  0  0  0  0  0  0  0  0  0  0
    3.6556   -5.1024    0.7156 C   0  0  0  0  0  0  0  0  0  0  0  0
    4.6801   -4.6431   -0.3437 C   0  0  1  0  0  0  0  0  0  0  0  0
    4.0131   -3.8582   -1.4062 N   0  0  1  0  0  0  0  0  0  0  0  0
    3.6469   -2.4827   -0.9832 C   0  0  0  0  0  0  0  0  0  0  0  0
    2.8102   -1.8276   -2.0450 C   0  0  0  0  0  0  0  0  0  0  0  0
    3.4625   -1.8280   -3.4117 C   0  0  2  0  0  0  0  0  0  0  0  0
    4.6271   -0.8647   -3.5201 C   0  0  0  0  0  0  0  0  0  0  0  0
    4.0953    0.4143   -4.1452 C   0  0  0  0  0  0  0  0  0  0  0  0
    2.6194    0.1389   -4.3268 C   0  0  0  0  0  0  0  0  0  0  0  0
    2.5575   -1.2817   -4.3165 O   0  0  0  0  0  0  0  0  0  0  0  0
    3.8228   -3.2830   -3.7802 C   0  0  0  0  0  0  0  0  0  0  0  0
    4.7345   -3.8705   -2.7014 C   0  0  0  0  0  0  0  0  0  0  0  0
    5.8545   -3.8724    0.3111 C   0  0  0  0  0  0  0  0  0  0  0  0
    6.4608   -4.6622    1.4667 C   0  0  0  0  0  0  0  0  0  0  0  0
    6.4656   -6.6199    3.3688 H   0  0  0  0  0  0  0  0  0  0  0  0
    5.2390   -5.8690    4.4149 H   0  0  0  0  0  0  0  0  0  0  0  0
    6.7858   -5.0779    4.1307 H   0  0  0  0  0  0  0  0  0  0  0  0
    4.7613   -6.7817    1.5084 H   0  0  0  0  0  0  0  0  0  0  0  0
    3.5962   -6.0833    2.6221 H   0  0  0  0  0  0  0  0  0  0  0  0
    2.9043   -5.7472    0.2495 H   0  0  0  0  0  0  0  0  0  0  0  0
    3.1058   -4.2598    1.1375 H   0  0  0  0  0  0  0  0  0  0  0  0
    5.0770   -5.5476   -0.8139 H   0  0  0  0  0  0  0  0  0  0  0  0
    3.0757   -2.4691   -0.0573 H   0  0  0  0  0  0  0  0  0  0  0  0
    4.5187   -1.8501   -0.8322 H   0  0  0  0  0  0  0  0  0  0  0  0
    1.8465   -2.3283   -2.1193 H   0  0  0  0  0  0  0  0  0  0  0  0
    2.7039   -0.7895   -1.7369 H   0  0  0  0  0  0  0  0  0  0  0  0
    5.1636   -0.6884   -2.5793 H   0  0  0  0  0  0  0  0  0  0  0  0
    5.2696   -1.3497   -4.2471 H   0  0  0  0  0  0  0  0  0  0  0  0
    4.2701    1.2947   -3.5243 H   0  0  0  0  0  0  0  0  0  0  0  0
    4.5694    0.5618   -5.1176 H   0  0  0  0  0  0  0  0  0  0  0  0
    2.0673    0.5158   -3.4922 H   0  0  0  0  0  0  0  0  0  0  0  0
    2.2071    0.5675   -5.2269 H   0  0  0  0  0  0  0  0  0  0  0  0
    2.9198   -3.8809   -3.9296 H   0  0  0  0  0  0  0  0  0  0  0  0
    4.3428   -3.3040   -4.7237 H   0  0  0  0  0  0  0  0  0  0  0  0
    5.6521   -3.2820   -2.6201 H   0  0  0  0  0  0  0  0  0  0  0  0
    5.0151   -4.8905   -2.9882 H   0  0  0  0  0  0  0  0  0  0  0  0
    6.6223   -3.6341   -0.4315 H   0  0  0  0  0  0  0  0  0  0  0  0
    5.5290   -2.9215    0.7366 H   0  0  0  0  0  0  0  0  0  0  0  0
    7.2285   -4.0411    1.9242 H   0  0  0  0  0  0  0  0  0  0  0  0
    6.9456   -5.5645    1.0896 H   0  0  0  0  0  0  0  0  0  0  0  0
    3.1554   -4.3597   -1.6350 H   0  0  0  0  0  0  0  0  0  0  0  0
    4.9949   -4.1471    2.7816 H   0  0  0  0  0  0  0  0  0  0  0  0
  1  2  1  0
  1 18  1  0
  1 19  1  0
  1 20  1  0
  2 17  1  0
  2  3  1  0
  2 45  1  1
  3  4  1  0
  3 21  1  0
  3 22  1  0
  4  5  1  0
  4 23  1  0
  4 24  1  0
  5  6  1  0
  5 16  1  0
  5 25  1  6
  6 15  1  0
  6  7  1  0
  6 44  1  6
  7  8  1  0
  7 26  1  0
  7 27  1  0
  8  9  1  0
  8 28  1  0
  8 29  1  0
  9 13  1  6
  9 10  1  0
  9 14  1  0
 10 11  1  0
 10 30  1  0
 10 31  1  0
 11 12  1  0
 11 32  1  0
 11 33  1  0
 12 13  1  0
 12 34  1  0
 12 35  1  0
 14 15  1  0
 14 36  1  0
 14 37  1  0
 15 38  1  0
 15 39  1  0
 16 17  1  0
 16 40  1  0
 16 41  1  0
 17 42  1  0
 17 43  1  0
M  CHG  2   2   1   6   1
M  END
>  <i_m_ct_stereo_status>  (16) 
1

>  <s_m_source_file>  (16) 
/var/tmp/pbs.5076255.sched01/tmp0du1nuht/0914ajmtz.sdf

>  <i_m_source_file_index>  (16) 
7

>  <i_lp_mmshare_version>  (16) 
48012

>  <i_f3d_flags>  (16) 
0

>  <s_epik_input>  (16) 
W0NIM11OMVtDSDJdW0NIMl1bQ0hdKFtDSDJdW0NIMl0xKU4oW0NIMl1bQ0gyXTIpW0NIMl1bQ0gyXUMyM1tDSDJdW0NIMl1bQ0gyXU8z

>  <s_epik_cmdline>  (16) 
J2VwaWtfcHl0aG9uJywgJy1waHQnLCAnMi4wJywgJy1waCcsICc3LjAnLCAnLXRuJywgJzgnLCAnLW1hJywgJzIwMCcsICctaW1hZScsICc8aW5maWxlLm1hZT4nLCAnLW9tYWUnLCAnPG91dGZpbGUubWFlPic=

>  <r_epik_Ionization_Penalty>  (16) 
0.175634

>  <r_epik_Ionization_Penalty_Charging>  (16) 
0.175634

>  <r_epik_Ionization_Penalty_Neutral>  (16) 
1.94522e-12

>  <r_epik_State_Penalty>  (16) 
0.149045

>  <r_epik_Charging_Adjusted_Penalty>  (16) 
0.324679

>  <i_epik_Tot_Q>  (16) 
2

>  <i_epik_Tot_abs_Q>  (16) 
2

>  <s_lp_Force_Field>  (16) 
OPLS3e

>  <r_lp_Energy>  (16) 
51.8072

>  <b_lp_Chiralities_Consistent>  (16) 
1

>  <s_lp_Variant>  (16) 
6:0-1

>  <s_i_glide_gridfile>  (16) 
pfpi4k_grid

>  <i_i_glide_lignum>  (16) 
7

>  <i_i_glide_rotatable_bonds>  (16) 
1

>  <r_i_docking_score>  (16) 
-3.43865

>  <r_i_glide_ligand_efficiency>  (16) 
-0.202273

>  <r_i_glide_ligand_efficiency_sa>  (16) 
-0.520102

>  <r_i_glide_ligand_efficiency_ln>  (16) 
-0.897067

>  <r_i_glide_gscore>  (16) 
-3.43865

>  <r_i_glide_lipo>  (16) 
-0.683091

>  <r_i_glide_hbond>  (16) 
0

>  <r_i_glide_metal>  (16) 
-0

>  <r_i_glide_rewards>  (16) 
-1.7701

>  <r_i_glide_evdw>  (16) 
-9.55159

>  <r_i_glide_ecoul>  (16) 
-5.16295

>  <r_i_glide_erotb>  (16) 
0.299425

>  <r_i_glide_esite>  (16) 
-0.0328583

>  <r_i_glide_emodel>  (16) 
-19.0768

>  <r_i_glide_energy>  (16) 
-14.7145

>  <r_i_glide_einternal>  (16) 
0.25312

>  <r_i_glide_intrahb_reward>  (16) 
-0

>  <i_i_glide_confnum>  (16) 
6

>  <i_i_glide_posenum>  (16) 
20

>  <r_i_glide_eff_state_penalty>  (16) 
0

>  <ligand_id>  (16) 
6

>  <original_smiles>  (16) 
CN1CCC(N2CCC3(CCCO3)CC2)CC1

>  <smiles>  (16) 
[H]C1([H])OC2(C([H])([H])C1([H])[H])C([H])([H])C([H])([H])[N+]([H])(C1([H])C([H])([H])C([H])([H])[N+]([H])(C([H])([H])[H])C([H])([H])C1([H])[H])C([H])([H])C2([H])[H]

$$$$
6:1:0
     RDKit          3D

 44 46  0  0  1  0  0  0  0  0999 V2000
   -6.5766   -4.4270   -4.0701 C   0  0  0  0  0  0  0  0  0  0  0  0
   -7.1834   -5.4239   -4.9773 N   0  0  2  0  0  0  0  0  0  0  0  0
   -6.2651   -6.5637   -5.2214 C   0  0  0  0  0  0  0  0  0  0  0  0
   -6.9280   -7.6363   -6.0695 C   0  0  0  0  0  0  0  0  0  0  0  0
   -7.4571   -7.0555   -7.4023 C   0  0  1  0  0  0  0  0  0  0  0  0
   -8.0696   -8.0506   -8.2994 N   0  0  0  0  0  0  0  0  0  0  0  0
   -9.3333   -8.5964   -7.7934 C   0  0  0  0  0  0  0  0  0  0  0  0
   -9.9623   -9.5704   -8.7886 C   0  0  0  0  0  0  0  0  0  0  0  0
   -9.0010  -10.7197   -9.1322 C   0  0  0  0  0  0  0  0  0  0  0  0
   -9.6099  -11.7058  -10.1330 C   0  0  0  0  0  0  0  0  0  0  0  0
   -9.1336  -13.0753   -9.6705 C   0  0  0  0  0  0  0  0  0  0  0  0
   -8.3261  -12.8107   -8.3997 C   0  0  0  0  0  0  0  0  0  0  0  0
   -8.7755  -11.5332   -7.9778 O   0  0  0  0  0  0  0  0  0  0  0  0
   -7.6775  -10.0984   -9.6300 C   0  0  0  0  0  0  0  0  0  0  0  0
   -7.1192   -9.1328   -8.5862 C   0  0  0  0  0  0  0  0  0  0  0  0
   -8.3490   -5.8179   -7.1632 C   0  0  0  0  0  0  0  0  0  0  0  0
   -7.6552   -4.7983   -6.2407 C   0  0  0  0  0  0  0  0  0  0  0  0
   -5.6742   -3.9732   -4.5037 H   0  0  0  0  0  0  0  0  0  0  0  0
   -6.3117   -4.8805   -3.1099 H   0  0  0  0  0  0  0  0  0  0  0  0
   -7.3019   -3.6362   -3.8849 H   0  0  0  0  0  0  0  0  0  0  0  0
   -5.3561   -6.2228   -5.7121 H   0  0  0  0  0  0  0  0  0  0  0  0
   -5.9561   -7.0013   -4.2721 H   0  0  0  0  0  0  0  0  0  0  0  0
   -6.1832   -8.4120   -6.2299 H   0  0  0  0  0  0  0  0  0  0  0  0
   -7.7236   -8.0873   -5.5197 H   0  0  0  0  0  0  0  0  0  0  0  0
   -6.5932   -6.6593   -7.9248 H   0  0  0  0  0  0  0  0  0  0  0  0
   -9.1693   -9.1053   -6.8481 H   0  0  0  0  0  0  0  0  0  0  0  0
  -10.0593   -7.8057   -7.6261 H   0  0  0  0  0  0  0  0  0  0  0  0
  -10.8943   -9.9531   -8.3761 H   0  0  0  0  0  0  0  0  0  0  0  0
  -10.2340   -9.0268   -9.6937 H   0  0  0  0  0  0  0  0  0  0  0  0
  -10.6987  -11.6712  -10.0925 H   0  0  0  0  0  0  0  0  0  0  0  0
   -9.3197  -11.4720  -11.1561 H   0  0  0  0  0  0  0  0  0  0  0  0
   -9.9936  -13.7063   -9.4497 H   0  0  0  0  0  0  0  0  0  0  0  0
   -8.5349  -13.5731  -10.4319 H   0  0  0  0  0  0  0  0  0  0  0  0
   -8.4819  -13.5756   -7.6345 H   0  0  0  0  0  0  0  0  0  0  0  0
   -7.2573  -12.7614   -8.6157 H   0  0  0  0  0  0  0  0  0  0  0  0
   -6.9342  -10.8737   -9.8048 H   0  0  0  0  0  0  0  0  0  0  0  0
   -7.8257   -9.5691  -10.5766 H   0  0  0  0  0  0  0  0  0  0  0  0
   -6.1767   -8.7212   -8.9374 H   0  0  0  0  0  0  0  0  0  0  0  0
   -6.8990   -9.7083   -7.6898 H   0  0  0  0  0  0  0  0  0  0  0  0
   -8.6045   -5.3575   -8.1180 H   0  0  0  0  0  0  0  0  0  0  0  0
   -9.3051   -6.0840   -6.7276 H   0  0  0  0  0  0  0  0  0  0  0  0
   -8.3642   -3.9919   -6.0243 H   0  0  0  0  0  0  0  0  0  0  0  0
   -6.7989   -4.3292   -6.7244 H   0  0  0  0  0  0  0  0  0  0  0  0
   -8.0035   -5.7935   -4.5107 H   0  0  0  0  0  0  0  0  0  0  0  0
  1  2  1  0
  1 18  1  0
  1 19  1  0
  1 20  1  0
  2 17  1  0
  2  3  1  0
  2 44  1  1
  3  4  1  0
  3 21  1  0
  3 22  1  0
  4  5  1  0
  4 23  1  0
  4 24  1  0
  5  6  1  0
  5 16  1  0
  5 25  1  6
  6 15  1  0
  6  7  1  0
  7  8  1  0
  7 26  1  0
  7 27  1  0
  8  9  1  0
  8 28  1  0
  8 29  1  0
  9 13  1  0
  9 10  1  0
  9 14  1  0
 10 11  1  0
 10 30  1  0
 10 31  1  0
 11 12  1  0
 11 32  1  0
 11 33  1  0
 12 13  1  0
 12 34  1  0
 12 35  1  0
 14 15  1  0
 14 36  1  0
 14 37  1  0
 15 38  1  0
 15 39  1  0
 16 17  1  0
 16 40  1  0
 16 41  1  0
 17 42  1  0
 17 43  1  0
M  CHG  1   2   1
M  END
>  <i_m_ct_stereo_status>  (17) 
1

>  <s_m_source_file>  (17) 
/var/tmp/pbs.5076255.sched01/tmp0du1nuht/0914ajmtz.sdf

>  <i_m_source_file_index>  (17) 
8

>  <i_lp_mmshare_version>  (17) 
48012

>  <i_f3d_flags>  (17) 
0

>  <s_epik_input>  (17) 
W0NIM11OMVtDSDJdW0NIMl1bQ0hdKFtDSDJdW0NIMl0xKU4oW0NIMl1bQ0gyXTIpW0NIMl1bQ0gyXUMyM1tDSDJdW0NIMl1bQ0gyXU8z

>  <s_epik_cmdline>  (17) 
J2VwaWtfcHl0aG9uJywgJy1waHQnLCAnMi4wJywgJy1waCcsICc3LjAnLCAnLXRuJywgJzgnLCAnLW1hJywgJzIwMCcsICctaW1hZScsICc8aW5maWxlLm1hZT4nLCAnLW9tYWUnLCAnPG91dGZpbGUubWFlPic=

>  <r_epik_Ionization_Penalty>  (17) 
1.02795

>  <r_epik_Ionization_Penalty_Charging>  (17) 
0.0009809

>  <r_epik_Ionization_Penalty_Neutral>  (17) 
1.02697

>  <r_epik_State_Penalty>  (17) 
1.12199

>  <r_epik_Charging_Adjusted_Penalty>  (17) 
1.12297

>  <i_epik_Tot_Q>  (17) 
1

>  <i_epik_Tot_abs_Q>  (17) 
1

>  <s_lp_Force_Field>  (17) 
OPLS3e

>  <r_lp_Energy>  (17) 
39.9668

>  <b_lp_Chiralities_Consistent>  (17) 
1

>  <s_lp_Variant>  (17) 
6:0-2

>  <s_i_glide_gridfile>  (17) 
pfpi4k_grid

>  <i_i_glide_lignum>  (17) 
8

>  <i_i_glide_rotatable_bonds>  (17) 
1

>  <r_i_docking_score>  (17) 
-4.38063

>  <r_i_glide_ligand_efficiency>  (17) 
-0.257684

>  <r_i_glide_ligand_efficiency_sa>  (17) 
-0.662578

>  <r_i_glide_ligand_efficiency_ln>  (17) 
-1.14281

>  <r_i_glide_gscore>  (17) 
-4.38063

>  <r_i_glide_lipo>  (17) 
-1.87908

>  <r_i_glide_hbond>  (17) 
0

>  <r_i_glide_metal>  (17) 
-0

>  <r_i_glide_rewards>  (17) 
-2.12451

>  <r_i_glide_evdw>  (17) 
-12.6439

>  <r_i_glide_ecoul>  (17) 
-0.309432

>  <r_i_glide_erotb>  (17) 
0.301579

>  <r_i_glide_esite>  (17) 
0

>  <r_i_glide_emodel>  (17) 
-16.3619

>  <r_i_glide_energy>  (17) 
-12.9533

>  <r_i_glide_einternal>  (17) 
1.17865

>  <r_i_glide_intrahb_reward>  (17) 
-0

>  <i_i_glide_confnum>  (17) 
6

>  <i_i_glide_posenum>  (17) 
2

>  <r_i_glide_eff_state_penalty>  (17) 
0

>  <ligand_id>  (17) 
6

>  <original_smiles>  (17) 
CN1CCC(N2CCC3(CCCO3)CC2)CC1

>  <smiles>  (17) 
[H]C1([H])OC2(C([H])([H])C([H])([H])N(C3([H])C([H])([H])C([H])([H])[N+]([H])(C([H])([H])[H])C([H])([H])C3([H])[H])C([H])([H])C2([H])[H])C([H])([H])C1([H])[H]

$$$$
6:1:1
     RDKit          3D

 44 46  0  0  1  0  0  0  0  0999 V2000
   -6.3909   -3.9984   -4.2650 C   0  0  0  0  0  0  0  0  0  0  0  0
   -6.5105   -5.0015   -5.3729 N   0  0  2  0  0  0  0  0  0  0  0  0
   -7.8809   -5.0218   -5.9333 C   0  0  0  0  0  0  0  0  0  0  0  0
   -7.9773   -5.9794   -7.1250 C   0  0  0  0  0  0  0  0  0  0  0  0
   -7.5371   -7.4084   -6.7181 C   0  0  1  0  0  0  0  0  0  0  0  0
   -7.6374   -8.3911   -7.8003 N   0  0  0  0  0  0  0  0  0  0  0  0
   -8.9671   -8.3329   -8.4435 C   0  0  0  0  0  0  0  0  0  0  0  0
   -9.1185   -9.3610   -9.5671 C   0  0  0  0  0  0  0  0  0  0  0  0
   -8.8843  -10.7929   -9.0652 C   0  0  0  0  0  0  0  0  0  0  0  0
   -8.9852  -11.8198  -10.1963 C   0  0  0  0  0  0  0  0  0  0  0  0
   -9.6732  -13.0233   -9.5678 C   0  0  0  0  0  0  0  0  0  0  0  0
   -9.9850  -12.5994   -8.1308 C   0  0  0  0  0  0  0  0  0  0  0  0
   -9.9384  -11.1825   -8.1807 O   0  0  0  0  0  0  0  0  0  0  0  0
   -7.5268  -10.8126   -8.3333 C   0  0  0  0  0  0  0  0  0  0  0  0
   -7.4840   -9.7440   -7.2392 C   0  0  0  0  0  0  0  0  0  0  0  0
   -6.1048   -7.3342   -6.1285 C   0  0  0  0  0  0  0  0  0  0  0  0
   -6.0491   -6.3469   -4.9566 C   0  0  0  0  0  0  0  0  0  0  0  0
   -7.0164   -4.2331   -3.4084 H   0  0  0  0  0  0  0  0  0  0  0  0
   -6.7129   -3.0398   -4.6562 H   0  0  0  0  0  0  0  0  0  0  0  0
   -5.3612   -3.8619   -3.9244 H   0  0  0  0  0  0  0  0  0  0  0  0
   -8.5979   -5.3241   -5.1719 H   0  0  0  0  0  0  0  0  0  0  0  0
   -8.1824   -4.0119   -6.2482 H   0  0  0  0  0  0  0  0  0  0  0  0
   -9.0275   -5.9368   -7.4119 H   0  0  0  0  0  0  0  0  0  0  0  0
   -7.3834   -5.6308   -7.9650 H   0  0  0  0  0  0  0  0  0  0  0  0
   -8.1974   -7.7381   -5.9312 H   0  0  0  0  0  0  0  0  0  0  0  0
   -9.7458   -8.4698   -7.6916 H   0  0  0  0  0  0  0  0  0  0  0  0
   -9.1392   -7.3728   -8.9271 H   0  0  0  0  0  0  0  0  0  0  0  0
  -10.1120   -9.2705  -10.0270 H   0  0  0  0  0  0  0  0  0  0  0  0
   -8.3994   -9.1194  -10.3486 H   0  0  0  0  0  0  0  0  0  0  0  0
   -9.6033  -11.4398  -11.0121 H   0  0  0  0  0  0  0  0  0  0  0  0
   -8.0090  -12.0534  -10.6257 H   0  0  0  0  0  0  0  0  0  0  0  0
  -10.5965  -13.2376  -10.1057 H   0  0  0  0  0  0  0  0  0  0  0  0
   -9.0428  -13.9095   -9.6003 H   0  0  0  0  0  0  0  0  0  0  0  0
  -10.9551  -12.9605   -7.7774 H   0  0  0  0  0  0  0  0  0  0  0  0
   -9.2282  -12.9649   -7.4369 H   0  0  0  0  0  0  0  0  0  0  0  0
   -7.3173  -11.7839   -7.8781 H   0  0  0  0  0  0  0  0  0  0  0  0
   -6.7173  -10.6143   -9.0347 H   0  0  0  0  0  0  0  0  0  0  0  0
   -6.5328   -9.8837   -6.7398 H   0  0  0  0  0  0  0  0  0  0  0  0
   -8.2579   -9.9338   -6.4946 H   0  0  0  0  0  0  0  0  0  0  0  0
   -5.7739   -8.2814   -5.7093 H   0  0  0  0  0  0  0  0  0  0  0  0
   -5.3873   -7.0629   -6.8943 H   0  0  0  0  0  0  0  0  0  0  0  0
   -5.0252   -6.2959   -4.5708 H   0  0  0  0  0  0  0  0  0  0  0  0
   -6.6672   -6.7236   -4.1488 H   0  0  0  0  0  0  0  0  0  0  0  0
   -5.9033   -4.6826   -6.1008 H   0  0  0  0  0  0  0  0  0  0  0  0
  1  2  1  0
  1 18  1  0
  1 19  1  0
  1 20  1  0
  2 17  1  0
  2  3  1  0
  2 44  1  6
  3  4  1  0
  3 21  1  0
  3 22  1  0
  4  5  1  0
  4 23  1  0
  4 24  1  0
  5  6  1  0
  5 16  1  0
  5 25  1  1
  6 15  1  0
  6  7  1  0
  7  8  1  0
  7 26  1  0
  7 27  1  0
  8  9  1  0
  8 28  1  0
  8 29  1  0
  9 13  1  0
  9 10  1  0
  9 14  1  0
 10 11  1  0
 10 30  1  0
 10 31  1  0
 11 12  1  0
 11 32  1  0
 11 33  1  0
 12 13  1  0
 12 34  1  0
 12 35  1  0
 14 15  1  0
 14 36  1  0
 14 37  1  0
 15 38  1  0
 15 39  1  0
 16 17  1  0
 16 40  1  0
 16 41  1  0
 17 42  1  0
 17 43  1  0
M  CHG  1   2   1
M  END
>  <i_m_ct_stereo_status>  (18) 
1

>  <s_m_source_file>  (18) 
/var/tmp/pbs.5076255.sched01/tmp0du1nuht/0914ajmtz.sdf

>  <i_m_source_file_index>  (18) 
8

>  <i_lp_mmshare_version>  (18) 
48012

>  <i_f3d_flags>  (18) 
0

>  <s_epik_input>  (18) 
W0NIM11OMVtDSDJdW0NIMl1bQ0hdKFtDSDJdW0NIMl0xKU4oW0NIMl1bQ0gyXTIpW0NIMl1bQ0gyXUMyM1tDSDJdW0NIMl1bQ0gyXU8z

>  <s_epik_cmdline>  (18) 
J2VwaWtfcHl0aG9uJywgJy1waHQnLCAnMi4wJywgJy1waCcsICc3LjAnLCAnLXRuJywgJzgnLCAnLW1hJywgJzIwMCcsICctaW1hZScsICc8aW5maWxlLm1hZT4nLCAnLW9tYWUnLCAnPG91dGZpbGUubWFlPic=

>  <r_epik_Ionization_Penalty>  (18) 
1.02795

>  <r_epik_Ionization_Penalty_Charging>  (18) 
0.0009809

>  <r_epik_Ionization_Penalty_Neutral>  (18) 
1.02697

>  <r_epik_State_Penalty>  (18) 
1.12199

>  <r_epik_Charging_Adjusted_Penalty>  (18) 
1.12297

>  <i_epik_Tot_Q>  (18) 
1

>  <i_epik_Tot_abs_Q>  (18) 
1

>  <s_lp_Force_Field>  (18) 
OPLS3e

>  <r_lp_Energy>  (18) 
39.9668

>  <b_lp_Chiralities_Consistent>  (18) 
1

>  <s_lp_Variant>  (18) 
6:0-2

>  <s_i_glide_gridfile>  (18) 
pfpi4k_grid

>  <i_i_glide_lignum>  (18) 
8

>  <i_i_glide_rotatable_bonds>  (18) 
1

>  <r_i_docking_score>  (18) 
-4.11358

>  <r_i_glide_ligand_efficiency>  (18) 
-0.241975

>  <r_i_glide_ligand_efficiency_sa>  (18) 
-0.622186

>  <r_i_glide_ligand_efficiency_ln>  (18) 
-1.07314

>  <r_i_glide_gscore>  (18) 
-4.11358

>  <r_i_glide_lipo>  (18) 
-1.85776

>  <r_i_glide_hbond>  (18) 
0

>  <r_i_glide_metal>  (18) 
-0

>  <r_i_glide_rewards>  (18) 
-1.77698

>  <r_i_glide_evdw>  (18) 
-16.6652

>  <r_i_glide_ecoul>  (18) 
0.352244

>  <r_i_glide_erotb>  (18) 
0.301579

>  <r_i_glide_esite>  (18) 
0

>  <r_i_glide_emodel>  (18) 
-19.5107

>  <r_i_glide_energy>  (18) 
-16.313

>  <r_i_glide_einternal>  (18) 
1.38507

>  <r_i_glide_intrahb_reward>  (18) 
-0

>  <i_i_glide_confnum>  (18) 
6

>  <i_i_glide_posenum>  (18) 
27

>  <r_i_glide_eff_state_penalty>  (18) 
0

>  <ligand_id>  (18) 
6

>  <original_smiles>  (18) 
CN1CCC(N2CCC3(CCCO3)CC2)CC1

>  <smiles>  (18) 
[H]C1([H])OC2(C([H])([H])C([H])([H])N(C3([H])C([H])([H])C([H])([H])[N+]([H])(C([H])([H])[H])C([H])([H])C3([H])[H])C([H])([H])C2([H])[H])C([H])([H])C1([H])[H]

$$$$
6:2:0
     RDKit          3D

 44 46  0  0  1  0  0  0  0  0999 V2000
    3.8757   -4.1974    4.5023 C   0  0  0  0  0  0  0  0  0  0  0  0
    4.0034   -3.6585    3.1670 N   0  0  0  0  0  0  0  0  0  0  0  0
    3.2806   -4.5245    2.2269 C   0  0  0  0  0  0  0  0  0  0  0  0
    3.3052   -3.8871    0.8358 C   0  0  0  0  0  0  0  0  0  0  0  0
    4.7598   -3.6410    0.3549 C   0  0  0  0  0  0  0  0  0  0  0  0
    4.8616   -2.9565   -0.9559 N   0  0  1  0  0  0  0  0  0  0  0  0
    4.2842   -3.7570   -2.0768 C   0  0  0  0  0  0  0  0  0  0  0  0
    4.6092   -3.0973   -3.4319 C   0  0  0  0  0  0  0  0  0  0  0  0
    4.1366   -1.6328   -3.4834 C   0  0  2  0  0  0  0  0  0  0  0  0
    2.6185   -1.5103   -3.5872 C   0  0  0  0  0  0  0  0  0  0  0  0
    2.3589   -0.2627   -4.4238 C   0  0  0  0  0  0  0  0  0  0  0  0
    3.7301    0.1520   -4.9084 C   0  0  0  0  0  0  0  0  0  0  0  0
    4.5064   -1.0403   -4.7069 O   0  0  0  0  0  0  0  0  0  0  0  0
    4.6880   -0.8606   -2.2609 C   0  0  0  0  0  0  0  0  0  0  0  0
    4.3515   -1.5719   -0.9575 C   0  0  0  0  0  0  0  0  0  0  0  0
    5.5677   -2.9093    1.4510 C   0  0  0  0  0  0  0  0  0  0  0  0
    5.4072   -3.5822    2.8116 C   0  0  0  0  0  0  0  0  0  0  0  0
    2.8292   -4.2322    4.7967 H   0  0  0  0  0  0  0  0  0  0  0  0
    4.4077   -3.5674    5.2164 H   0  0  0  0  0  0  0  0  0  0  0  0
    4.2900   -5.2037    4.5514 H   0  0  0  0  0  0  0  0  0  0  0  0
    3.7206   -5.5207    2.2200 H   0  0  0  0  0  0  0  0  0  0  0  0
    2.2453   -4.6146    2.5550 H   0  0  0  0  0  0  0  0  0  0  0  0
    2.7721   -4.5521    0.1631 H   0  0  0  0  0  0  0  0  0  0  0  0
    2.7297   -2.9712    0.8962 H   0  0  0  0  0  0  0  0  0  0  0  0
    5.2234   -4.6220    0.2361 H   0  0  0  0  0  0  0  0  0  0  0  0
    4.7052   -4.7436   -2.0392 H   0  0  0  0  0  0  0  0  0  0  0  0
    3.2071   -3.8580   -1.9670 H   0  0  0  0  0  0  0  0  0  0  0  0
    5.6758   -3.1439   -3.5855 H   0  0  0  0  0  0  0  0  0  0  0  0
    4.1462   -3.6868   -4.2345 H   0  0  0  0  0  0  0  0  0  0  0  0
    2.1493   -2.3910   -4.0377 H   0  0  0  0  0  0  0  0  0  0  0  0
    2.1770   -1.4141   -2.6090 H   0  0  0  0  0  0  0  0  0  0  0  0
    1.6761   -0.4829   -5.2274 H   0  0  0  0  0  0  0  0  0  0  0  0
    1.9261    0.5094   -3.8418 H   0  0  0  0  0  0  0  0  0  0  0  0
    3.7457    0.4823   -5.9383 H   0  0  0  0  0  0  0  0  0  0  0  0
    4.1252    0.9626   -4.3084 H   0  0  0  0  0  0  0  0  0  0  0  0
    5.7621   -0.7755   -2.3394 H   0  0  0  0  0  0  0  0  0  0  0  0
    4.3171    0.1577   -2.2016 H   0  0  0  0  0  0  0  0  0  0  0  0
    3.2831   -1.5960   -0.7830 H   0  0  0  0  0  0  0  0  0  0  0  0
    4.7911   -0.9763   -0.1803 H   0  0  0  0  0  0  0  0  0  0  0  0
    6.6171   -2.8515    1.1765 H   0  0  0  0  0  0  0  0  0  0  0  0
    5.2360   -1.8909    1.6225 H   0  0  0  0  0  0  0  0  0  0  0  0
    5.8926   -2.9495    3.5599 H   0  0  0  0  0  0  0  0  0  0  0  0
    5.8898   -4.5673    2.8362 H   0  0  0  0  0  0  0  0  0  0  0  0
    5.8307   -2.9014   -1.1848 H   0  0  0  0  0  0  0  0  0  0  0  0
  1  2  1  0
  1 18  1  0
  1 19  1  0
  1 20  1  0
  2 17  1  0
  2  3  1  0
  3  4  1  0
  3 21  1  0
  3 22  1  0
  4  5  1  0
  4 23  1  0
  4 24  1  0
  5  6  1  0
  5 16  1  0
  5 25  1  0
  6 15  1  0
  6  7  1  0
  6 44  1  6
  7  8  1  0
  7 26  1  0
  7 27  1  0
  8  9  1  0
  8 28  1  0
  8 29  1  0
  9 13  1  6
  9 10  1  0
  9 14  1  0
 10 11  1  0
 10 30  1  0
 10 31  1  0
 11 12  1  0
 11 32  1  0
 11 33  1  0
 12 13  1  0
 12 34  1  0
 12 35  1  0
 14 15  1  0
 14 36  1  0
 14 37  1  0
 15 38  1  0
 15 39  1  0
 16 17  1  0
 16 40  1  0
 16 41  1  0
 17 42  1  0
 17 43  1  0
M  CHG  1   6   1
M  END
>  <i_m_ct_stereo_status>  (19) 
1

>  <s_m_source_file>  (19) 
/var/tmp/pbs.5076255.sched01/tmp0du1nuht/0914ajmtz.sdf

>  <i_m_source_file_index>  (19) 
9

>  <i_lp_mmshare_version>  (19) 
48012

>  <i_f3d_flags>  (19) 
0

>  <s_epik_input>  (19) 
W0NIM11OMVtDSDJdW0NIMl1bQ0hdKFtDSDJdW0NIMl0xKU4oW0NIMl1bQ0gyXTIpW0NIMl1bQ0gyXUMyM1tDSDJdW0NIMl1bQ0gyXU8z

>  <s_epik_cmdline>  (19) 
J2VwaWtfcHl0aG9uJywgJy1waHQnLCAnMi4wJywgJy1waCcsICc3LjAnLCAnLXRuJywgJzgnLCAnLW1hJywgJzIwMCcsICctaW1hZScsICc8aW5maWxlLm1hZT4nLCAnLW9tYWUnLCAnPG91dGZpbGUubWFlPic=

>  <r_epik_Ionization_Penalty>  (19) 
1.38322

>  <r_epik_Ionization_Penalty_Charging>  (19) 
0.000782127

>  <r_epik_Ionization_Penalty_Neutral>  (19) 
1.38244

>  <r_epik_State_Penalty>  (19) 
1.55973

>  <r_epik_Charging_Adjusted_Penalty>  (19) 
1.56051

>  <i_epik_Tot_Q>  (19) 
1

>  <i_epik_Tot_abs_Q>  (19) 
1

>  <s_lp_Force_Field>  (19) 
OPLS3e

>  <r_lp_Energy>  (19) 
34.362

>  <b_lp_Chiralities_Consistent>  (19) 
1

>  <s_lp_Variant>  (19) 
6:0-3

>  <s_i_glide_gridfile>  (19) 
pfpi4k_grid

>  <i_i_glide_lignum>  (19) 
9

>  <i_i_glide_rotatable_bonds>  (19) 
1

>  <r_i_docking_score>  (19) 
-4.31409

>  <r_i_glide_ligand_efficiency>  (19) 
-0.25377

>  <r_i_glide_ligand_efficiency_sa>  (19) 
-0.652514

>  <r_i_glide_ligand_efficiency_ln>  (19) 
-1.12545

>  <r_i_glide_gscore>  (19) 
-4.31409

>  <r_i_glide_lipo>  (19) 
-0.858053

>  <r_i_glide_hbond>  (19) 
-0.32

>  <r_i_glide_metal>  (19) 
-0

>  <r_i_glide_rewards>  (19) 
-1.91105

>  <r_i_glide_evdw>  (19) 
-12.9549

>  <r_i_glide_ecoul>  (19) 
-5.85883

>  <r_i_glide_erotb>  (19) 
0.301579

>  <r_i_glide_esite>  (19) 
0

>  <r_i_glide_emodel>  (19) 
-24.8379

>  <r_i_glide_energy>  (19) 
-18.8138

>  <r_i_glide_einternal>  (19) 
0.764575

>  <r_i_glide_intrahb_reward>  (19) 
-0

>  <i_i_glide_confnum>  (19) 
1

>  <i_i_glide_posenum>  (19) 
5

>  <r_i_glide_eff_state_penalty>  (19) 
0

>  <ligand_id>  (19) 
6

>  <original_smiles>  (19) 
CN1CCC(N2CCC3(CCCO3)CC2)CC1

>  <smiles>  (19) 
[H]C([H])([H])N1C([H])([H])C([H])([H])C([H])([N+]2([H])C([H])([H])C([H])([H])C3(OC([H])([H])C([H])([H])C3([H])[H])C([H])([H])C2([H])[H])C([H])([H])C1([H])[H]

$$$$
6:2:1
     RDKit          3D

 44 46  0  0  1  0  0  0  0  0999 V2000
    4.3556   -6.6560    3.2966 C   0  0  0  0  0  0  0  0  0  0  0  0
    4.4218   -5.8884    2.0715 N   0  0  0  0  0  0  0  0  0  0  0  0
    5.7856   -5.3880    1.8850 C   0  0  0  0  0  0  0  0  0  0  0  0
    5.8902   -4.6701    0.5325 C   0  0  0  0  0  0  0  0  0  0  0  0
    4.8593   -3.5433    0.4304 C   0  0  0  0  0  0  0  0  0  0  0  0
    4.9148   -2.8877   -0.9052 N   0  0  1  0  0  0  0  0  0  0  0  0
    4.3054   -3.6857   -2.0121 C   0  0  0  0  0  0  0  0  0  0  0  0
    4.6309   -3.0532   -3.3660 C   0  0  0  0  0  0  0  0  0  0  0  0
    4.1463   -1.5974   -3.4293 C   0  0  2  0  0  0  0  0  0  0  0  0
    2.6346   -1.4866   -3.5014 C   0  0  0  0  0  0  0  0  0  0  0  0
    2.3811   -0.2902   -4.3951 C   0  0  0  0  0  0  0  0  0  0  0  0
    3.7283    0.1343   -4.9241 C   0  0  0  0  0  0  0  0  0  0  0  0
    4.5273   -1.0439   -4.6909 O   0  0  0  0  0  0  0  0  0  0  0  0
    4.7088   -0.8038   -2.2155 C   0  0  0  0  0  0  0  0  0  0  0  0
    4.4077   -1.4926   -0.8744 C   0  0  0  0  0  0  0  0  0  0  0  0
    3.4462   -4.0453    0.8121 C   0  0  0  0  0  0  0  0  0  0  0  0
    3.4718   -4.7743    2.1585 C   0  0  0  0  0  0  0  0  0  0  0  0
    5.0278   -7.5110    3.2441 H   0  0  0  0  0  0  0  0  0  0  0  0
    3.3457   -7.0295    3.4502 H   0  0  0  0  0  0  0  0  0  0  0  0
    4.6342   -6.0423    4.1517 H   0  0  0  0  0  0  0  0  0  0  0  0
    6.0730   -4.7271    2.7089 H   0  0  0  0  0  0  0  0  0  0  0  0
    6.4815   -6.2344    1.8785 H   0  0  0  0  0  0  0  0  0  0  0  0
    6.8979   -4.2664    0.4076 H   0  0  0  0  0  0  0  0  0  0  0  0
    5.7591   -5.4284   -0.2423 H   0  0  0  0  0  0  0  0  0  0  0  0
    5.1468   -2.7977    1.1617 H   0  0  0  0  0  0  0  0  0  0  0  0
    4.7081   -4.6905   -2.0083 H   0  0  0  0  0  0  0  0  0  0  0  0
    3.2212   -3.7414   -1.9077 H   0  0  0  0  0  0  0  0  0  0  0  0
    5.7061   -3.1019   -3.5261 H   0  0  0  0  0  0  0  0  0  0  0  0
    4.1649   -3.6583   -4.1440 H   0  0  0  0  0  0  0  0  0  0  0  0
    2.1647   -2.3816   -3.9325 H   0  0  0  0  0  0  0  0  0  0  0  0
    2.1898   -1.3476   -2.5129 H   0  0  0  0  0  0  0  0  0  0  0  0
    1.6438   -0.5689   -5.1335 H   0  0  0  0  0  0  0  0  0  0  0  0
    1.9079    0.5402   -3.8553 H   0  0  0  0  0  0  0  0  0  0  0  0
    3.7134    0.3987   -5.9769 H   0  0  0  0  0  0  0  0  0  0  0  0
    4.1254    0.9763   -4.3669 H   0  0  0  0  0  0  0  0  0  0  0  0
    5.7871   -0.6972   -2.2944 H   0  0  0  0  0  0  0  0  0  0  0  0
    4.3300    0.2108   -2.1893 H   0  0  0  0  0  0  0  0  0  0  0  0
    3.3424   -1.5298   -0.6717 H   0  0  0  0  0  0  0  0  0  0  0  0
    4.9115   -0.9573   -0.0767 H   0  0  0  0  0  0  0  0  0  0  0  0
    2.7286   -3.2260    0.8720 H   0  0  0  0  0  0  0  0  0  0  0  0
    3.0483   -4.7623    0.0948 H   0  0  0  0  0  0  0  0  0  0  0  0
    2.4769   -5.1788    2.3470 H   0  0  0  0  0  0  0  0  0  0  0  0
    3.7266   -4.1049    2.9833 H   0  0  0  0  0  0  0  0  0  0  0  0
    5.9023   -2.7986   -1.1447 H   0  0  0  0  0  0  0  0  0  0  0  0
  1  2  1  0
  1 18  1  0
  1 19  1  0
  1 20  1  0
  2 17  1  0
  2  3  1  0
  3  4  1  0
  3 21  1  0
  3 22  1  0
  4  5  1  0
  4 23  1  0
  4 24  1  0
  5  6  1  0
  5 16  1  0
  5 25  1  0
  6 15  1  0
  6  7  1  0
  6 44  1  6
  7  8  1  0
  7 26  1  0
  7 27  1  0
  8  9  1  0
  8 28  1  0
  8 29  1  0
  9 13  1  6
  9 10  1  0
  9 14  1  0
 10 11  1  0
 10 30  1  0
 10 31  1  0
 11 12  1  0
 11 32  1  0
 11 33  1  0
 12 13  1  0
 12 34  1  0
 12 35  1  0
 14 15  1  0
 14 36  1  0
 14 37  1  0
 15 38  1  0
 15 39  1  0
 16 17  1  0
 16 40  1  0
 16 41  1  0
 17 42  1  0
 17 43  1  0
M  CHG  1   6   1
M  END
>  <i_m_ct_stereo_status>  (20) 
1

>  <s_m_source_file>  (20) 
/var/tmp/pbs.5076255.sched01/tmp0du1nuht/0914ajmtz.sdf

>  <i_m_source_file_index>  (20) 
9

>  <i_lp_mmshare_version>  (20) 
48012

>  <i_f3d_flags>  (20) 
0

>  <s_epik_input>  (20) 
W0NIM11OMVtDSDJdW0NIMl1bQ0hdKFtDSDJdW0NIMl0xKU4oW0NIMl1bQ0gyXTIpW0NIMl1bQ0gyXUMyM1tDSDJdW0NIMl1bQ0gyXU8z

>  <s_epik_cmdline>  (20) 
J2VwaWtfcHl0aG9uJywgJy1waHQnLCAnMi4wJywgJy1waCcsICc3LjAnLCAnLXRuJywgJzgnLCAnLW1hJywgJzIwMCcsICctaW1hZScsICc8aW5maWxlLm1hZT4nLCAnLW9tYWUnLCAnPG91dGZpbGUubWFlPic=

>  <r_epik_Ionization_Penalty>  (20) 
1.38322

>  <r_epik_Ionization_Penalty_Charging>  (20) 
0.000782127

>  <r_epik_Ionization_Penalty_Neutral>  (20) 
1.38244

>  <r_epik_State_Penalty>  (20) 
1.55973

>  <r_epik_Charging_Adjusted_Penalty>  (20) 
1.56051

>  <i_epik_Tot_Q>  (20) 
1

>  <i_epik_Tot_abs_Q>  (20) 
1

>  <s_lp_Force_Field>  (20) 
OPLS3e

>  <r_lp_Energy>  (20) 
34.362

>  <b_lp_Chiralities_Consistent>  (20) 
1

>  <s_lp_Variant>  (20) 
6:0-3

>  <s_i_glide_gridfile>  (20) 
pfpi4k_grid

>  <i_i_glide_lignum>  (20) 
9

>  <i_i_glide_rotatable_bonds>  (20) 
1

>  <r_i_docking_score>  (20) 
-4.252

>  <r_i_glide_ligand_efficiency>  (20) 
-0.250118

>  <r_i_glide_ligand_efficiency_sa>  (20) 
-0.643123

>  <r_i_glide_ligand_efficiency_ln>  (20) 
-1.10925

>  <r_i_glide_gscore>  (20) 
-4.252

>  <r_i_glide_lipo>  (20) 
-0.850974

>  <r_i_glide_hbond>  (20) 
-0.32

>  <r_i_glide_metal>  (20) 
-0

>  <r_i_glide_rewards>  (20) 
-1.77698

>  <r_i_glide_evdw>  (20) 
-13.9846

>  <r_i_glide_ecoul>  (20) 
-6.04268

>  <r_i_glide_erotb>  (20) 
0.301579

>  <r_i_glide_esite>  (20) 
0

>  <r_i_glide_emodel>  (20) 
-26.4037

>  <r_i_glide_energy>  (20) 
-20.0273

>  <r_i_glide_einternal>  (20) 
0.296563

>  <r_i_glide_intrahb_reward>  (20) 
-0

>  <i_i_glide_confnum>  (20) 
1

>  <i_i_glide_posenum>  (20) 
33

>  <r_i_glide_eff_state_penalty>  (20) 
0

>  <ligand_id>  (20) 
6

>  <original_smiles>  (20) 
CN1CCC(N2CCC3(CCCO3)CC2)CC1

>  <smiles>  (20) 
[H]C([H])([H])N1C([H])([H])C([H])([H])C([H])([N+]2([H])C([H])([H])C([H])([H])C3(OC([H])([H])C([H])([H])C3([H])[H])C([H])([H])C2([H])[H])C([H])([H])C1([H])[H]

$$$$
6:2:2
     RDKit          3D

 44 46  0  0  1  0  0  0  0  0999 V2000
    1.4553   -5.8386    4.3400 C   0  0  0  0  0  0  0  0  0  0  0  0
    1.7836   -5.3460    3.0121 N   0  0  0  0  0  0  0  0  0  0  0  0
    2.4349   -6.4128    2.2500 C   0  0  0  0  0  0  0  0  0  0  0  0
    2.7227   -5.9326    0.8199 C   0  0  0  0  0  0  0  0  0  0  0  0
    3.5785   -4.6566    0.8062 C   0  0  0  0  0  0  0  0  0  0  0  0
    3.7642   -4.1863   -0.5905 N   0  0  1  0  0  0  0  0  0  0  0  0
    2.6021   -3.4112   -1.1310 C   0  0  0  0  0  0  0  0  0  0  0  0
    2.7653   -3.0943   -2.6055 C   0  0  0  0  0  0  0  0  0  0  0  0
    4.0966   -2.3501   -2.8698 C   0  0  2  0  0  0  0  0  0  0  0  0
    4.1120   -0.8925   -2.3516 C   0  0  0  0  0  0  0  0  0  0  0  0
    3.7525   -0.0516   -3.5584 C   0  0  0  0  0  0  0  0  0  0  0  0
    3.4817   -1.0256   -4.6664 C   0  0  0  0  0  0  0  0  0  0  0  0
    4.2210   -2.1855   -4.2803 O   0  0  0  0  0  0  0  0  0  0  0  0
    5.2724   -3.1942   -2.3078 C   0  0  0  0  0  0  0  0  0  0  0  0
    5.0470   -3.4435   -0.8084 C   0  0  0  0  0  0  0  0  0  0  0  0
    2.9768   -3.6138    1.7770 C   0  0  0  0  0  0  0  0  0  0  0  0
    2.6950   -4.2070    3.1535 C   0  0  0  0  0  0  0  0  0  0  0  0
    0.7626   -6.6762    4.2813 H   0  0  0  0  0  0  0  0  0  0  0  0
    0.9847   -5.0507    4.9246 H   0  0  0  0  0  0  0  0  0  0  0  0
    2.3509   -6.1664    4.8656 H   0  0  0  0  0  0  0  0  0  0  0  0
    3.3580   -6.7290    2.7457 H   0  0  0  0  0  0  0  0  0  0  0  0
    1.7779   -7.2887    2.2081 H   0  0  0  0  0  0  0  0  0  0  0  0
    3.2616   -6.7019    0.2745 H   0  0  0  0  0  0  0  0  0  0  0  0
    1.7705   -5.7875    0.3102 H   0  0  0  0  0  0  0  0  0  0  0  0
    4.5494   -4.9558    1.2031 H   0  0  0  0  0  0  0  0  0  0  0  0
    1.6874   -3.9820   -0.9736 H   0  0  0  0  0  0  0  0  0  0  0  0
    2.5184   -2.4806   -0.5833 H   0  0  0  0  0  0  0  0  0  0  0  0
    2.7249   -4.0035   -3.2073 H   0  0  0  0  0  0  0  0  0  0  0  0
    1.8897   -2.5246   -2.9034 H   0  0  0  0  0  0  0  0  0  0  0  0
    3.4440   -0.7085   -1.5020 H   0  0  0  0  0  0  0  0  0  0  0  0
    5.1155   -0.5919   -2.0302 H   0  0  0  0  0  0  0  0  0  0  0  0
    2.8575    0.5236   -3.3718 H   0  0  0  0  0  0  0  0  0  0  0  0
    4.5774    0.6017   -3.7941 H   0  0  0  0  0  0  0  0  0  0  0  0
    2.4226   -1.2633   -4.7121 H   0  0  0  0  0  0  0  0  0  0  0  0
    3.8163   -0.6855   -5.6392 H   0  0  0  0  0  0  0  0  0  0  0  0
    5.3643   -4.1505   -2.8399 H   0  0  0  0  0  0  0  0  0  0  0  0
    6.2325   -2.6983   -2.4966 H   0  0  0  0  0  0  0  0  0  0  0  0
    4.9798   -2.5166   -0.2570 H   0  0  0  0  0  0  0  0  0  0  0  0
    5.8586   -4.0341   -0.3935 H   0  0  0  0  0  0  0  0  0  0  0  0
    3.6350   -2.7438    1.8708 H   0  0  0  0  0  0  0  0  0  0  0  0
    2.0050   -3.2369    1.4489 H   0  0  0  0  0  0  0  0  0  0  0  0
    2.2068   -3.4415    3.7597 H   0  0  0  0  0  0  0  0  0  0  0  0
    3.6205   -4.5003    3.6596 H   0  0  0  0  0  0  0  0  0  0  0  0
    3.8367   -4.9885   -1.1966 H   0  0  0  0  0  0  0  0  0  0  0  0
  1  2  1  0
  1 18  1  0
  1 19  1  0
  1 20  1  0
  2 17  1  0
  2  3  1  0
  3  4  1  0
  3 21  1  0
  3 22  1  0
  4  5  1  0
  4 23  1  0
  4 24  1  0
  5  6  1  0
  5 16  1  0
  5 25  1  0
  6 15  1  0
  6  7  1  0
  6 44  1  6
  7  8  1  0
  7 26  1  0
  7 27  1  0
  8  9  1  0
  8 28  1  0
  8 29  1  0
  9 13  1  6
  9 10  1  0
  9 14  1  0
 10 11  1  0
 10 30  1  0
 10 31  1  0
 11 12  1  0
 11 32  1  0
 11 33  1  0
 12 13  1  0
 12 34  1  0
 12 35  1  0
 14 15  1  0
 14 36  1  0
 14 37  1  0
 15 38  1  0
 15 39  1  0
 16 17  1  0
 16 40  1  0
 16 41  1  0
 17 42  1  0
 17 43  1  0
M  CHG  1   6   1
M  END
>  <i_m_ct_stereo_status>  (21) 
1

>  <s_m_source_file>  (21) 
/var/tmp/pbs.5076255.sched01/tmp0du1nuht/0914ajmtz.sdf

>  <i_m_source_file_index>  (21) 
9

>  <i_lp_mmshare_version>  (21) 
48012

>  <i_f3d_flags>  (21) 
0

>  <s_epik_input>  (21) 
W0NIM11OMVtDSDJdW0NIMl1bQ0hdKFtDSDJdW0NIMl0xKU4oW0NIMl1bQ0gyXTIpW0NIMl1bQ0gyXUMyM1tDSDJdW0NIMl1bQ0gyXU8z

>  <s_epik_cmdline>  (21) 
J2VwaWtfcHl0aG9uJywgJy1waHQnLCAnMi4wJywgJy1waCcsICc3LjAnLCAnLXRuJywgJzgnLCAnLW1hJywgJzIwMCcsICctaW1hZScsICc8aW5maWxlLm1hZT4nLCAnLW9tYWUnLCAnPG91dGZpbGUubWFlPic=

>  <r_epik_Ionization_Penalty>  (21) 
1.38322

>  <r_epik_Ionization_Penalty_Charging>  (21) 
0.000782127

>  <r_epik_Ionization_Penalty_Neutral>  (21) 
1.38244

>  <r_epik_State_Penalty>  (21) 
1.55973

>  <r_epik_Charging_Adjusted_Penalty>  (21) 
1.56051

>  <i_epik_Tot_Q>  (21) 
1

>  <i_epik_Tot_abs_Q>  (21) 
1

>  <s_lp_Force_Field>  (21) 
OPLS3e

>  <r_lp_Energy>  (21) 
34.362

>  <b_lp_Chiralities_Consistent>  (21) 
1

>  <s_lp_Variant>  (21) 
6:0-3

>  <s_i_glide_gridfile>  (21) 
pfpi4k_grid

>  <i_i_glide_lignum>  (21) 
9

>  <i_i_glide_rotatable_bonds>  (21) 
1

>  <r_i_docking_score>  (21) 
-4.21994

>  <r_i_glide_ligand_efficiency>  (21) 
-0.248232

>  <r_i_glide_ligand_efficiency_sa>  (21) 
-0.638274

>  <r_i_glide_ligand_efficiency_ln>  (21) 
-1.10089

>  <r_i_glide_gscore>  (21) 
-4.21994

>  <r_i_glide_lipo>  (21) 
-0.492235

>  <r_i_glide_hbond>  (21) 
-0.32

>  <r_i_glide_metal>  (21) 
-0

>  <r_i_glide_rewards>  (21) 
-1.77698

>  <r_i_glide_evdw>  (21) 
-16.5363

>  <r_i_glide_ecoul>  (21) 
-7.18373

>  <r_i_glide_erotb>  (21) 
0.301579

>  <r_i_glide_esite>  (21) 
-0.0279361

>  <r_i_glide_emodel>  (21) 
-29.7855

>  <r_i_glide_energy>  (21) 
-23.72

>  <r_i_glide_einternal>  (21) 
0.557206

>  <r_i_glide_intrahb_reward>  (21) 
-0

>  <i_i_glide_confnum>  (21) 
6

>  <i_i_glide_posenum>  (21) 
17

>  <r_i_glide_eff_state_penalty>  (21) 
0

>  <ligand_id>  (21) 
6

>  <original_smiles>  (21) 
CN1CCC(N2CCC3(CCCO3)CC2)CC1

>  <smiles>  (21) 
[H]C([H])([H])N1C([H])([H])C([H])([H])C([H])([N+]2([H])C([H])([H])C([H])([H])C3(OC([H])([H])C([H])([H])C3([H])[H])C([H])([H])C2([H])[H])C([H])([H])C1([H])[H]

$$$$
7:0:0
     RDKit          3D

 41 44  0  0  1  0  0  0  0  0999 V2000
    2.5066   -2.8126   -3.9031 C   0  0  0  0  0  0  0  0  0  0  0  0
    3.4556   -2.5596   -2.7538 C   0  0  0  0  0  0  0  0  0  0  0  0
    3.4328   -1.6404   -1.7842 C   0  0  0  0  0  0  0  0  0  0  0  0
    4.6615   -1.7151   -0.8989 C   0  0  1  0  0  0  0  0  0  0  0  0
    4.4597   -1.3265    0.5761 C   0  0  0  0  0  0  0  0  0  0  0  0
    4.9535   -0.2855    1.0036 O   0  0  0  0  0  0  0  0  0  0  0  0
    3.6944   -2.2453    1.5313 C   0  0  0  0  0  0  0  0  0  0  0  0
    2.5655   -1.8943    1.8829 O   0  0  0  0  0  0  0  0  0  0  0  0
    4.4258   -3.4839    2.0131 C   0  0  1  0  0  0  0  0  0  0  0  0
    3.8762   -4.8616    1.5797 C   0  0  1  0  0  0  0  0  0  0  0  0
    3.7342   -4.9145    0.0578 C   0  0  1  0  0  0  0  0  0  0  0  0
    2.5581   -4.2516   -0.3646 O   0  0  0  0  0  0  0  0  0  0  0  0
    5.1248   -4.2993   -0.2765 C   0  0  2  0  0  0  0  0  0  0  0  0
    5.5762   -4.1042    1.1749 C   0  0  2  0  0  0  0  0  0  0  0  0
    5.2785   -5.3980    2.0016 C   0  0  0  0  0  0  0  0  0  0  0  0
    5.6812   -5.5197    3.4974 C   0  0  0  0  0  0  0  0  0  0  0  0
    5.7121   -6.7623    1.4256 C   0  0  0  0  0  0  0  0  0  0  0  0
    5.3270   -3.0838   -1.2517 C   0  0  2  0  0  0  0  0  0  0  0  0
    6.8380   -2.8582   -1.4732 C   0  0  0  0  0  0  0  0  0  0  0  0
    4.6332   -3.3907   -2.5860 C   0  0  0  0  0  0  0  0  0  0  0  0
    5.0202   -4.2348   -3.3889 O   0  0  0  0  0  0  0  0  0  0  0  0
    2.1742   -3.8502   -3.8993 H   0  0  0  0  0  0  0  0  0  0  0  0
    3.0459   -2.6325   -4.8268 H   0  0  0  0  0  0  0  0  0  0  0  0
    1.6384   -2.1729   -3.8804 H   0  0  0  0  0  0  0  0  0  0  0  0
    2.6774   -0.8730   -1.6777 H   0  0  0  0  0  0  0  0  0  0  0  0
    5.3001   -0.9281   -1.2977 H   0  0  0  0  0  0  0  0  0  0  0  0
    4.6133   -3.3823    3.0732 H   0  0  0  0  0  0  0  0  0  0  0  0
    3.0440   -5.2332    2.1754 H   0  0  0  0  0  0  0  0  0  0  0  0
    3.6507   -5.9395   -0.3027 H   0  0  0  0  0  0  0  0  0  0  0  0
    2.4583   -4.4002   -1.2948 H   0  0  0  0  0  0  0  0  0  0  0  0
    5.7226   -5.0919   -0.7217 H   0  0  0  0  0  0  0  0  0  0  0  0
    6.5662   -3.6784    1.3437 H   0  0  0  0  0  0  0  0  0  0  0  0
    6.6954   -5.9043    3.5918 H   0  0  0  0  0  0  0  0  0  0  0  0
    5.0275   -6.2243    4.0132 H   0  0  0  0  0  0  0  0  0  0  0  0
    5.6891   -4.6071    4.0878 H   0  0  0  0  0  0  0  0  0  0  0  0
    6.7929   -6.8990    1.4834 H   0  0  0  0  0  0  0  0  0  0  0  0
    5.4392   -6.9130    0.3809 H   0  0  0  0  0  0  0  0  0  0  0  0
    5.2466   -7.5907    1.9620 H   0  0  0  0  0  0  0  0  0  0  0  0
    7.3130   -2.4188   -0.5959 H   0  0  0  0  0  0  0  0  0  0  0  0
    7.0214   -2.1957   -2.3186 H   0  0  0  0  0  0  0  0  0  0  0  0
    7.3629   -3.7860   -1.6982 H   0  0  0  0  0  0  0  0  0  0  0  0
  1  2  1  0
  1 22  1  0
  1 23  1  0
  1 24  1  0
  2 20  1  0
  2  3  2  0
  3  4  1  0
  3 25  1  0
  4 18  1  0
  4  5  1  0
  4 26  1  6
  5  6  2  0
  5  7  1  0
  7  8  2  0
  7  9  1  0
  9 14  1  0
  9 10  1  0
  9 27  1  1
 10 15  1  0
 10 11  1  0
 10 28  1  1
 11 12  1  0
 11 13  1  0
 11 29  1  6
 12 30  1  0
 13 14  1  0
 13 18  1  0
 13 31  1  6
 14 15  1  0
 14 32  1  6
 15 16  1  0
 15 17  1  0
 16 33  1  0
 16 34  1  0
 16 35  1  0
 17 36  1  0
 17 37  1  0
 17 38  1  0
 18 19  1  6
 18 20  1  0
 19 39  1  0
 19 40  1  0
 19 41  1  0
 20 21  2  0
M  END
>  <i_m_ct_stereo_status>  (22) 
1

>  <s_m_source_file>  (22) 
/var/tmp/pbs.5076255.sched01/tmp0du1nuht/0914ajmtz.sdf

>  <i_m_source_file_index>  (22) 
10

>  <i_lp_mmshare_version>  (22) 
48012

>  <i_f3d_flags>  (22) 
0

>  <s_epik_input>  (22) 
Tz1DMUMoW0NIM10pPVtDSF1bQ0BIXShbQ0BdMTJbQ0gzXSlDKD1PKUMoPU8pW0NASF0zW0NASF00W0NAQEhdKFtPSF0pW0NAQEhdMltDQEBIXTNDNChbQ0gzXSlbQ0gzXQ==

>  <s_epik_cmdline>  (22) 
J2VwaWtfcHl0aG9uJywgJy1waHQnLCAnMi4wJywgJy1waCcsICc3LjAnLCAnLXRuJywgJzgnLCAnLW1hJywgJzIwMCcsICctaW1hZScsICc8aW5maWxlLm1hZT4nLCAnLW9tYWUnLCAnPG91dGZpbGUubWFlPic=

>  <r_lp_tautomer_probability>  (22) 
1

>  <r_epik_Ionization_Penalty>  (22) 
1.13958e-07

>  <r_epik_Ionization_Penalty_Charging>  (22) 
0

>  <r_epik_Ionization_Penalty_Neutral>  (22) 
1.13958e-07

>  <r_epik_State_Penalty>  (22) 
-0

>  <r_epik_Charging_Adjusted_Penalty>  (22) 
0

>  <i_epik_Tot_Q>  (22) 
0

>  <i_epik_Tot_abs_Q>  (22) 
0

>  <s_lp_Force_Field>  (22) 
OPLS3e

>  <r_lp_Energy>  (22) 
56.0881

>  <b_lp_Chiralities_Consistent>  (22) 
1

>  <s_lp_Variant>  (22) 
7:0-1

>  <s_i_glide_gridfile>  (22) 
pfpi4k_grid

>  <i_i_glide_lignum>  (22) 
10

>  <i_i_glide_rotatable_bonds>  (22) 
1

>  <r_i_docking_score>  (22) 
-3.34178

>  <r_i_glide_ligand_efficiency>  (22) 
-0.159132

>  <r_i_glide_ligand_efficiency_sa>  (22) 
-0.439034

>  <r_i_glide_ligand_efficiency_ln>  (22) 
-0.826247

>  <r_i_glide_gscore>  (22) 
-3.34178

>  <r_i_glide_lipo>  (22) 
-0.478561

>  <r_i_glide_hbond>  (22) 
0

>  <r_i_glide_metal>  (22) 
-0

>  <r_i_glide_rewards>  (22) 
-1.49122

>  <r_i_glide_evdw>  (22) 
-22.8186

>  <r_i_glide_ecoul>  (22) 
-1.46004

>  <r_i_glide_erotb>  (22) 
0

>  <r_i_glide_esite>  (22) 
-0.0120614

>  <r_i_glide_emodel>  (22) 
-28.9904

>  <r_i_glide_energy>  (22) 
-24.2786

>  <r_i_glide_einternal>  (22) 
0.345545

>  <r_i_glide_intrahb_reward>  (22) 
-0

>  <i_i_glide_confnum>  (22) 
1

>  <i_i_glide_posenum>  (22) 
3

>  <r_i_glide_eff_state_penalty>  (22) 
0

>  <ligand_id>  (22) 
7

>  <original_smiles>  (22) 
CC1=CC2C(=O)C(=O)C3C4C(O)C(C3C4(C)C)C2(C)C1=O

>  <smiles>  (22) 
[H]OC1([H])C2([H])C3([H])C([H])(C(=O)C(=O)C4([H])C([H])=C(C([H])([H])[H])C(=O)C42C([H])([H])[H])C1([H])C3(C([H])([H])[H])C([H])([H])[H]

$$$$
7:0:1
     RDKit          3D

 41 44  0  0  1  0  0  0  0  0999 V2000
    2.6781   -0.7788   -3.1348 C   0  0  0  0  0  0  0  0  0  0  0  0
    3.8067   -1.3042   -2.2904 C   0  0  0  0  0  0  0  0  0  0  0  0
    4.4050   -0.8091   -1.2016 C   0  0  0  0  0  0  0  0  0  0  0  0
    5.5259   -1.6833   -0.7403 C   0  0  1  0  0  0  0  0  0  0  0  0
    5.7947   -1.6782    0.7623 C   0  0  0  0  0  0  0  0  0  0  0  0
    6.7875   -1.1078    1.1851 O   0  0  0  0  0  0  0  0  0  0  0  0
    4.8732   -2.3822    1.7457 C   0  0  0  0  0  0  0  0  0  0  0  0
    4.1502   -1.6789    2.4565 O   0  0  0  0  0  0  0  0  0  0  0  0
    4.9624   -3.8952    1.7690 C   0  0  1  0  0  0  0  0  0  0  0  0
    3.7403   -4.6957    1.2748 C   0  0  1  0  0  0  0  0  0  0  0  0
    3.3313   -4.2486   -0.1356 C   0  0  1  0  0  0  0  0  0  0  0  0
    2.6137   -3.0350   -0.0463 O   0  0  0  0  0  0  0  0  0  0  0  0
    4.7630   -4.2422   -0.7399 C   0  0  2  0  0  0  0  0  0  0  0  0
    5.4874   -4.6840    0.5379 C   0  0  2  0  0  0  0  0  0  0  0  0
    4.7311   -5.8865    1.1847 C   0  0  0  0  0  0  0  0  0  0  0  0
    5.2809   -6.6021    2.4486 C   0  0  0  0  0  0  0  0  0  0  0  0
    4.2977   -7.0686    0.3015 C   0  0  0  0  0  0  0  0  0  0  0  0
    5.3562   -3.0215   -1.5018 C   0  0  2  0  0  0  0  0  0  0  0  0
    6.6978   -3.3735   -2.1284 C   0  0  0  0  0  0  0  0  0  0  0  0
    4.4044   -2.5918   -2.6161 C   0  0  0  0  0  0  0  0  0  0  0  0
    4.2048   -3.2651   -3.6323 O   0  0  0  0  0  0  0  0  0  0  0  0
    1.9936   -1.6234   -3.1881 H   0  0  0  0  0  0  0  0  0  0  0  0
    3.0104   -0.5545   -4.1438 H   0  0  0  0  0  0  0  0  0  0  0  0
    2.2107    0.1301   -2.7186 H   0  0  0  0  0  0  0  0  0  0  0  0
    4.2425    0.1367   -0.6988 H   0  0  0  0  0  0  0  0  0  0  0  0
    6.3742   -1.1556   -1.1611 H   0  0  0  0  0  0  0  0  0  0  0  0
    5.3566   -4.2055    2.7260 H   0  0  0  0  0  0  0  0  0  0  0  0
    2.9549   -4.8253    2.0085 H   0  0  0  0  0  0  0  0  0  0  0  0
    2.6788   -4.9765   -0.6209 H   0  0  0  0  0  0  0  0  0  0  0  0
    2.3878   -2.7129   -0.9058 H   0  0  0  0  0  0  0  0  0  0  0  0
    4.8150   -5.0463   -1.4774 H   0  0  0  0  0  0  0  0  0  0  0  0
    6.5663   -4.8013    0.4799 H   0  0  0  0  0  0  0  0  0  0  0  0
    5.9715   -7.3971    2.1712 H   0  0  0  0  0  0  0  0  0  0  0  0
    4.4713   -7.0752    3.0027 H   0  0  0  0  0  0  0  0  0  0  0  0
    5.8469   -6.0063    3.1593 H   0  0  0  0  0  0  0  0  0  0  0  0
    5.1412   -7.7235    0.1142 H   0  0  0  0  0  0  0  0  0  0  0  0
    3.9018   -6.7721   -0.6732 H   0  0  0  0  0  0  0  0  0  0  0  0
    3.5611   -7.7005    0.8063 H   0  0  0  0  0  0  0  0  0  0  0  0
    7.4747   -3.5127   -1.3827 H   0  0  0  0  0  0  0  0  0  0  0  0
    7.0259   -2.5747   -2.7827 H   0  0  0  0  0  0  0  0  0  0  0  0
    6.6189   -4.2531   -2.7447 H   0  0  0  0  0  0  0  0  0  0  0  0
  1  2  1  0
  1 22  1  0
  1 23  1  0
  1 24  1  0
  2 20  1  0
  2  3  2  0
  3  4  1  0
  3 25  1  0
  4 18  1  0
  4  5  1  0
  4 26  1  6
  5  6  2  0
  5  7  1  0
  7  8  2  0
  7  9  1  0
  9 14  1  0
  9 10  1  0
  9 27  1  1
 10 15  1  0
 10 11  1  0
 10 28  1  1
 11 12  1  0
 11 13  1  0
 11 29  1  6
 12 30  1  0
 13 14  1  0
 13 18  1  0
 13 31  1  6
 14 15  1  0
 14 32  1  6
 15 16  1  0
 15 17  1  0
 16 33  1  0
 16 34  1  0
 16 35  1  0
 17 36  1  0
 17 37  1  0
 17 38  1  0
 18 19  1  6
 18 20  1  0
 19 39  1  0
 19 40  1  0
 19 41  1  0
 20 21  2  0
M  END
>  <i_m_ct_stereo_status>  (23) 
1

>  <s_m_source_file>  (23) 
/var/tmp/pbs.5076255.sched01/tmp0du1nuht/0914ajmtz.sdf

>  <i_m_source_file_index>  (23) 
10

>  <i_lp_mmshare_version>  (23) 
48012

>  <i_f3d_flags>  (23) 
0

>  <s_epik_input>  (23) 
Tz1DMUMoW0NIM10pPVtDSF1bQ0BIXShbQ0BdMTJbQ0gzXSlDKD1PKUMoPU8pW0NASF0zW0NASF00W0NAQEhdKFtPSF0pW0NAQEhdMltDQEBIXTNDNChbQ0gzXSlbQ0gzXQ==

>  <s_epik_cmdline>  (23) 
J2VwaWtfcHl0aG9uJywgJy1waHQnLCAnMi4wJywgJy1waCcsICc3LjAnLCAnLXRuJywgJzgnLCAnLW1hJywgJzIwMCcsICctaW1hZScsICc8aW5maWxlLm1hZT4nLCAnLW9tYWUnLCAnPG91dGZpbGUubWFlPic=

>  <r_lp_tautomer_probability>  (23) 
1

>  <r_epik_Ionization_Penalty>  (23) 
1.13958e-07

>  <r_epik_Ionization_Penalty_Charging>  (23) 
0

>  <r_epik_Ionization_Penalty_Neutral>  (23) 
1.13958e-07

>  <r_epik_State_Penalty>  (23) 
-0

>  <r_epik_Charging_Adjusted_Penalty>  (23) 
0

>  <i_epik_Tot_Q>  (23) 
0

>  <i_epik_Tot_abs_Q>  (23) 
0

>  <s_lp_Force_Field>  (23) 
OPLS3e

>  <r_lp_Energy>  (23) 
56.0881

>  <b_lp_Chiralities_Consistent>  (23) 
1

>  <s_lp_Variant>  (23) 
7:0-1

>  <s_i_glide_gridfile>  (23) 
pfpi4k_grid

>  <i_i_glide_lignum>  (23) 
10

>  <i_i_glide_rotatable_bonds>  (23) 
1

>  <r_i_docking_score>  (23) 
-3.18188

>  <r_i_glide_ligand_efficiency>  (23) 
-0.151518

>  <r_i_glide_ligand_efficiency_sa>  (23) 
-0.418027

>  <r_i_glide_ligand_efficiency_ln>  (23) 
-0.786713

>  <r_i_glide_gscore>  (23) 
-3.18188

>  <r_i_glide_lipo>  (23) 
-0.466381

>  <r_i_glide_hbond>  (23) 
0

>  <r_i_glide_metal>  (23) 
-0

>  <r_i_glide_rewards>  (23) 
-1.76885

>  <r_i_glide_evdw>  (23) 
-15.7163

>  <r_i_glide_ecoul>  (23) 
-1.07224

>  <r_i_glide_erotb>  (23) 
0

>  <r_i_glide_esite>  (23) 
0

>  <r_i_glide_emodel>  (23) 
-20.8184

>  <r_i_glide_energy>  (23) 
-16.7885

>  <r_i_glide_einternal>  (23) 
0.338566

>  <r_i_glide_intrahb_reward>  (23) 
-0

>  <i_i_glide_confnum>  (23) 
1

>  <i_i_glide_posenum>  (23) 
31

>  <r_i_glide_eff_state_penalty>  (23) 
0

>  <ligand_id>  (23) 
7

>  <original_smiles>  (23) 
CC1=CC2C(=O)C(=O)C3C4C(O)C(C3C4(C)C)C2(C)C1=O

>  <smiles>  (23) 
[H]OC1([H])C2([H])C3([H])C([H])(C(=O)C(=O)C4([H])C([H])=C(C([H])([H])[H])C(=O)C42C([H])([H])[H])C1([H])C3(C([H])([H])[H])C([H])([H])[H]

$$$$
7:0:2
     RDKit          3D

 41 44  0  0  1  0  0  0  0  0999 V2000
    2.8786   -1.3287   -4.3060 C   0  0  0  0  0  0  0  0  0  0  0  0
    3.8745   -1.6343   -3.2238 C   0  0  0  0  0  0  0  0  0  0  0  0
    4.2343   -0.8631   -2.2006 C   0  0  0  0  0  0  0  0  0  0  0  0
    5.3435   -1.4735   -1.3930 C   0  0  1  0  0  0  0  0  0  0  0  0
    5.3416   -1.1471    0.0980 C   0  0  0  0  0  0  0  0  0  0  0  0
    6.1878   -0.3818    0.5349 O   0  0  0  0  0  0  0  0  0  0  0  0
    4.3673   -1.8082    1.0678 C   0  0  0  0  0  0  0  0  0  0  0  0
    3.4774   -1.0982    1.5504 O   0  0  0  0  0  0  0  0  0  0  0  0
    4.6341   -3.2677    1.3956 C   0  0  1  0  0  0  0  0  0  0  0  0
    3.5992   -4.2893    0.9272 C   0  0  1  0  0  0  0  0  0  0  0  0
    3.3784   -4.1537   -0.5728 C   0  0  1  0  0  0  0  0  0  0  0  0
    2.5622   -3.0634   -0.9058 O   0  0  0  0  0  0  0  0  0  0  0  0
    4.8809   -4.0977   -0.9879 C   0  0  2  0  0  0  0  0  0  0  0  0
    5.4468   -4.1962    0.4364 C   0  0  2  0  0  0  0  0  0  0  0  0
    4.7128   -5.3456    1.1896 C   0  0  0  0  0  0  0  0  0  0  0  0
    5.1062   -5.7491    2.6323 C   0  0  0  0  0  0  0  0  0  0  0  0
    4.5827   -6.7105    0.4958 C   0  0  0  0  0  0  0  0  0  0  0  0
    5.4481   -2.9446   -1.8777 C   0  0  2  0  0  0  0  0  0  0  0  0
    6.9258   -3.1878   -2.2043 C   0  0  0  0  0  0  0  0  0  0  0  0
    4.6259   -2.8858   -3.1718 C   0  0  0  0  0  0  0  0  0  0  0  0
    4.6194   -3.7915   -4.0202 O   0  0  0  0  0  0  0  0  0  0  0  0
    2.1574   -2.1426   -4.3071 H   0  0  0  0  0  0  0  0  0  0  0  0
    3.4032   -1.2722   -5.2517 H   0  0  0  0  0  0  0  0  0  0  0  0
    2.3604   -0.3811   -4.1387 H   0  0  0  0  0  0  0  0  0  0  0  0
    3.9079    0.1416   -2.0466 H   0  0  0  0  0  0  0  0  0  0  0  0
    6.2086   -0.9419   -1.7804 H   0  0  0  0  0  0  0  0  0  0  0  0
    4.8957   -3.3405    2.4425 H   0  0  0  0  0  0  0  0  0  0  0  0
    2.7101   -4.3703    1.5385 H   0  0  0  0  0  0  0  0  0  0  0  0
    2.8397   -5.0391   -0.8900 H   0  0  0  0  0  0  0  0  0  0  0  0
    2.1233   -3.2189   -1.7303 H   0  0  0  0  0  0  0  0  0  0  0  0
    5.1236   -5.0009   -1.5509 H   0  0  0  0  0  0  0  0  0  0  0  0
    6.5348   -4.1641    0.5538 H   0  0  0  0  0  0  0  0  0  0  0  0
    5.9014   -6.4919    2.6062 H   0  0  0  0  0  0  0  0  0  0  0  0
    4.2500   -6.2102    3.1249 H   0  0  0  0  0  0  0  0  0  0  0  0
    5.4874   -4.9723    3.2897 H   0  0  0  0  0  0  0  0  0  0  0  0
    5.5326   -7.2476    0.5427 H   0  0  0  0  0  0  0  0  0  0  0  0
    4.2822   -6.6595   -0.5579 H   0  0  0  0  0  0  0  0  0  0  0  0
    3.8348   -7.3318    0.9933 H   0  0  0  0  0  0  0  0  0  0  0  0
    7.5827   -3.1938   -1.3238 H   0  0  0  0  0  0  0  0  0  0  0  0
    7.2915   -2.3709   -2.8154 H   0  0  0  0  0  0  0  0  0  0  0  0
    7.0638   -4.0718   -2.8126 H   0  0  0  0  0  0  0  0  0  0  0  0
  1  2  1  0
  1 22  1  0
  1 23  1  0
  1 24  1  0
  2 20  1  0
  2  3  2  0
  3  4  1  0
  3 25  1  0
  4 18  1  0
  4  5  1  0
  4 26  1  6
  5  6  2  0
  5  7  1  0
  7  8  2  0
  7  9  1  0
  9 14  1  0
  9 10  1  0
  9 27  1  1
 10 15  1  0
 10 11  1  0
 10 28  1  1
 11 12  1  0
 11 13  1  0
 11 29  1  6
 12 30  1  0
 13 14  1  0
 13 18  1  0
 13 31  1  6
 14 15  1  0
 14 32  1  6
 15 16  1  0
 15 17  1  0
 16 33  1  0
 16 34  1  0
 16 35  1  0
 17 36  1  0
 17 37  1  0
 17 38  1  0
 18 19  1  6
 18 20  1  0
 19 39  1  0
 19 40  1  0
 19 41  1  0
 20 21  2  0
M  END
>  <i_m_ct_stereo_status>  (24) 
1

>  <s_m_source_file>  (24) 
/var/tmp/pbs.5076255.sched01/tmp0du1nuht/0914ajmtz.sdf

>  <i_m_source_file_index>  (24) 
10

>  <i_lp_mmshare_version>  (24) 
48012

>  <i_f3d_flags>  (24) 
0

>  <s_epik_input>  (24) 
Tz1DMUMoW0NIM10pPVtDSF1bQ0BIXShbQ0BdMTJbQ0gzXSlDKD1PKUMoPU8pW0NASF0zW0NASF00W0NAQEhdKFtPSF0pW0NAQEhdMltDQEBIXTNDNChbQ0gzXSlbQ0gzXQ==

>  <s_epik_cmdline>  (24) 
J2VwaWtfcHl0aG9uJywgJy1waHQnLCAnMi4wJywgJy1waCcsICc3LjAnLCAnLXRuJywgJzgnLCAnLW1hJywgJzIwMCcsICctaW1hZScsICc8aW5maWxlLm1hZT4nLCAnLW9tYWUnLCAnPG91dGZpbGUubWFlPic=

>  <r_lp_tautomer_probability>  (24) 
1

>  <r_epik_Ionization_Penalty>  (24) 
1.13958e-07

>  <r_epik_Ionization_Penalty_Charging>  (24) 
0

>  <r_epik_Ionization_Penalty_Neutral>  (24) 
1.13958e-07

>  <r_epik_State_Penalty>  (24) 
-0

>  <r_epik_Charging_Adjusted_Penalty>  (24) 
0

>  <i_epik_Tot_Q>  (24) 
0

>  <i_epik_Tot_abs_Q>  (24) 
0

>  <s_lp_Force_Field>  (24) 
OPLS3e

>  <r_lp_Energy>  (24) 
56.0881

>  <b_lp_Chiralities_Consistent>  (24) 
1

>  <s_lp_Variant>  (24) 
7:0-1

>  <s_i_glide_gridfile>  (24) 
pfpi4k_grid

>  <i_i_glide_lignum>  (24) 
10

>  <i_i_glide_rotatable_bonds>  (24) 
1

>  <r_i_docking_score>  (24) 
-3.07097

>  <r_i_glide_ligand_efficiency>  (24) 
-0.146237

>  <r_i_glide_ligand_efficiency_sa>  (24) 
-0.403456

>  <r_i_glide_ligand_efficiency_ln>  (24) 
-0.759291

>  <r_i_glide_gscore>  (24) 
-3.07097

>  <r_i_glide_lipo>  (24) 
-0.437451

>  <r_i_glide_hbond>  (24) 
0

>  <r_i_glide_metal>  (24) 
-0

>  <r_i_glide_rewards>  (24) 
-1.66243

>  <r_i_glide_evdw>  (24) 
-18.2213

>  <r_i_glide_ecoul>  (24) 
-0.389886

>  <r_i_glide_erotb>  (24) 
0

>  <r_i_glide_esite>  (24) 
-0.00153406

>  <r_i_glide_emodel>  (24) 
-22.0918

>  <r_i_glide_energy>  (24) 
-18.6112

>  <r_i_glide_einternal>  (24) 
0.918786

>  <r_i_glide_intrahb_reward>  (24) 
-0

>  <i_i_glide_confnum>  (24) 
1

>  <i_i_glide_posenum>  (24) 
26

>  <r_i_glide_eff_state_penalty>  (24) 
0

>  <ligand_id>  (24) 
7

>  <original_smiles>  (24) 
CC1=CC2C(=O)C(=O)C3C4C(O)C(C3C4(C)C)C2(C)C1=O

>  <smiles>  (24) 
[H]OC1([H])C2([H])C3([H])C([H])(C(=O)C(=O)C4([H])C([H])=C(C([H])([H])[H])C(=O)C42C([H])([H])[H])C1([H])C3(C([H])([H])[H])C([H])([H])[H]

$$$$
8:0:0
     RDKit          3D

 51 55  0  0  1  0  0  0  0  0999 V2000
    1.8229    0.4511    2.7156 C   0  0  0  0  0  0  0  0  0  0  0  0
    2.5437   -0.9030    2.8990 C   0  0  1  0  0  0  0  0  0  0  0  0
    3.5625   -0.7678    4.0452 C   0  0  0  0  0  0  0  0  0  0  0  0
    4.2909   -2.0828    4.3087 C   0  0  0  0  0  0  0  0  0  0  0  0
    4.8755   -2.7041    3.0199 C   0  0  1  0  0  0  0  0  0  0  0  0
    5.3971   -3.9493    3.4755 O   0  0  0  0  0  0  0  0  0  0  0  0
    3.8737   -2.8042    1.7857 C   0  0  1  0  0  0  0  0  0  0  0  0
    2.7603   -3.7929    2.2057 C   0  0  0  0  0  0  0  0  0  0  0  0
    2.8363   -4.9846    1.9107 O   0  0  0  0  0  0  0  0  0  0  0  0
    1.7607   -3.3246    2.9939 O   0  0  0  0  0  0  0  0  0  0  0  0
    1.4582   -1.9471    3.2307 C   0  0  0  0  0  0  0  0  0  0  0  0
    3.2511   -1.3731    1.6070 C   0  0  2  0  0  0  0  0  0  0  0  0
    4.2727   -0.3692    1.0045 C   0  0  0  0  0  0  0  0  0  0  0  0
    4.6773   -0.8692   -0.3593 C   0  0  0  0  0  0  0  0  0  0  0  0
    4.7787   -2.1799   -0.5873 C   0  0  0  0  0  0  0  0  0  0  0  0
    4.4010   -2.9595   -1.8405 C   0  0  2  0  0  0  0  0  0  0  0  0
    5.5600   -3.4308   -2.7261 C   0  0  0  0  0  0  0  0  0  0  0  0
    3.2455   -2.4012   -2.6894 C   0  0  0  0  0  0  0  0  0  0  0  0
    2.0638   -3.3502   -2.4275 C   0  0  0  0  0  0  0  0  0  0  0  0
    2.2468   -3.8135   -0.9814 C   0  0  0  0  0  0  0  0  0  0  0  0
    3.7623   -3.8929   -0.7997 C   0  0  2  0  0  0  0  0  0  0  0  0
    4.5585   -3.3117    0.4183 C   0  0  2  0  0  0  0  0  0  0  0  0
    5.8525   -4.1136    0.6609 C   0  0  0  0  0  0  0  0  0  0  0  0
    2.5131    1.2864    2.6000 H   0  0  0  0  0  0  0  0  0  0  0  0
    1.2000    0.6721    3.5842 H   0  0  0  0  0  0  0  0  0  0  0  0
    1.1645    0.4372    1.8451 H   0  0  0  0  0  0  0  0  0  0  0  0
    4.2970   -0.0001    3.7978 H   0  0  0  0  0  0  0  0  0  0  0  0
    3.0699   -0.4292    4.9588 H   0  0  0  0  0  0  0  0  0  0  0  0
    5.0968   -1.9107    5.0222 H   0  0  0  0  0  0  0  0  0  0  0  0
    3.6077   -2.7784    4.7932 H   0  0  0  0  0  0  0  0  0  0  0  0
    5.7285   -2.1007    2.7174 H   0  0  0  0  0  0  0  0  0  0  0  0
    4.6815   -4.5132    3.7280 H   0  0  0  0  0  0  0  0  0  0  0  0
    1.1975   -1.8649    4.2877 H   0  0  0  0  0  0  0  0  0  0  0  0
    0.5464   -1.6987    2.6846 H   0  0  0  0  0  0  0  0  0  0  0  0
    2.4587   -1.4361    0.8665 H   0  0  0  0  0  0  0  0  0  0  0  0
    3.8165    0.6100    0.8583 H   0  0  0  0  0  0  0  0  0  0  0  0
    5.1703   -0.2221    1.6145 H   0  0  0  0  0  0  0  0  0  0  0  0
    4.6122   -0.1777   -1.1858 H   0  0  0  0  0  0  0  0  0  0  0  0
    5.2443   -4.2667   -3.3505 H   0  0  0  0  0  0  0  0  0  0  0  0
    6.4440   -3.7412   -2.1824 H   0  0  0  0  0  0  0  0  0  0  0  0
    5.8771   -2.6520   -3.4110 H   0  0  0  0  0  0  0  0  0  0  0  0
    2.9732   -1.3897   -2.3802 H   0  0  0  0  0  0  0  0  0  0  0  0
    3.4792   -2.3578   -3.7553 H   0  0  0  0  0  0  0  0  0  0  0  0
    1.0883   -2.9088   -2.6150 H   0  0  0  0  0  0  0  0  0  0  0  0
    2.1593   -4.1973   -3.1011 H   0  0  0  0  0  0  0  0  0  0  0  0
    1.7990   -3.0725   -0.3303 H   0  0  0  0  0  0  0  0  0  0  0  0
    1.7581   -4.7673   -0.7780 H   0  0  0  0  0  0  0  0  0  0  0  0
    4.1165   -4.9058   -0.9948 H   0  0  0  0  0  0  0  0  0  0  0  0
    5.6494   -5.0261    1.2252 H   0  0  0  0  0  0  0  0  0  0  0  0
    6.6214   -3.5416    1.1787 H   0  0  0  0  0  0  0  0  0  0  0  0
    6.3063   -4.4672   -0.2565 H   0  0  0  0  0  0  0  0  0  0  0  0
  2  1  1  6
  1 24  1  0
  1 25  1  0
  1 26  1  0
  2 11  1  0
  2 12  1  0
  2  3  1  0
  3  4  1  0
  3 27  1  0
  3 28  1  0
  4  5  1  0
  4 29  1  0
  4 30  1  0
  5  6  1  0
  5  7  1  0
  5 31  1  6
  6 32  1  0
  7 22  1  0
  7  8  1  1
  7 12  1  0
  8  9  2  0
  8 10  1  0
 10 11  1  0
 11 33  1  0
 11 34  1  0
 12 13  1  0
 12 35  1  6
 13 14  1  0
 13 36  1  0
 13 37  1  0
 14 15  2  0
 14 38  1  0
 15 22  1  0
 15 16  1  0
 16 21  1  0
 16 17  1  6
 16 18  1  0
 17 39  1  0
 17 40  1  0
 17 41  1  0
 18 19  1  0
 18 42  1  0
 18 43  1  0
 19 20  1  0
 19 44  1  0
 19 45  1  0
 20 21  1  0
 20 46  1  0
 20 47  1  0
 21 22  1  0
 21 48  1  6
 22 23  1  1
 23 49  1  0
 23 50  1  0
 23 51  1  0
M  END
>  <i_m_ct_stereo_status>  (25) 
1

>  <s_m_source_file>  (25) 
/var/tmp/pbs.5076255.sched01/tmp0du1nuht/0914ajmtz.sdf

>  <i_m_source_file_index>  (25) 
11

>  <i_lp_mmshare_version>  (25) 
48012

>  <i_f3d_flags>  (25) 
0

>  <s_epik_input>  (25) 
W09IXVtDQEBIXTFbQ0gyXVtDSDJdW0NAXShbQ0gzXSkoW0NIMl1PQzI9TylbQ0BIXShbQ0BAXTEyMylbQ0gyXVtDSF09QzRbQ0BAXTUoW0NIM10pW0NAQEhdKFtDQF0zNFtDSDNdKVtDSDJdW0NIMl1bQ0gyXTU=

>  <s_epik_cmdline>  (25) 
J2VwaWtfcHl0aG9uJywgJy1waHQnLCAnMi4wJywgJy1waCcsICc3LjAnLCAnLXRuJywgJzgnLCAnLW1hJywgJzIwMCcsICctaW1hZScsICc8aW5maWxlLm1hZT4nLCAnLW9tYWUnLCAnPG91dGZpbGUubWFlPic=

>  <r_lp_tautomer_probability>  (25) 
1

>  <r_epik_Ionization_Penalty>  (25) 
1.44647e-07

>  <r_epik_Ionization_Penalty_Charging>  (25) 
0

>  <r_epik_Ionization_Penalty_Neutral>  (25) 
1.44647e-07

>  <r_epik_State_Penalty>  (25) 
-0

>  <r_epik_Charging_Adjusted_Penalty>  (25) 
0

>  <i_epik_Tot_Q>  (25) 
0

>  <i_epik_Tot_abs_Q>  (25) 
0

>  <s_epik_Chemistry_Notes>  (25) 
This compound has an ester and may undergo hydrolysis at high or low pH.

>  <s_lp_Force_Field>  (25) 
OPLS3e

>  <r_lp_Energy>  (25) 
65.9888

>  <b_lp_Chiralities_Consistent>  (25) 
1

>  <s_lp_Variant>  (25) 
8:0-1

>  <s_i_glide_gridfile>  (25) 
pfpi4k_grid

>  <i_i_glide_lignum>  (25) 
11

>  <i_i_glide_rotatable_bonds>  (25) 
1

>  <r_i_docking_score>  (25) 
-3.20709

>  <r_i_glide_ligand_efficiency>  (25) 
-0.139439

>  <r_i_glide_ligand_efficiency_sa>  (25) 
-0.396545

>  <r_i_glide_ligand_efficiency_ln>  (25) 
-0.775503

>  <r_i_glide_gscore>  (25) 
-3.20709

>  <r_i_glide_lipo>  (25) 
-0.794187

>  <r_i_glide_hbond>  (25) 
0

>  <r_i_glide_metal>  (25) 
-0

>  <r_i_glide_rewards>  (25) 
-1.25158

>  <r_i_glide_evdw>  (25) 
-19.9128

>  <r_i_glide_ecoul>  (25) 
-1.07935

>  <r_i_glide_erotb>  (25) 
0

>  <r_i_glide_esite>  (25) 
-0.0037792

>  <r_i_glide_emodel>  (25) 
-24.6479

>  <r_i_glide_energy>  (25) 
-20.9921

>  <r_i_glide_einternal>  (25) 
0.00182819

>  <r_i_glide_intrahb_reward>  (25) 
-0

>  <i_i_glide_confnum>  (25) 
1

>  <i_i_glide_posenum>  (25) 
36

>  <r_i_glide_eff_state_penalty>  (25) 
0

>  <ligand_id>  (25) 
8

>  <original_smiles>  (25) 
CC12CCC(O)C3(C(=O)OC1)C2CC=C1C2(C)CCCC2C13C

>  <smiles>  (25) 
[H]OC1([H])C([H])([H])C([H])([H])C2(C([H])([H])[H])C([H])([H])OC(=O)C13C2([H])C([H])([H])C([H])=C1C2(C([H])([H])[H])C([H])([H])C([H])([H])C([H])([H])C2([H])C13C([H])([H])[H]

$$$$
8:0:1
     RDKit          3D

 51 55  0  0  1  0  0  0  0  0999 V2000
    1.9320    0.4026    2.8105 C   0  0  0  0  0  0  0  0  0  0  0  0
    2.6178   -0.9740    2.9526 C   0  0  1  0  0  0  0  0  0  0  0  0
    3.6525   -0.8908    4.0910 C   0  0  0  0  0  0  0  0  0  0  0  0
    4.3519   -2.2276    4.3137 C   0  0  0  0  0  0  0  0  0  0  0  0
    4.9068   -2.8254    3.0029 C   0  0  1  0  0  0  0  0  0  0  0  0
    5.3900   -4.0938    3.4293 O   0  0  0  0  0  0  0  0  0  0  0  0
    3.8876   -2.8796    1.7811 C   0  0  1  0  0  0  0  0  0  0  0  0
    2.7541   -3.8517    2.1914 C   0  0  0  0  0  0  0  0  0  0  0  0
    2.7844   -5.0345    1.8511 O   0  0  0  0  0  0  0  0  0  0  0  0
    1.7725   -3.3776    2.9994 O   0  0  0  0  0  0  0  0  0  0  0  0
    1.5102   -1.9983    3.2736 C   0  0  0  0  0  0  0  0  0  0  0  0
    3.2987   -1.4309    1.6415 C   0  0  2  0  0  0  0  0  0  0  0  0
    4.3412   -0.4386    1.0544 C   0  0  0  0  0  0  0  0  0  0  0  0
    4.7183   -0.9175   -0.3251 C   0  0  0  0  0  0  0  0  0  0  0  0
    4.7875   -2.2238   -0.5845 C   0  0  0  0  0  0  0  0  0  0  0  0
    4.3753   -2.9644   -1.8508 C   0  0  2  0  0  0  0  0  0  0  0  0
    5.5109   -3.4423   -2.7636 C   0  0  0  0  0  0  0  0  0  0  0  0
    3.2247   -2.3577   -2.6731 C   0  0  0  0  0  0  0  0  0  0  0  0
    2.0241   -3.2833   -2.4197 C   0  0  0  0  0  0  0  0  0  0  0  0
    2.2121   -3.7856   -0.9894 C   0  0  0  0  0  0  0  0  0  0  0  0
    3.7252   -3.9065   -0.8247 C   0  0  2  0  0  0  0  0  0  0  0  0
    4.5482   -3.3728    0.3970 C   0  0  2  0  0  0  0  0  0  0  0  0
    5.8203   -4.2168    0.6066 C   0  0  0  0  0  0  0  0  0  0  0  0
    2.6433    1.2218    2.7071 H   0  0  0  0  0  0  0  0  0  0  0  0
    1.3249    0.6192    3.6913 H   0  0  0  0  0  0  0  0  0  0  0  0
    1.2647    0.4269    1.9473 H   0  0  0  0  0  0  0  0  0  0  0  0
    4.4042   -0.1358    3.8549 H   0  0  0  0  0  0  0  0  0  0  0  0
    3.1788   -0.5641    5.0188 H   0  0  0  0  0  0  0  0  0  0  0  0
    5.1680   -2.0974    5.0255 H   0  0  0  0  0  0  0  0  0  0  0  0
    3.6584   -2.9240    4.7843 H   0  0  0  0  0  0  0  0  0  0  0  0
    5.7762   -2.2412    2.7058 H   0  0  0  0  0  0  0  0  0  0  0  0
    5.8025   -4.5238    2.6984 H   0  0  0  0  0  0  0  0  0  0  0  0
    1.2627   -1.9334    4.3349 H   0  0  0  0  0  0  0  0  0  0  0  0
    0.5992   -1.7135    2.7439 H   0  0  0  0  0  0  0  0  0  0  0  0
    2.5011   -1.4556    0.9025 H   0  0  0  0  0  0  0  0  0  0  0  0
    3.9080    0.5544    0.9303 H   0  0  0  0  0  0  0  0  0  0  0  0
    5.2480   -0.3270    1.6595 H   0  0  0  0  0  0  0  0  0  0  0  0
    4.6446   -0.2090   -1.1365 H   0  0  0  0  0  0  0  0  0  0  0  0
    5.1656   -4.2594   -3.4005 H   0  0  0  0  0  0  0  0  0  0  0  0
    6.3906   -3.7922   -2.2352 H   0  0  0  0  0  0  0  0  0  0  0  0
    5.8385   -2.6489   -3.4271 H   0  0  0  0  0  0  0  0  0  0  0  0
    2.9808   -1.3470   -2.3388 H   0  0  0  0  0  0  0  0  0  0  0  0
    3.4477   -2.2954   -3.7406 H   0  0  0  0  0  0  0  0  0  0  0  0
    1.0597   -2.8119   -2.5861 H   0  0  0  0  0  0  0  0  0  0  0  0
    2.0908   -4.1196   -3.1096 H   0  0  0  0  0  0  0  0  0  0  0  0
    1.7999   -3.0517   -0.3121 H   0  0  0  0  0  0  0  0  0  0  0  0
    1.6969   -4.7276   -0.8039 H   0  0  0  0  0  0  0  0  0  0  0  0
    4.0495   -4.9225   -1.0448 H   0  0  0  0  0  0  0  0  0  0  0  0
    5.5965   -5.1429    1.1395 H   0  0  0  0  0  0  0  0  0  0  0  0
    6.6127   -3.6762    1.1226 H   0  0  0  0  0  0  0  0  0  0  0  0
    6.2540   -4.5568   -0.3257 H   0  0  0  0  0  0  0  0  0  0  0  0
  2  1  1  6
  1 24  1  0
  1 25  1  0
  1 26  1  0
  2 11  1  0
  2 12  1  0
  2  3  1  0
  3  4  1  0
  3 27  1  0
  3 28  1  0
  4  5  1  0
  4 29  1  0
  4 30  1  0
  5  6  1  0
  5  7  1  0
  5 31  1  6
  6 32  1  0
  7 22  1  0
  7  8  1  1
  7 12  1  0
  8  9  2  0
  8 10  1  0
 10 11  1  0
 11 33  1  0
 11 34  1  0
 12 13  1  0
 12 35  1  6
 13 14  1  0
 13 36  1  0
 13 37  1  0
 14 15  2  0
 14 38  1  0
 15 22  1  0
 15 16  1  0
 16 21  1  0
 16 17  1  6
 16 18  1  0
 17 39  1  0
 17 40  1  0
 17 41  1  0
 18 19  1  0
 18 42  1  0
 18 43  1  0
 19 20  1  0
 19 44  1  0
 19 45  1  0
 20 21  1  0
 20 46  1  0
 20 47  1  0
 21 22  1  0
 21 48  1  6
 22 23  1  1
 23 49  1  0
 23 50  1  0
 23 51  1  0
M  END
>  <i_m_ct_stereo_status>  (26) 
1

>  <s_m_source_file>  (26) 
/var/tmp/pbs.5076255.sched01/tmp0du1nuht/0914ajmtz.sdf

>  <i_m_source_file_index>  (26) 
11

>  <i_lp_mmshare_version>  (26) 
48012

>  <i_f3d_flags>  (26) 
0

>  <s_epik_input>  (26) 
W09IXVtDQEBIXTFbQ0gyXVtDSDJdW0NAXShbQ0gzXSkoW0NIMl1PQzI9TylbQ0BIXShbQ0BAXTEyMylbQ0gyXVtDSF09QzRbQ0BAXTUoW0NIM10pW0NAQEhdKFtDQF0zNFtDSDNdKVtDSDJdW0NIMl1bQ0gyXTU=

>  <s_epik_cmdline>  (26) 
J2VwaWtfcHl0aG9uJywgJy1waHQnLCAnMi4wJywgJy1waCcsICc3LjAnLCAnLXRuJywgJzgnLCAnLW1hJywgJzIwMCcsICctaW1hZScsICc8aW5maWxlLm1hZT4nLCAnLW9tYWUnLCAnPG91dGZpbGUubWFlPic=

>  <r_lp_tautomer_probability>  (26) 
1

>  <r_epik_Ionization_Penalty>  (26) 
1.44647e-07

>  <r_epik_Ionization_Penalty_Charging>  (26) 
0

>  <r_epik_Ionization_Penalty_Neutral>  (26) 
1.44647e-07

>  <r_epik_State_Penalty>  (26) 
-0

>  <r_epik_Charging_Adjusted_Penalty>  (26) 
0

>  <i_epik_Tot_Q>  (26) 
0

>  <i_epik_Tot_abs_Q>  (26) 
0

>  <s_epik_Chemistry_Notes>  (26) 
This compound has an ester and may undergo hydrolysis at high or low pH.

>  <s_lp_Force_Field>  (26) 
OPLS3e

>  <r_lp_Energy>  (26) 
65.9888

>  <b_lp_Chiralities_Consistent>  (26) 
1

>  <s_lp_Variant>  (26) 
8:0-1

>  <s_i_glide_gridfile>  (26) 
pfpi4k_grid

>  <i_i_glide_lignum>  (26) 
11

>  <i_i_glide_rotatable_bonds>  (26) 
1

>  <r_i_docking_score>  (26) 
-3.12196

>  <r_i_glide_ligand_efficiency>  (26) 
-0.135738

>  <r_i_glide_ligand_efficiency_sa>  (26) 
-0.38602

>  <r_i_glide_ligand_efficiency_ln>  (26) 
-0.754919

>  <r_i_glide_gscore>  (26) 
-3.12196

>  <r_i_glide_lipo>  (26) 
-0.73458

>  <r_i_glide_hbond>  (26) 
0

>  <r_i_glide_metal>  (26) 
-0

>  <r_i_glide_rewards>  (26) 
-1.25158

>  <r_i_glide_evdw>  (26) 
-19.9702

>  <r_i_glide_ecoul>  (26) 
-0.887818

>  <r_i_glide_erotb>  (26) 
0

>  <r_i_glide_esite>  (26) 
-0.00412039

>  <r_i_glide_emodel>  (26) 
-24.187

>  <r_i_glide_energy>  (26) 
-20.858

>  <r_i_glide_einternal>  (26) 
0.328847

>  <r_i_glide_intrahb_reward>  (26) 
-0

>  <i_i_glide_confnum>  (26) 
1

>  <i_i_glide_posenum>  (26) 
9

>  <r_i_glide_eff_state_penalty>  (26) 
0

>  <ligand_id>  (26) 
8

>  <original_smiles>  (26) 
CC12CCC(O)C3(C(=O)OC1)C2CC=C1C2(C)CCCC2C13C

>  <smiles>  (26) 
[H]OC1([H])C([H])([H])C([H])([H])C2(C([H])([H])[H])C([H])([H])OC(=O)C13C2([H])C([H])([H])C([H])=C1C2(C([H])([H])[H])C([H])([H])C([H])([H])C([H])([H])C2([H])C13C([H])([H])[H]

$$$$
8:0:2
     RDKit          3D

 51 55  0  0  1  0  0  0  0  0999 V2000
    2.3228   -3.0772   -2.8698 C   0  0  0  0  0  0  0  0  0  0  0  0
    3.5987   -2.7681   -2.0533 C   0  0  1  0  0  0  0  0  0  0  0  0
    4.7908   -3.4993   -2.6992 C   0  0  0  0  0  0  0  0  0  0  0  0
    6.0955   -3.2018   -1.9678 C   0  0  0  0  0  0  0  0  0  0  0  0
    5.9749   -3.4055   -0.4425 C   0  0  1  0  0  0  0  0  0  0  0  0
    7.2493   -2.9302   -0.0006 O   0  0  0  0  0  0  0  0  0  0  0  0
    4.7320   -2.7010    0.2556 C   0  0  1  0  0  0  0  0  0  0  0  0
    4.9287   -1.1701    0.0671 C   0  0  0  0  0  0  0  0  0  0  0  0
    5.4464   -0.5242    0.9791 O   0  0  0  0  0  0  0  0  0  0  0  0
    4.6982   -0.6855   -1.1612 O   0  0  0  0  0  0  0  0  0  0  0  0
    3.7989   -1.2382   -2.1164 C   0  0  0  0  0  0  0  0  0  0  0  0
    3.4654   -3.1413   -0.5569 C   0  0  2  0  0  0  0  0  0  0  0  0
    3.0926   -4.6154   -0.2590 C   0  0  0  0  0  0  0  0  0  0  0  0
    2.7669   -4.7638    1.2010 C   0  0  0  0  0  0  0  0  0  0  0  0
    3.4277   -4.0313    2.1043 C   0  0  0  0  0  0  0  0  0  0  0  0
    2.8965   -3.3594    3.3782 C   0  0  2  0  0  0  0  0  0  0  0  0
    3.2648   -4.0722    4.6796 C   0  0  0  0  0  0  0  0  0  0  0  0
    1.4359   -2.9323    3.3701 C   0  0  0  0  0  0  0  0  0  0  0  0
    1.4609   -1.3947    3.2553 C   0  0  0  0  0  0  0  0  0  0  0  0
    2.7030   -1.0908    2.4160 C   0  0  0  0  0  0  0  0  0  0  0  0
    3.6901   -2.1787    2.8123 C   0  0  2  0  0  0  0  0  0  0  0  0
    4.5487   -3.0264    1.8126 C   0  0  2  0  0  0  0  0  0  0  0  0
    5.8495   -3.5020    2.4612 C   0  0  0  0  0  0  0  0  0  0  0  0
    2.1524   -4.1419   -3.0080 H   0  0  0  0  0  0  0  0  0  0  0  0
    2.3857   -2.6376   -3.8664 H   0  0  0  0  0  0  0  0  0  0  0  0
    1.4365   -2.6651   -2.3874 H   0  0  0  0  0  0  0  0  0  0  0  0
    4.6248   -4.5783   -2.6613 H   0  0  0  0  0  0  0  0  0  0  0  0
    4.8881   -3.2405   -3.7525 H   0  0  0  0  0  0  0  0  0  0  0  0
    6.8818   -3.8363   -2.3726 H   0  0  0  0  0  0  0  0  0  0  0  0
    6.4084   -2.1831   -2.1957 H   0  0  0  0  0  0  0  0  0  0  0  0
    5.9318   -4.4724   -0.2390 H   0  0  0  0  0  0  0  0  0  0  0  0
    7.9189   -3.4522   -0.3729 H   0  0  0  0  0  0  0  0  0  0  0  0
    4.2258   -0.9903   -3.0860 H   0  0  0  0  0  0  0  0  0  0  0  0
    2.8258   -0.7435   -2.0872 H   0  0  0  0  0  0  0  0  0  0  0  0
    2.6183   -2.5632   -0.1977 H   0  0  0  0  0  0  0  0  0  0  0  0
    2.1794   -4.8801   -0.7869 H   0  0  0  0  0  0  0  0  0  0  0  0
    3.8775   -5.3323   -0.5324 H   0  0  0  0  0  0  0  0  0  0  0  0
    1.8477   -5.2664    1.4554 H   0  0  0  0  0  0  0  0  0  0  0  0
    3.1864   -3.3702    5.5162 H   0  0  0  0  0  0  0  0  0  0  0  0
    4.2658   -4.4898    4.7016 H   0  0  0  0  0  0  0  0  0  0  0  0
    2.5762   -4.8872    4.8916 H   0  0  0  0  0  0  0  0  0  0  0  0
    0.9493   -3.3377    2.4926 H   0  0  0  0  0  0  0  0  0  0  0  0
    0.8784   -3.2629    4.2472 H   0  0  0  0  0  0  0  0  0  0  0  0
    0.5449   -0.9688    2.8468 H   0  0  0  0  0  0  0  0  0  0  0  0
    1.6064   -0.9818    4.2538 H   0  0  0  0  0  0  0  0  0  0  0  0
    2.4206   -1.1434    1.3673 H   0  0  0  0  0  0  0  0  0  0  0  0
    3.0931   -0.0876    2.5897 H   0  0  0  0  0  0  0  0  0  0  0  0
    4.3452   -1.8216    3.6200 H   0  0  0  0  0  0  0  0  0  0  0  0
    6.5914   -2.6975    2.4022 H   0  0  0  0  0  0  0  0  0  0  0  0
    6.2688   -4.3975    2.0038 H   0  0  0  0  0  0  0  0  0  0  0  0
    5.7539   -3.7088    3.5202 H   0  0  0  0  0  0  0  0  0  0  0  0
  2  1  1  6
  1 24  1  0
  1 25  1  0
  1 26  1  0
  2 11  1  0
  2 12  1  0
  2  3  1  0
  3  4  1  0
  3 27  1  0
  3 28  1  0
  4  5  1  0
  4 29  1  0
  4 30  1  0
  5  6  1  0
  5  7  1  0
  5 31  1  6
  6 32  1  0
  7 22  1  0
  7  8  1  1
  7 12  1  0
  8  9  2  0
  8 10  1  0
 10 11  1  0
 11 33  1  0
 11 34  1  0
 12 13  1  0
 12 35  1  1
 13 14  1  0
 13 36  1  0
 13 37  1  0
 14 15  2  0
 14 38  1  0
 15 22  1  0
 15 16  1  0
 16 21  1  0
 16 17  1  1
 16 18  1  0
 17 39  1  0
 17 40  1  0
 17 41  1  0
 18 19  1  0
 18 42  1  0
 18 43  1  0
 19 20  1  0
 19 44  1  0
 19 45  1  0
 20 21  1  0
 20 46  1  0
 20 47  1  0
 21 22  1  0
 21 48  1  1
 22 23  1  1
 23 49  1  0
 23 50  1  0
 23 51  1  0
M  END
>  <i_m_ct_stereo_status>  (27) 
1

>  <s_m_source_file>  (27) 
/var/tmp/pbs.5076255.sched01/tmp0du1nuht/0914ajmtz.sdf

>  <i_m_source_file_index>  (27) 
11

>  <i_lp_mmshare_version>  (27) 
48012

>  <i_f3d_flags>  (27) 
0

>  <s_epik_input>  (27) 
W09IXVtDQEBIXTFbQ0gyXVtDSDJdW0NAXShbQ0gzXSkoW0NIMl1PQzI9TylbQ0BIXShbQ0BAXTEyMylbQ0gyXVtDSF09QzRbQ0BAXTUoW0NIM10pW0NAQEhdKFtDQF0zNFtDSDNdKVtDSDJdW0NIMl1bQ0gyXTU=

>  <s_epik_cmdline>  (27) 
J2VwaWtfcHl0aG9uJywgJy1waHQnLCAnMi4wJywgJy1waCcsICc3LjAnLCAnLXRuJywgJzgnLCAnLW1hJywgJzIwMCcsICctaW1hZScsICc8aW5maWxlLm1hZT4nLCAnLW9tYWUnLCAnPG91dGZpbGUubWFlPic=

>  <r_lp_tautomer_probability>  (27) 
1

>  <r_epik_Ionization_Penalty>  (27) 
1.44647e-07

>  <r_epik_Ionization_Penalty_Charging>  (27) 
0

>  <r_epik_Ionization_Penalty_Neutral>  (27) 
1.44647e-07

>  <r_epik_State_Penalty>  (27) 
-0

>  <r_epik_Charging_Adjusted_Penalty>  (27) 
0

>  <i_epik_Tot_Q>  (27) 
0

>  <i_epik_Tot_abs_Q>  (27) 
0

>  <s_epik_Chemistry_Notes>  (27) 
This compound has an ester and may undergo hydrolysis at high or low pH.

>  <s_lp_Force_Field>  (27) 
OPLS3e

>  <r_lp_Energy>  (27) 
65.9888

>  <b_lp_Chiralities_Consistent>  (27) 
1

>  <s_lp_Variant>  (27) 
8:0-1

>  <s_i_glide_gridfile>  (27) 
pfpi4k_grid

>  <i_i_glide_lignum>  (27) 
11

>  <i_i_glide_rotatable_bonds>  (27) 
1

>  <r_i_docking_score>  (27) 
-3.06778

>  <r_i_glide_ligand_efficiency>  (27) 
-0.133382

>  <r_i_glide_ligand_efficiency_sa>  (27) 
-0.379319

>  <r_i_glide_ligand_efficiency_ln>  (27) 
-0.741816

>  <r_i_glide_gscore>  (27) 
-3.06778

>  <r_i_glide_lipo>  (27) 
-0.56189

>  <r_i_glide_hbond>  (27) 
0

>  <r_i_glide_metal>  (27) 
-0

>  <r_i_glide_rewards>  (27) 
-1.26098

>  <r_i_glide_evdw>  (27) 
-20.8165

>  <r_i_glide_ecoul>  (27) 
-1.36055

>  <r_i_glide_erotb>  (27) 
0

>  <r_i_glide_esite>  (27) 
0

>  <r_i_glide_emodel>  (27) 
-25.3288

>  <r_i_glide_energy>  (27) 
-22.177

>  <r_i_glide_einternal>  (27) 
0.3334

>  <r_i_glide_intrahb_reward>  (27) 
-0

>  <i_i_glide_confnum>  (27) 
1

>  <i_i_glide_posenum>  (27) 
18

>  <r_i_glide_eff_state_penalty>  (27) 
0

>  <ligand_id>  (27) 
8

>  <original_smiles>  (27) 
CC12CCC(O)C3(C(=O)OC1)C2CC=C1C2(C)CCCC2C13C

>  <smiles>  (27) 
[H]OC1([H])C([H])([H])C([H])([H])C2(C([H])([H])[H])C([H])([H])OC(=O)C13C2([H])C([H])([H])C([H])=C1C2(C([H])([H])[H])C([H])([H])C([H])([H])C([H])([H])C2([H])C13C([H])([H])[H]

$$$$
9:0:0
     RDKit          3D

 49 56  0  0  1  0  0  0  0  0999 V2000
    4.8392   -2.6530    4.9975 C   0  0  0  0  0  0  0  0  0  0  0  0
    3.9896   -1.8725    4.1534 O   0  0  0  0  0  0  0  0  0  0  0  0
    3.6131   -2.3734    2.8598 C   0  0  1  0  0  0  0  0  0  0  0  0
    2.6040   -3.5845    3.0460 C   0  0  0  0  0  0  0  0  0  0  0  0
    2.6600   -4.8212    2.0524 C   0  0  0  0  0  0  0  0  0  0  0  0
    3.9789   -5.0787    1.2671 C   0  0  1  0  0  0  0  0  0  0  0  0
    3.8278   -6.1274    0.3364 O   0  0  0  0  0  0  0  0  0  0  0  0
    4.1914   -3.6838    0.6864 C   0  0  1  0  0  0  0  0  0  0  0  0
    3.9146   -3.6056   -0.8664 C   0  0  0  0  0  0  0  0  0  0  0  0
    2.6572   -3.6491   -1.4785 C   0  0  0  0  0  0  0  0  0  0  0  0
    2.4817   -2.9947   -2.7040 C   0  0  0  0  0  0  0  0  0  0  0  0
    3.4513   -2.0622   -3.1448 C   0  0  0  0  0  0  0  0  0  0  0  0
    3.1278   -1.1546   -4.1165 O   0  0  0  0  0  0  0  0  0  0  0  0
    4.6888   -1.9420   -2.4673 C   0  0  0  0  0  0  0  0  0  0  0  0
    5.0189   -3.0113   -1.6150 C   0  0  0  0  0  0  0  0  0  0  0  0
    6.3399   -2.9056   -0.7565 C   0  0  2  0  0  0  0  0  0  0  0  0
    6.8491   -1.8266    0.4317 C   0  0  2  0  0  0  0  0  0  0  0  0
    6.0759   -1.7518    1.8870 C   0  0  1  0  0  0  0  0  0  0  0  0
    5.8745   -0.7845    0.8063 C   0  0  2  0  0  0  0  0  0  0  0  0
    4.7644   -1.2413    0.0413 C   0  0  1  0  0  0  0  0  0  0  0  0
    3.3618   -0.8769    0.6410 C   0  0  0  0  0  0  0  0  0  0  0  0
    3.0694   -1.0907    2.1579 C   0  0  0  0  0  0  0  0  0  0  0  0
    4.8633   -0.7725   -1.4756 C   0  0  0  0  0  0  0  0  0  0  0  0
    5.1746   -2.8906    0.0468 C   0  0  1  0  0  0  0  0  0  0  0  0
    4.8078   -2.8092    2.0435 C   0  0  1  0  0  0  0  0  0  0  0  0
    4.9716   -2.1287    5.9514 H   0  0  0  0  0  0  0  0  0  0  0  0
    5.8236   -2.7822    4.5534 H   0  0  0  0  0  0  0  0  0  0  0  0
    4.4448   -3.6464    5.2214 H   0  0  0  0  0  0  0  0  0  0  0  0
    2.7365   -4.0082    4.0512 H   0  0  0  0  0  0  0  0  0  0  0  0
    1.5822   -3.1900    3.0718 H   0  0  0  0  0  0  0  0  0  0  0  0
    2.4224   -5.7120    2.6331 H   0  0  0  0  0  0  0  0  0  0  0  0
    1.8459   -4.7189    1.3312 H   0  0  0  0  0  0  0  0  0  0  0  0
    4.7475   -5.4078    1.9620 H   0  0  0  0  0  0  0  0  0  0  0  0
    3.4310   -5.7647   -0.4496 H   0  0  0  0  0  0  0  0  0  0  0  0
    1.8597   -4.1909   -1.0163 H   0  0  0  0  0  0  0  0  0  0  0  0
    1.5347   -3.0827   -3.2049 H   0  0  0  0  0  0  0  0  0  0  0  0
    2.2392   -1.2950   -4.4152 H   0  0  0  0  0  0  0  0  0  0  0  0
    6.9862   -3.8068   -0.8649 H   0  0  0  0  0  0  0  0  0  0  0  0
    7.9012   -1.5851    0.4603 H   0  0  0  0  0  0  0  0  0  0  0  0
    6.5548   -1.3560    2.7862 H   0  0  0  0  0  0  0  0  0  0  0  0
    6.1832    0.2515    0.8721 H   0  0  0  0  0  0  0  0  0  0  0  0
    3.1928    0.1928    0.4987 H   0  0  0  0  0  0  0  0  0  0  0  0
    2.6023   -1.4075    0.0749 H   0  0  0  0  0  0  0  0  0  0  0  0
    1.9924   -0.9682    2.3045 H   0  0  0  0  0  0  0  0  0  0  0  0
    3.5042   -0.2134    2.6475 H   0  0  0  0  0  0  0  0  0  0  0  0
    5.8163   -0.3194   -1.6722 H   0  0  0  0  0  0  0  0  0  0  0  0
    4.2037    0.0523   -1.7082 H   0  0  0  0  0  0  0  0  0  0  0  0
    5.8474   -3.6617    0.5440 H   0  0  0  0  0  0  0  0  0  0  0  0
    5.2849   -3.5732    2.6612 H   0  0  0  0  0  0  0  0  0  0  0  0
  1  2  1  0
  1 26  1  0
  1 27  1  0
  1 28  1  0
  3  2  1  1
  3 22  1  0
  3 25  1  0
  3  4  1  0
  4  5  1  0
  4 29  1  0
  4 30  1  0
  5  6  1  0
  5 31  1  0
  5 32  1  0
  6  7  1  0
  6  8  1  0
  6 33  1  1
  7 34  1  0
  8 24  1  0
  8 25  1  0
  8  9  1  6
  9 15  2  0
  9 10  1  0
 10 11  2  0
 10 35  1  0
 11 12  1  0
 11 36  1  0
 12 13  1  0
 12 14  2  0
 13 37  1  0
 14 23  1  0
 14 15  1  0
 15 16  1  0
 16 24  1  0
 16 17  1  0
 16 38  1  1
 17 19  1  0
 17 18  1  0
 17 39  1  1
 18 19  1  0
 18 25  1  0
 18 40  1  1
 19 20  1  0
 19 41  1  1
 20 21  1  0
 20 23  1  6
 20 24  1  0
 21 22  1  0
 21 42  1  0
 21 43  1  0
 22 44  1  0
 22 45  1  0
 23 46  1  0
 23 47  1  0
 24 48  1  1
 25 49  1  1
M  END
>  <i_m_ct_stereo_status>  (28) 
1

>  <s_m_source_file>  (28) 
/var/tmp/pbs.5076255.sched01/tmp0du1nuht/0914ajmtz.sdf

>  <i_m_source_file_index>  (28) 
12

>  <i_lp_mmshare_version>  (28) 
48012

>  <i_f3d_flags>  (28) 
0

>  <s_epik_input>  (28) 
W09IXVtDQEBIXTFbQ0gyXVtDSDJdW0NAXShPW0NIM10pKFtDSDJdW0NIMl0yKVtDQEBIXTNbQ0BIXTRbQ0BASF0oW0NASF01W0NASF02NylbQ0BIXTRbQ0BdMjdbQ0gyXWMoYzVjOFtDQF0xMzYpYyhbT0hdKVtjSF1bY0hdOA==

>  <s_epik_cmdline>  (28) 
J2VwaWtfcHl0aG9uJywgJy1waHQnLCAnMi4wJywgJy1waCcsICc3LjAnLCAnLXRuJywgJzgnLCAnLW1hJywgJzIwMCcsICctaW1hZScsICc8aW5maWxlLm1hZT4nLCAnLW9tYWUnLCAnPG91dGZpbGUubWFlPic=

>  <r_lp_tautomer_probability>  (28) 
1

>  <r_epik_Ionization_Penalty>  (28) 
4.10687e-06

>  <r_epik_Ionization_Penalty_Charging>  (28) 
0

>  <r_epik_Ionization_Penalty_Neutral>  (28) 
4.10687e-06

>  <r_epik_State_Penalty>  (28) 
-0

>  <r_epik_Charging_Adjusted_Penalty>  (28) 
0

>  <i_epik_Tot_Q>  (28) 
0

>  <i_epik_Tot_abs_Q>  (28) 
0

>  <s_lp_Force_Field>  (28) 
OPLS3e

>  <r_lp_Energy>  (28) 
479.219

>  <b_lp_Chiralities_Consistent>  (28) 
1

>  <s_lp_Variant>  (28) 
9:0-1

>  <s_i_glide_gridfile>  (28) 
pfpi4k_grid

>  <i_i_glide_lignum>  (28) 
12

>  <i_i_glide_rotatable_bonds>  (28) 
3

>  <r_i_docking_score>  (28) 
-3.42305

>  <r_i_glide_ligand_efficiency>  (28) 
-0.136922

>  <r_i_glide_ligand_efficiency_sa>  (28) 
-0.400363

>  <r_i_glide_ligand_efficiency_ln>  (28) 
-0.811367

>  <r_i_glide_gscore>  (28) 
-3.42305

>  <r_i_glide_lipo>  (28) 
-0.595573

>  <r_i_glide_hbond>  (28) 
-0.163795

>  <r_i_glide_metal>  (28) 
-0

>  <r_i_glide_rewards>  (28) 
-1.11529

>  <r_i_glide_evdw>  (28) 
-21.2305

>  <r_i_glide_ecoul>  (28) 
-3.2458

>  <r_i_glide_erotb>  (28) 
0

>  <r_i_glide_esite>  (28) 
0

>  <r_i_glide_emodel>  (28) 
-24.2201

>  <r_i_glide_energy>  (28) 
-24.4763

>  <r_i_glide_einternal>  (28) 
6.82929

>  <r_i_glide_intrahb_reward>  (28) 
-0

>  <i_i_glide_confnum>  (28) 
1

>  <i_i_glide_posenum>  (28) 
38

>  <r_i_glide_eff_state_penalty>  (28) 
0

>  <ligand_id>  (28) 
9

>  <original_smiles>  (28) 
COC12CCC(O)C34c5ccc(O)c6c5C5C7C(C7C(CC1)(C6)C53)C24

>  <smiles>  (28) 
[H]Oc1c([H])c([H])c2c3c1C([H])([H])C14C([H])([H])C([H])([H])C5(OC([H])([H])[H])C([H])([H])C([H])([H])C([H])(O[H])C26C5([H])C2([H])C([H])(C3([H])C61[H])C24[H]

$$$$
9:0:1
     RDKit          3D

 49 56  0  0  1  0  0  0  0  0999 V2000
    4.3973   -0.0239    4.4779 C   0  0  0  0  0  0  0  0  0  0  0  0
    4.1496   -1.4269    4.3019 O   0  0  0  0  0  0  0  0  0  0  0  0
    3.7285   -1.9469    3.0241 C   0  0  1  0  0  0  0  0  0  0  0  0
    2.8579   -3.2180    3.4135 C   0  0  0  0  0  0  0  0  0  0  0  0
    2.8923   -4.5614    2.5652 C   0  0  0  0  0  0  0  0  0  0  0  0
    4.1870   -4.8643    1.7548 C   0  0  1  0  0  0  0  0  0  0  0  0
    3.9904   -5.9975    0.9220 O   0  0  0  0  0  0  0  0  0  0  0  0
    4.3242   -3.5210    1.0371 C   0  0  1  0  0  0  0  0  0  0  0  0
    3.9888   -3.6207   -0.5122 C   0  0  0  0  0  0  0  0  0  0  0  0
    2.7179   -3.7968   -1.0906 C   0  0  0  0  0  0  0  0  0  0  0  0
    2.4595   -3.2126   -2.3385 C   0  0  0  0  0  0  0  0  0  0  0  0
    3.3757   -2.2967   -2.8960 C   0  0  0  0  0  0  0  0  0  0  0  0
    2.9935   -1.4939   -3.9292 O   0  0  0  0  0  0  0  0  0  0  0  0
    4.6445   -2.1026   -2.2914 C   0  0  0  0  0  0  0  0  0  0  0  0
    5.0432   -3.0808   -1.3568 C   0  0  0  0  0  0  0  0  0  0  0  0
    6.3811   -2.8519   -0.5631 C   0  0  2  0  0  0  0  0  0  0  0  0
    6.9048   -1.6476    0.4726 C   0  0  2  0  0  0  0  0  0  0  0  0
    6.1937   -1.4500    1.9667 C   0  0  1  0  0  0  0  0  0  0  0  0
    5.9054   -0.5979    0.8032 C   0  0  2  0  0  0  0  0  0  0  0  0
    4.7820   -1.1580    0.1076 C   0  0  1  0  0  0  0  0  0  0  0  0
    3.3452   -0.8079    0.6458 C   0  0  0  0  0  0  0  0  0  0  0  0
    3.0778   -0.8130    2.1644 C   0  0  0  0  0  0  0  0  0  0  0  0
    4.8606   -0.8243   -1.4527 C   0  0  0  0  0  0  0  0  0  0  0  0
    5.2535   -2.7835    0.2806 C   0  0  1  0  0  0  0  0  0  0  0  0
    4.9374   -2.4885    2.2806 C   0  0  1  0  0  0  0  0  0  0  0  0
    4.8108    0.1903    5.4293 H   0  0  0  0  0  0  0  0  0  0  0  0
    3.4459    0.5378    4.3696 H   0  0  0  0  0  0  0  0  0  0  0  0
    5.0857    0.3758    3.7084 H   0  0  0  0  0  0  0  0  0  0  0  0
    3.1622   -3.5085    4.4245 H   0  0  0  0  0  0  0  0  0  0  0  0
    1.8175   -2.9074    3.5238 H   0  0  0  0  0  0  0  0  0  0  0  0
    2.6804   -5.3983    3.2338 H   0  0  0  0  0  0  0  0  0  0  0  0
    2.0472   -4.5606    1.8722 H   0  0  0  0  0  0  0  0  0  0  0  0
    5.0070   -5.0878    2.4409 H   0  0  0  0  0  0  0  0  0  0  0  0
    3.9269   -6.7687    1.4630 H   0  0  0  0  0  0  0  0  0  0  0  0
    1.9539   -4.3366   -0.5604 H   0  0  0  0  0  0  0  0  0  0  0  0
    1.5052   -3.3757   -2.7926 H   0  0  0  0  0  0  0  0  0  0  0  0
    2.0916   -1.6515   -4.1619 H   0  0  0  0  0  0  0  0  0  0  0  0
    7.0344   -3.7347   -0.6181 H   0  0  0  0  0  0  0  0  0  0  0  0
    7.9619   -1.3707    0.4247 H   0  0  0  0  0  0  0  0  0  0  0  0
    6.7165   -0.9448    2.7929 H   0  0  0  0  0  0  0  0  0  0  0  0
    6.1871    0.4581    0.7678 H   0  0  0  0  0  0  0  0  0  0  0  0
    3.1691    0.2281    0.4059 H   0  0  0  0  0  0  0  0  0  0  0  0
    2.6128   -1.3985    0.0965 H   0  0  0  0  0  0  0  0  0  0  0  0
    1.9961   -0.7492    2.3388 H   0  0  0  0  0  0  0  0  0  0  0  0
    3.4859    0.1478    2.4676 H   0  0  0  0  0  0  0  0  0  0  0  0
    5.8331   -0.4048   -1.7244 H   0  0  0  0  0  0  0  0  0  0  0  0
    4.1882   -0.0172   -1.7401 H   0  0  0  0  0  0  0  0  0  0  0  0
    5.9631   -3.4705    0.8325 H   0  0  0  0  0  0  0  0  0  0  0  0
    5.3991   -3.1323    3.0296 H   0  0  0  0  0  0  0  0  0  0  0  0
  1  2  1  0
  1 26  1  0
  1 27  1  0
  1 28  1  0
  3  2  1  1
  3 22  1  0
  3 25  1  0
  3  4  1  0
  4  5  1  0
  4 29  1  0
  4 30  1  0
  5  6  1  0
  5 31  1  0
  5 32  1  0
  6  7  1  0
  6  8  1  0
  6 33  1  1
  7 34  1  0
  8 24  1  0
  8 25  1  0
  8  9  1  6
  9 15  2  0
  9 10  1  0
 10 11  2  0
 10 35  1  0
 11 12  1  0
 11 36  1  0
 12 13  1  0
 12 14  2  0
 13 37  1  0
 14 23  1  0
 14 15  1  0
 15 16  1  0
 16 24  1  0
 16 17  1  0
 16 38  1  1
 17 19  1  0
 17 18  1  0
 17 39  1  1
 18 19  1  0
 18 25  1  0
 18 40  1  1
 19 20  1  0
 19 41  1  1
 20 21  1  0
 20 23  1  6
 20 24  1  0
 21 22  1  0
 21 42  1  0
 21 43  1  0
 22 44  1  0
 22 45  1  0
 23 46  1  0
 23 47  1  0
 24 48  1  1
 25 49  1  1
M  END
>  <i_m_ct_stereo_status>  (29) 
1

>  <s_m_source_file>  (29) 
/var/tmp/pbs.5076255.sched01/tmp0du1nuht/0914ajmtz.sdf

>  <i_m_source_file_index>  (29) 
12

>  <i_lp_mmshare_version>  (29) 
48012

>  <i_f3d_flags>  (29) 
0

>  <s_epik_input>  (29) 
W09IXVtDQEBIXTFbQ0gyXVtDSDJdW0NAXShPW0NIM10pKFtDSDJdW0NIMl0yKVtDQEBIXTNbQ0BIXTRbQ0BASF0oW0NASF01W0NASF02NylbQ0BIXTRbQ0BdMjdbQ0gyXWMoYzVjOFtDQF0xMzYpYyhbT0hdKVtjSF1bY0hdOA==

>  <s_epik_cmdline>  (29) 
J2VwaWtfcHl0aG9uJywgJy1waHQnLCAnMi4wJywgJy1waCcsICc3LjAnLCAnLXRuJywgJzgnLCAnLW1hJywgJzIwMCcsICctaW1hZScsICc8aW5maWxlLm1hZT4nLCAnLW9tYWUnLCAnPG91dGZpbGUubWFlPic=

>  <r_lp_tautomer_probability>  (29) 
1

>  <r_epik_Ionization_Penalty>  (29) 
4.10687e-06

>  <r_epik_Ionization_Penalty_Charging>  (29) 
0

>  <r_epik_Ionization_Penalty_Neutral>  (29) 
4.10687e-06

>  <r_epik_State_Penalty>  (29) 
-0

>  <r_epik_Charging_Adjusted_Penalty>  (29) 
0

>  <i_epik_Tot_Q>  (29) 
0

>  <i_epik_Tot_abs_Q>  (29) 
0

>  <s_lp_Force_Field>  (29) 
OPLS3e

>  <r_lp_Energy>  (29) 
479.219

>  <b_lp_Chiralities_Consistent>  (29) 
1

>  <s_lp_Variant>  (29) 
9:0-1

>  <s_i_glide_gridfile>  (29) 
pfpi4k_grid

>  <i_i_glide_lignum>  (29) 
12

>  <i_i_glide_rotatable_bonds>  (29) 
3

>  <r_i_docking_score>  (29) 
-2.87252

>  <r_i_glide_ligand_efficiency>  (29) 
-0.114901

>  <r_i_glide_ligand_efficiency_sa>  (29) 
-0.335972

>  <r_i_glide_ligand_efficiency_ln>  (29) 
-0.680873

>  <r_i_glide_gscore>  (29) 
-2.87252

>  <r_i_glide_lipo>  (29) 
-0.585571

>  <r_i_glide_hbond>  (29) 
0

>  <r_i_glide_metal>  (29) 
-0

>  <r_i_glide_rewards>  (29) 
-1.11529

>  <r_i_glide_evdw>  (29) 
-20.7425

>  <r_i_glide_ecoul>  (29) 
-0.896887

>  <r_i_glide_erotb>  (29) 
0

>  <r_i_glide_esite>  (29) 
0

>  <r_i_glide_emodel>  (29) 
-8.49602

>  <r_i_glide_energy>  (29) 
-21.6394

>  <r_i_glide_einternal>  (29) 
30.5638

>  <r_i_glide_intrahb_reward>  (29) 
-0

>  <i_i_glide_confnum>  (29) 
1

>  <i_i_glide_posenum>  (29) 
35

>  <r_i_glide_eff_state_penalty>  (29) 
0

>  <ligand_id>  (29) 
9

>  <original_smiles>  (29) 
COC12CCC(O)C34c5ccc(O)c6c5C5C7C(C7C(CC1)(C6)C53)C24

>  <smiles>  (29) 
[H]Oc1c([H])c([H])c2c3c1C([H])([H])C14C([H])([H])C([H])([H])C5(OC([H])([H])[H])C([H])([H])C([H])([H])C([H])(O[H])C26C5([H])C2([H])C([H])(C3([H])C61[H])C24[H]

$$$$
9:0:2
     RDKit          3D

 49 56  0  0  1  0  0  0  0  0999 V2000
    4.8686   -1.0452    5.7368 C   0  0  0  0  0  0  0  0  0  0  0  0
    3.9593   -0.5886    4.7282 O   0  0  0  0  0  0  0  0  0  0  0  0
    3.5709   -1.4600    3.6502 C   0  0  1  0  0  0  0  0  0  0  0  0
    2.6664   -2.6233    4.2444 C   0  0  0  0  0  0  0  0  0  0  0  0
    2.7773   -4.0983    3.6820 C   0  0  0  0  0  0  0  0  0  0  0  0
    4.0881   -4.4953    2.9474 C   0  0  1  0  0  0  0  0  0  0  0  0
    3.9792   -5.7843    2.3915 O   0  0  0  0  0  0  0  0  0  0  0  0
    4.1687   -3.3370    1.9557 C   0  0  1  0  0  0  0  0  0  0  0  0
    3.8631   -3.7777    0.4655 C   0  0  0  0  0  0  0  0  0  0  0  0
    2.6151   -4.1329   -0.0332 C   0  0  0  0  0  0  0  0  0  0  0  0
    2.3087   -3.7952   -1.3589 C   0  0  0  0  0  0  0  0  0  0  0  0
    3.1729   -2.9596   -2.0932 C   0  0  0  0  0  0  0  0  0  0  0  0
    2.6967   -2.3739   -3.2317 O   0  0  0  0  0  0  0  0  0  0  0  0
    4.4429   -2.5703   -1.5775 C   0  0  0  0  0  0  0  0  0  0  0  0
    4.8883   -3.3325   -0.4828 C   0  0  0  0  0  0  0  0  0  0  0  0
    6.2090   -2.8935    0.2381 C   0  0  2  0  0  0  0  0  0  0  0  0
    6.6837   -1.4862    1.0048 C   0  0  2  0  0  0  0  0  0  0  0  0
    5.9608   -1.0350    2.4241 C   0  0  1  0  0  0  0  0  0  0  0  0
    5.6560   -0.4414    1.1197 C   0  0  2  0  0  0  0  0  0  0  0  0
    4.5527   -1.1603    0.5729 C   0  0  1  0  0  0  0  0  0  0  0  0
    3.1407   -0.7193    1.0932 C   0  0  0  0  0  0  0  0  0  0  0  0
    2.9157   -0.4756    2.6205 C   0  0  0  0  0  0  0  0  0  0  0  0
    4.5951   -1.1415   -1.0162 C   0  0  0  0  0  0  0  0  0  0  0  0
    5.0732   -2.7104    1.0647 C   0  0  1  0  0  0  0  0  0  0  0  0
    4.7676   -2.0642    2.9493 C   0  0  1  0  0  0  0  0  0  0  0  0
    5.0231   -0.2535    6.4728 H   0  0  0  0  0  0  0  0  0  0  0  0
    5.8491   -1.2802    5.3312 H   0  0  0  0  0  0  0  0  0  0  0  0
    4.5233   -1.9198    6.2861 H   0  0  0  0  0  0  0  0  0  0  0  0
    2.8673   -2.7357    5.3113 H   0  0  0  0  0  0  0  0  0  0  0  0
    1.6244   -2.3055    4.2422 H   0  0  0  0  0  0  0  0  0  0  0  0
    2.6272   -4.7809    4.5186 H   0  0  0  0  0  0  0  0  0  0  0  0
    1.9301   -4.2767    3.0153 H   0  0  0  0  0  0  0  0  0  0  0  0
    4.9118   -4.5523    3.6560 H   0  0  0  0  0  0  0  0  0  0  0  0
    3.3044   -5.7604    1.7298 H   0  0  0  0  0  0  0  0  0  0  0  0
    1.8703   -4.5522    0.6142 H   0  0  0  0  0  0  0  0  0  0  0  0
    1.3478   -4.0622   -1.7752 H   0  0  0  0  0  0  0  0  0  0  0  0
    3.1251   -1.5467   -3.4091 H   0  0  0  0  0  0  0  0  0  0  0  0
    6.9022   -3.7429    0.3631 H   0  0  0  0  0  0  0  0  0  0  0  0
    7.7206   -1.1860    0.8893 H   0  0  0  0  0  0  0  0  0  0  0  0
    6.5079   -0.4341    3.1438 H   0  0  0  0  0  0  0  0  0  0  0  0
    5.8877    0.5772    0.8494 H   0  0  0  0  0  0  0  0  0  0  0  0
    2.8619    0.1974    0.5747 H   0  0  0  0  0  0  0  0  0  0  0  0
    2.4202   -1.4552    0.7556 H   0  0  0  0  0  0  0  0  0  0  0  0
    1.8442   -0.3754    2.7968 H   0  0  0  0  0  0  0  0  0  0  0  0
    3.3067    0.5294    2.8077 H   0  0  0  0  0  0  0  0  0  0  0  0
    5.5475   -0.7498   -1.3747 H   0  0  0  0  0  0  0  0  0  0  0  0
    3.8239   -0.4942   -1.4194 H   0  0  0  0  0  0  0  0  0  0  0  0
    5.8363   -3.2486    1.7234 H   0  0  0  0  0  0  0  0  0  0  0  0
    5.3139   -2.5860    3.7329 H   0  0  0  0  0  0  0  0  0  0  0  0
  1  2  1  0
  1 26  1  0
  1 27  1  0
  1 28  1  0
  3  2  1  1
  3 22  1  0
  3 25  1  0
  3  4  1  0
  4  5  1  0
  4 29  1  0
  4 30  1  0
  5  6  1  0
  5 31  1  0
  5 32  1  0
  6  7  1  0
  6  8  1  0
  6 33  1  1
  7 34  1  0
  8 24  1  0
  8 25  1  0
  8  9  1  6
  9 15  2  0
  9 10  1  0
 10 11  2  0
 10 35  1  0
 11 12  1  0
 11 36  1  0
 12 13  1  0
 12 14  2  0
 13 37  1  0
 14 23  1  0
 14 15  1  0
 15 16  1  0
 16 24  1  0
 16 17  1  0
 16 38  1  1
 17 19  1  0
 17 18  1  0
 17 39  1  1
 18 19  1  0
 18 25  1  0
 18 40  1  1
 19 20  1  0
 19 41  1  1
 20 21  1  0
 20 23  1  6
 20 24  1  0
 21 22  1  0
 21 42  1  0
 21 43  1  0
 22 44  1  0
 22 45  1  0
 23 46  1  0
 23 47  1  0
 24 48  1  1
 25 49  1  1
M  END
>  <i_m_ct_stereo_status>  (30) 
1

>  <s_m_source_file>  (30) 
/var/tmp/pbs.5076255.sched01/tmp0du1nuht/0914ajmtz.sdf

>  <i_m_source_file_index>  (30) 
12

>  <i_lp_mmshare_version>  (30) 
48012

>  <i_f3d_flags>  (30) 
0

>  <s_epik_input>  (30) 
W09IXVtDQEBIXTFbQ0gyXVtDSDJdW0NAXShPW0NIM10pKFtDSDJdW0NIMl0yKVtDQEBIXTNbQ0BIXTRbQ0BASF0oW0NASF01W0NASF02NylbQ0BIXTRbQ0BdMjdbQ0gyXWMoYzVjOFtDQF0xMzYpYyhbT0hdKVtjSF1bY0hdOA==

>  <s_epik_cmdline>  (30) 
J2VwaWtfcHl0aG9uJywgJy1waHQnLCAnMi4wJywgJy1waCcsICc3LjAnLCAnLXRuJywgJzgnLCAnLW1hJywgJzIwMCcsICctaW1hZScsICc8aW5maWxlLm1hZT4nLCAnLW9tYWUnLCAnPG91dGZpbGUubWFlPic=

>  <r_lp_tautomer_probability>  (30) 
1

>  <r_epik_Ionization_Penalty>  (30) 
4.10687e-06

>  <r_epik_Ionization_Penalty_Charging>  (30) 
0

>  <r_epik_Ionization_Penalty_Neutral>  (30) 
4.10687e-06

>  <r_epik_State_Penalty>  (30) 
-0

>  <r_epik_Charging_Adjusted_Penalty>  (30) 
0

>  <i_epik_Tot_Q>  (30) 
0

>  <i_epik_Tot_abs_Q>  (30) 
0

>  <s_lp_Force_Field>  (30) 
OPLS3e

>  <r_lp_Energy>  (30) 
479.219

>  <b_lp_Chiralities_Consistent>  (30) 
1

>  <s_lp_Variant>  (30) 
9:0-1

>  <s_i_glide_gridfile>  (30) 
pfpi4k_grid

>  <i_i_glide_lignum>  (30) 
12

>  <i_i_glide_rotatable_bonds>  (30) 
3

>  <r_i_docking_score>  (30) 
-2.28661

>  <r_i_glide_ligand_efficiency>  (30) 
-0.0914645

>  <r_i_glide_ligand_efficiency_sa>  (30) 
-0.267444

>  <r_i_glide_ligand_efficiency_ln>  (30) 
-0.541995

>  <r_i_glide_gscore>  (30) 
-2.28661

>  <r_i_glide_lipo>  (30) 
-0.465995

>  <r_i_glide_hbond>  (30) 
0

>  <r_i_glide_metal>  (30) 
-0

>  <r_i_glide_rewards>  (30) 
-1.11529

>  <r_i_glide_evdw>  (30) 
-18.7025

>  <r_i_glide_ecoul>  (30) 
1.53199

>  <r_i_glide_erotb>  (30) 
0

>  <r_i_glide_esite>  (30) 
0

>  <r_i_glide_emodel>  (30) 
-15.7071

>  <r_i_glide_energy>  (30) 
-17.1705

>  <r_i_glide_einternal>  (30) 
6.93617

>  <r_i_glide_intrahb_reward>  (30) 
-0

>  <i_i_glide_confnum>  (30) 
1

>  <i_i_glide_posenum>  (30) 
39

>  <r_i_glide_eff_state_penalty>  (30) 
0

>  <ligand_id>  (30) 
9

>  <original_smiles>  (30) 
COC12CCC(O)C34c5ccc(O)c6c5C5C7C(C7C(CC1)(C6)C53)C24

>  <smiles>  (30) 
[H]Oc1c([H])c([H])c2c3c1C([H])([H])C14C([H])([H])C([H])([H])C5(OC([H])([H])[H])C([H])([H])C([H])([H])C([H])(O[H])C26C5([H])C2([H])C([H])(C3([H])C61[H])C24[H]

$$$$
10:0:0
     RDKit          3D

 51 54  0  0  1  0  0  0  0  0999 V2000
    8.0729   -1.7351    0.4594 C   0  0  0  0  0  0  0  0  0  0  0  0
    7.0249   -2.3299   -0.2962 O   0  0  0  0  0  0  0  0  0  0  0  0
    6.1490   -3.1531    0.4849 C   0  0  2  0  0  0  0  0  0  0  0  0
    5.4173   -4.2135   -0.4662 C   0  0  1  0  0  0  0  0  0  0  0  0
    4.3414   -5.2128    0.0977 C   0  0  1  0  0  0  0  0  0  0  0  0
    4.7042   -5.7118    1.4779 C   0  0  0  0  0  0  0  0  0  0  0  0
    4.2924   -4.6904    2.5036 C   0  0  1  0  0  0  0  0  0  0  0  0
    5.1394   -4.8227    3.7812 C   0  0  0  0  0  0  0  0  0  0  0  0
    4.1951   -3.2322    1.9800 C   0  0  1  0  0  0  0  0  0  0  0  0
    5.4110   -2.4230    1.6943 C   0  0  2  0  0  0  0  0  0  0  0  0
    4.6764   -1.0281    1.5854 C   0  0  1  0  0  0  0  0  0  0  0  0
    4.8316   -0.1965    2.8712 C   0  0  0  0  0  0  0  0  0  0  0  0
    5.2571   -0.2571    0.5729 O   0  0  0  0  0  0  0  0  0  0  0  0
    3.1567   -1.3440    1.2892 C   0  0  0  0  0  0  0  0  0  0  0  0
    3.3065   -2.7754    0.7811 C   0  0  2  0  0  0  0  0  0  0  0  0
    2.3161   -3.7689    0.7175 O   0  0  0  0  0  0  0  0  0  0  0  0
    2.9091   -4.9763   -0.0835 O   0  0  0  0  0  0  0  0  0  0  0  0
    3.7090   -2.1938   -0.4875 O   0  0  0  0  0  0  0  0  0  0  0  0
    3.8415   -2.7051   -1.7994 C   0  0  0  0  0  0  0  0  0  0  0  0
    2.4970   -3.1651   -2.4099 C   0  0  0  0  0  0  0  0  0  0  0  0
    4.2361   -1.4197   -2.5657 C   0  0  0  0  0  0  0  0  0  0  0  0
    4.9639   -3.7649   -1.8586 C   0  0  1  0  0  0  0  0  0  0  0  0
    6.0682   -3.3940   -2.6485 O   0  0  0  0  0  0  0  0  0  0  0  0
    8.6845   -1.1068   -0.1801 H   0  0  0  0  0  0  0  0  0  0  0  0
    8.7259   -2.4982    0.8832 H   0  0  0  0  0  0  0  0  0  0  0  0
    7.6932   -1.0970    1.2585 H   0  0  0  0  0  0  0  0  0  0  0  0
    6.8414   -3.8169    1.0129 H   0  0  0  0  0  0  0  0  0  0  0  0
    6.2278   -4.9009   -0.6921 H   0  0  0  0  0  0  0  0  0  0  0  0
    4.4649   -6.0924   -0.5183 H   0  0  0  0  0  0  0  0  0  0  0  0
    4.2187   -6.6683    1.6901 H   0  0  0  0  0  0  0  0  0  0  0  0
    5.7769   -5.9036    1.5255 H   0  0  0  0  0  0  0  0  0  0  0  0
    3.2733   -4.9616    2.7886 H   0  0  0  0  0  0  0  0  0  0  0  0
    6.1881   -4.5943    3.5914 H   0  0  0  0  0  0  0  0  0  0  0  0
    5.0989   -5.8380    4.1738 H   0  0  0  0  0  0  0  0  0  0  0  0
    4.7858   -4.1529    4.5691 H   0  0  0  0  0  0  0  0  0  0  0  0
    3.7639   -2.8298    2.9047 H   0  0  0  0  0  0  0  0  0  0  0  0
    6.0817   -2.4030    2.5509 H   0  0  0  0  0  0  0  0  0  0  0  0
    4.4569   -0.7173    3.7509 H   0  0  0  0  0  0  0  0  0  0  0  0
    4.2857    0.7459    2.8139 H   0  0  0  0  0  0  0  0  0  0  0  0
    5.8801    0.0376    3.0603 H   0  0  0  0  0  0  0  0  0  0  0  0
    4.7498    0.5398    0.4535 H   0  0  0  0  0  0  0  0  0  0  0  0
    2.5389   -1.2942    2.1931 H   0  0  0  0  0  0  0  0  0  0  0  0
    2.6812   -0.6355    0.5959 H   0  0  0  0  0  0  0  0  0  0  0  0
    2.5408   -3.1944   -3.4990 H   0  0  0  0  0  0  0  0  0  0  0  0
    1.7129   -2.4672   -2.1519 H   0  0  0  0  0  0  0  0  0  0  0  0
    2.1611   -4.1391   -2.0807 H   0  0  0  0  0  0  0  0  0  0  0  0
    4.3680   -1.5970   -3.6332 H   0  0  0  0  0  0  0  0  0  0  0  0
    5.1610   -0.9887   -2.1867 H   0  0  0  0  0  0  0  0  0  0  0  0
    3.4659   -0.6565   -2.4596 H   0  0  0  0  0  0  0  0  0  0  0  0
    4.5910   -4.6394   -2.4012 H   0  0  0  0  0  0  0  0  0  0  0  0
    6.6400   -2.8607   -2.0923 H   0  0  0  0  0  0  0  0  0  0  0  0
  1  2  1  0
  1 24  1  0
  1 25  1  0
  1 26  1  0
  2  3  1  0
  3 10  1  0
  3  4  1  0
  3 27  1  1
  4 22  1  0
  4  5  1  0
  4 28  1  6
  5 17  1  0
  5  6  1  0
  5 29  1  6
  6  7  1  0
  6 30  1  0
  6 31  1  0
  7  8  1  0
  7  9  1  0
  7 32  1  1
  8 33  1  0
  8 34  1  0
  8 35  1  0
  9 15  1  0
  9 10  1  0
  9 36  1  1
 10 11  1  0
 10 37  1  1
 11 12  1  0
 11 13  1  6
 11 14  1  0
 12 38  1  0
 12 39  1  0
 12 40  1  0
 13 41  1  0
 15 14  1  1
 14 42  1  0
 14 43  1  0
 15 16  1  0
 15 18  1  0
 16 17  1  0
 18 19  1  0
 19 20  1  0
 19 21  1  0
 19 22  1  0
 20 44  1  0
 20 45  1  0
 20 46  1  0
 21 47  1  0
 21 48  1  0
 21 49  1  0
 22 23  1  0
 22 50  1  6
 23 51  1  0
M  END
>  <i_m_ct_stereo_status>  (31) 
1

>  <s_m_source_file>  (31) 
/var/tmp/pbs.5076255.sched01/tmp0du1nuht/0914ajmtz.sdf

>  <i_m_source_file_index>  (31) 
13

>  <i_lp_mmshare_version>  (31) 
48012

>  <i_f3d_flags>  (31) 
0

>  <s_epik_input>  (31) 
W0NIM11bQ0BdKFtPSF0pKFtDSDJdMSlbQ0BASF0oW0NASF0yW0NAXTEzNClbQ0BIXShPW0NIM10pW0NASF0oW0NASF0oW09IXSlDKE80KShbQ0gzXSlbQ0gzXSlbQ0BIXShPTzMpW0NIMl1bQ0BIXTJbQ0gzXQ==

>  <s_epik_cmdline>  (31) 
J2VwaWtfcHl0aG9uJywgJy1waHQnLCAnMi4wJywgJy1waCcsICc3LjAnLCAnLXRuJywgJzgnLCAnLW1hJywgJzIwMCcsICctaW1hZScsICc8aW5maWxlLm1hZT4nLCAnLW9tYWUnLCAnPG91dGZpbGUubWFlPic=

>  <r_lp_tautomer_probability>  (31) 
1

>  <r_epik_Ionization_Penalty>  (31) 
1.10706e-07

>  <r_epik_Ionization_Penalty_Charging>  (31) 
0

>  <r_epik_Ionization_Penalty_Neutral>  (31) 
1.10706e-07

>  <r_epik_State_Penalty>  (31) 
-0

>  <r_epik_Charging_Adjusted_Penalty>  (31) 
0

>  <i_epik_Tot_Q>  (31) 
0

>  <i_epik_Tot_abs_Q>  (31) 
0

>  <s_lp_Force_Field>  (31) 
OPLS3e

>  <r_lp_Energy>  (31) 
116.789

>  <b_lp_Chiralities_Consistent>  (31) 
1

>  <s_lp_Variant>  (31) 
10:0-1

>  <s_i_glide_gridfile>  (31) 
pfpi4k_grid

>  <i_i_glide_lignum>  (31) 
13

>  <i_i_glide_rotatable_bonds>  (31) 
3

>  <r_i_docking_score>  (31) 
-3.42024

>  <r_i_glide_ligand_efficiency>  (31) 
-0.148706

>  <r_i_glide_ligand_efficiency_sa>  (31) 
-0.4229

>  <r_i_glide_ligand_efficiency_ln>  (31) 
-0.827045

>  <r_i_glide_gscore>  (31) 
-3.42024

>  <r_i_glide_lipo>  (31) 
-0.495817

>  <r_i_glide_hbond>  (31) 
-0.042727

>  <r_i_glide_metal>  (31) 
-0

>  <r_i_glide_rewards>  (31) 
-1.67

>  <r_i_glide_evdw>  (31) 
-18.9477

>  <r_i_glide_ecoul>  (31) 
-1.63355

>  <r_i_glide_erotb>  (31) 
0

>  <r_i_glide_esite>  (31) 
-0.0192816

>  <r_i_glide_emodel>  (31) 
-30.7274

>  <r_i_glide_energy>  (31) 
-20.5813

>  <r_i_glide_einternal>  (31) 
0.327062

>  <r_i_glide_intrahb_reward>  (31) 
-0.5

>  <i_i_glide_confnum>  (31) 
1

>  <i_i_glide_posenum>  (31) 
40

>  <r_i_glide_eff_state_penalty>  (31) 
0

>  <ligand_id>  (31) 
10

>  <original_smiles>  (31) 
COC1C2C3CC(C)C4C1C(C)(O)CC4(OO3)OC(C)(C)C2O

>  <smiles>  (31) 
[H]OC1([H])C2([H])C3([H])OOC4(OC1(C([H])([H])[H])C([H])([H])[H])C([H])([H])C(O[H])(C([H])([H])[H])C([H])(C2([H])OC([H])([H])[H])C4([H])C([H])(C([H])([H])[H])C3([H])[H]

$$$$
10:0:1
     RDKit          3D

 51 54  0  0  1  0  0  0  0  0999 V2000
    8.2892   -2.5313   -0.1437 C   0  0  0  0  0  0  0  0  0  0  0  0
    6.9963   -2.0182    0.1351 O   0  0  0  0  0  0  0  0  0  0  0  0
    6.0706   -2.9508    0.6917 C   0  0  2  0  0  0  0  0  0  0  0  0
    5.4371   -3.9481   -0.4110 C   0  0  1  0  0  0  0  0  0  0  0  0
    4.2812   -4.9389   -0.0185 C   0  0  1  0  0  0  0  0  0  0  0  0
    4.4686   -5.5236    1.3584 C   0  0  0  0  0  0  0  0  0  0  0  0
    3.9560   -4.5462    2.3879 C   0  0  1  0  0  0  0  0  0  0  0  0
    4.6437   -4.7748    3.7463 C   0  0  0  0  0  0  0  0  0  0  0  0
    3.9593   -3.0495    1.9541 C   0  0  1  0  0  0  0  0  0  0  0  0
    5.2176   -2.2618    1.8437 C   0  0  2  0  0  0  0  0  0  0  0  0
    4.5224   -0.8340    1.7439 C   0  0  1  0  0  0  0  0  0  0  0  0
    4.5431   -0.0904    3.0915 C   0  0  0  0  0  0  0  0  0  0  0  0
    5.2290    0.0344    0.8823 O   0  0  0  0  0  0  0  0  0  0  0  0
    3.0348   -1.0887    1.2622 C   0  0  0  0  0  0  0  0  0  0  0  0
    3.2108   -2.4980    0.6865 C   0  0  2  0  0  0  0  0  0  0  0  0
    2.2352   -3.4586    0.4361 O   0  0  0  0  0  0  0  0  0  0  0  0
    2.8855   -4.6351   -0.3242 O   0  0  0  0  0  0  0  0  0  0  0  0
    3.7863   -1.8636   -0.4892 O   0  0  0  0  0  0  0  0  0  0  0  0
    4.0388   -2.3073   -1.8163 C   0  0  0  0  0  0  0  0  0  0  0  0
    2.7590   -2.6782   -2.5933 C   0  0  0  0  0  0  0  0  0  0  0  0
    4.5579   -0.9872   -2.4431 C   0  0  0  0  0  0  0  0  0  0  0  0
    5.1132   -3.4130   -1.8195 C   0  0  1  0  0  0  0  0  0  0  0  0
    6.2810   -3.0458   -2.5266 O   0  0  0  0  0  0  0  0  0  0  0  0
    8.8770   -1.7507   -0.6193 H   0  0  0  0  0  0  0  0  0  0  0  0
    8.2550   -3.3815   -0.8224 H   0  0  0  0  0  0  0  0  0  0  0  0
    8.8028   -2.8297    0.7687 H   0  0  0  0  0  0  0  0  0  0  0  0
    6.6778   -3.6324    1.2933 H   0  0  0  0  0  0  0  0  0  0  0  0
    6.2608   -4.6401   -0.5839 H   0  0  0  0  0  0  0  0  0  0  0  0
    4.4442   -5.7944   -0.6820 H   0  0  0  0  0  0  0  0  0  0  0  0
    3.9368   -6.4754    1.4505 H   0  0  0  0  0  0  0  0  0  0  0  0
    5.5259   -5.7468    1.5184 H   0  0  0  0  0  0  0  0  0  0  0  0
    2.9048   -4.8073    2.5321 H   0  0  0  0  0  0  0  0  0  0  0  0
    5.7110   -4.5508    3.6969 H   0  0  0  0  0  0  0  0  0  0  0  0
    4.5410   -5.8137    4.0628 H   0  0  0  0  0  0  0  0  0  0  0  0
    4.2046   -4.1485    4.5259 H   0  0  0  0  0  0  0  0  0  0  0  0
    3.4264   -2.6988    2.8425 H   0  0  0  0  0  0  0  0  0  0  0  0
    5.7875   -2.3087    2.7721 H   0  0  0  0  0  0  0  0  0  0  0  0
    4.0442   -0.6523    3.8815 H   0  0  0  0  0  0  0  0  0  0  0  0
    4.0476    0.8808    3.0228 H   0  0  0  0  0  0  0  0  0  0  0  0
    5.5695    0.0900    3.4195 H   0  0  0  0  0  0  0  0  0  0  0  0
    4.6641    0.7614    0.6553 H   0  0  0  0  0  0  0  0  0  0  0  0
    2.3203   -1.0897    2.0892 H   0  0  0  0  0  0  0  0  0  0  0  0
    2.6573   -0.3385    0.5564 H   0  0  0  0  0  0  0  0  0  0  0  0
    2.9305   -2.6165   -3.6705 H   0  0  0  0  0  0  0  0  0  0  0  0
    1.9584   -1.9845   -2.3457 H   0  0  0  0  0  0  0  0  0  0  0  0
    2.4026   -3.6852   -2.3957 H   0  0  0  0  0  0  0  0  0  0  0  0
    4.8083   -1.1026   -3.4994 H   0  0  0  0  0  0  0  0  0  0  0  0
    5.4449   -0.6144   -1.9297 H   0  0  0  0  0  0  0  0  0  0  0  0
    3.8053   -0.2031   -2.3799 H   0  0  0  0  0  0  0  0  0  0  0  0
    4.7244   -4.2424   -2.4158 H   0  0  0  0  0  0  0  0  0  0  0  0
    6.8365   -3.7997   -2.6376 H   0  0  0  0  0  0  0  0  0  0  0  0
  1  2  1  0
  1 24  1  0
  1 25  1  0
  1 26  1  0
  2  3  1  0
  3 10  1  0
  3  4  1  0
  3 27  1  1
  4 22  1  0
  4  5  1  0
  4 28  1  6
  5 17  1  0
  5  6  1  0
  5 29  1  6
  6  7  1  0
  6 30  1  0
  6 31  1  0
  7  8  1  0
  7  9  1  0
  7 32  1  1
  8 33  1  0
  8 34  1  0
  8 35  1  0
  9 15  1  0
  9 10  1  0
  9 36  1  1
 10 11  1  0
 10 37  1  1
 11 12  1  0
 11 13  1  6
 11 14  1  0
 12 38  1  0
 12 39  1  0
 12 40  1  0
 13 41  1  0
 15 14  1  1
 14 42  1  0
 14 43  1  0
 15 16  1  0
 15 18  1  0
 16 17  1  0
 18 19  1  0
 19 20  1  0
 19 21  1  0
 19 22  1  0
 20 44  1  0
 20 45  1  0
 20 46  1  0
 21 47  1  0
 21 48  1  0
 21 49  1  0
 22 23  1  0
 22 50  1  6
 23 51  1  0
M  END
>  <i_m_ct_stereo_status>  (32) 
1

>  <s_m_source_file>  (32) 
/var/tmp/pbs.5076255.sched01/tmp0du1nuht/0914ajmtz.sdf

>  <i_m_source_file_index>  (32) 
13

>  <i_lp_mmshare_version>  (32) 
48012

>  <i_f3d_flags>  (32) 
0

>  <s_epik_input>  (32) 
W0NIM11bQ0BdKFtPSF0pKFtDSDJdMSlbQ0BASF0oW0NASF0yW0NAXTEzNClbQ0BIXShPW0NIM10pW0NASF0oW0NASF0oW09IXSlDKE80KShbQ0gzXSlbQ0gzXSlbQ0BIXShPTzMpW0NIMl1bQ0BIXTJbQ0gzXQ==

>  <s_epik_cmdline>  (32) 
J2VwaWtfcHl0aG9uJywgJy1waHQnLCAnMi4wJywgJy1waCcsICc3LjAnLCAnLXRuJywgJzgnLCAnLW1hJywgJzIwMCcsICctaW1hZScsICc8aW5maWxlLm1hZT4nLCAnLW9tYWUnLCAnPG91dGZpbGUubWFlPic=

>  <r_lp_tautomer_probability>  (32) 
1

>  <r_epik_Ionization_Penalty>  (32) 
1.10706e-07

>  <r_epik_Ionization_Penalty_Charging>  (32) 
0

>  <r_epik_Ionization_Penalty_Neutral>  (32) 
1.10706e-07

>  <r_epik_State_Penalty>  (32) 
-0

>  <r_epik_Charging_Adjusted_Penalty>  (32) 
0

>  <i_epik_Tot_Q>  (32) 
0

>  <i_epik_Tot_abs_Q>  (32) 
0

>  <s_lp_Force_Field>  (32) 
OPLS3e

>  <r_lp_Energy>  (32) 
116.789

>  <b_lp_Chiralities_Consistent>  (32) 
1

>  <s_lp_Variant>  (32) 
10:0-1

>  <s_i_glide_gridfile>  (32) 
pfpi4k_grid

>  <i_i_glide_lignum>  (32) 
13

>  <i_i_glide_rotatable_bonds>  (32) 
3

>  <r_i_docking_score>  (32) 
-3.08011

>  <r_i_glide_ligand_efficiency>  (32) 
-0.133918

>  <r_i_glide_ligand_efficiency_sa>  (32) 
-0.380844

>  <r_i_glide_ligand_efficiency_ln>  (32) 
-0.744798

>  <r_i_glide_gscore>  (32) 
-3.08011

>  <r_i_glide_lipo>  (32) 
-0.476199

>  <r_i_glide_hbond>  (32) 
-0.00536013

>  <r_i_glide_metal>  (32) 
-0

>  <r_i_glide_rewards>  (32) 
-1.17

>  <r_i_glide_evdw>  (32) 
-20.3801

>  <r_i_glide_ecoul>  (32) 
-2.51726

>  <r_i_glide_erotb>  (32) 
0

>  <r_i_glide_esite>  (32) 
-0.0319597

>  <r_i_glide_emodel>  (32) 
-27.194

>  <r_i_glide_energy>  (32) 
-22.8973

>  <r_i_glide_einternal>  (32) 
0.834137

>  <r_i_glide_intrahb_reward>  (32) 
-0

>  <i_i_glide_confnum>  (32) 
2

>  <i_i_glide_posenum>  (32) 
27

>  <r_i_glide_eff_state_penalty>  (32) 
0

>  <ligand_id>  (32) 
10

>  <original_smiles>  (32) 
COC1C2C3CC(C)C4C1C(C)(O)CC4(OO3)OC(C)(C)C2O

>  <smiles>  (32) 
[H]OC1([H])C2([H])C3([H])OOC4(OC1(C([H])([H])[H])C([H])([H])[H])C([H])([H])C(O[H])(C([H])([H])[H])C([H])(C2([H])OC([H])([H])[H])C4([H])C([H])(C([H])([H])[H])C3([H])[H]

$$$$
10:0:2
     RDKit          3D

 51 54  0  0  1  0  0  0  0  0999 V2000
    4.7270   -4.4420   -3.7697 C   0  0  0  0  0  0  0  0  0  0  0  0
    5.2603   -3.8724   -2.5773 O   0  0  0  0  0  0  0  0  0  0  0  0
    4.8189   -4.4641   -1.3492 C   0  0  2  0  0  0  0  0  0  0  0  0
    3.3686   -3.9413   -0.9039 C   0  0  1  0  0  0  0  0  0  0  0  0
    2.7476   -4.3343    0.4846 C   0  0  1  0  0  0  0  0  0  0  0  0
    3.0678   -5.7508    0.8717 C   0  0  0  0  0  0  0  0  0  0  0  0
    4.4458   -5.7932    1.4720 C   0  0  1  0  0  0  0  0  0  0  0  0
    5.0622   -7.1968    1.3070 C   0  0  0  0  0  0  0  0  0  0  0  0
    5.3945   -4.6361    1.0318 C   0  0  1  0  0  0  0  0  0  0  0  0
    6.0102   -4.6066   -0.3120 C   0  0  2  0  0  0  0  0  0  0  0  0
    7.1073   -3.4832   -0.0532 C   0  0  1  0  0  0  0  0  0  0  0  0
    8.4955   -4.1079    0.2118 C   0  0  0  0  0  0  0  0  0  0  0  0
    7.3607   -2.6137   -1.1509 O   0  0  0  0  0  0  0  0  0  0  0  0
    6.5672   -2.6988    1.2057 C   0  0  0  0  0  0  0  0  0  0  0  0
    5.0903   -3.1093    1.1981 C   0  0  2  0  0  0  0  0  0  0  0  0
    4.1228   -3.0448    2.2083 O   0  0  0  0  0  0  0  0  0  0  0  0
    2.7518   -3.3719    1.5759 O   0  0  0  0  0  0  0  0  0  0  0  0
    4.9521   -2.1173    0.1509 O   0  0  0  0  0  0  0  0  0  0  0  0
    3.8431   -1.4809   -0.4497 C   0  0  0  0  0  0  0  0  0  0  0  0
    3.0506   -0.6431    0.5899 C   0  0  0  0  0  0  0  0  0  0  0  0
    4.5799   -0.5139   -1.4057 C   0  0  0  0  0  0  0  0  0  0  0  0
    3.0267   -2.5060   -1.2373 C   0  0  1  0  0  0  0  0  0  0  0  0
    2.9042   -2.2615   -2.6367 O   0  0  0  0  0  0  0  0  0  0  0  0
    5.1669   -3.9278   -4.6215 H   0  0  0  0  0  0  0  0  0  0  0  0
    3.6465   -4.3216   -3.8675 H   0  0  0  0  0  0  0  0  0  0  0  0
    4.9913   -5.5058   -3.8387 H   0  0  0  0  0  0  0  0  0  0  0  0
    4.6262   -5.5124   -1.5297 H   0  0  0  0  0  0  0  0  0  0  0  0
    2.6472   -4.4465   -1.5268 H   0  0  0  0  0  0  0  0  0  0  0  0
    1.6916   -4.4017    0.2593 H   0  0  0  0  0  0  0  0  0  0  0  0
    2.3312   -6.1526    1.5663 H   0  0  0  0  0  0  0  0  0  0  0  0
    3.0106   -6.3767   -0.0146 H   0  0  0  0  0  0  0  0  0  0  0  0
    4.2865   -5.6556    2.5398 H   0  0  0  0  0  0  0  0  0  0  0  0
    5.2206   -7.4424    0.2579 H   0  0  0  0  0  0  0  0  0  0  0  0
    4.4061   -7.9683    1.7123 H   0  0  0  0  0  0  0  0  0  0  0  0
    6.0182   -7.2767    1.8232 H   0  0  0  0  0  0  0  0  0  0  0  0
    6.1907   -4.9072    1.7233 H   0  0  0  0  0  0  0  0  0  0  0  0
    6.4617   -5.5949   -0.3389 H   0  0  0  0  0  0  0  0  0  0  0  0
    8.4885   -4.8130    1.0433 H   0  0  0  0  0  0  0  0  0  0  0  0
    9.2366   -3.3423    0.4411 H   0  0  0  0  0  0  0  0  0  0  0  0
    8.8590   -4.6486   -0.6622 H   0  0  0  0  0  0  0  0  0  0  0  0
    7.6357   -3.1411   -1.8876 H   0  0  0  0  0  0  0  0  0  0  0  0
    7.0245   -3.0839    2.0879 H   0  0  0  0  0  0  0  0  0  0  0  0
    6.7811   -1.6279    1.1980 H   0  0  0  0  0  0  0  0  0  0  0  0
    2.4308    0.0985    0.1055 H   0  0  0  0  0  0  0  0  0  0  0  0
    3.7314   -0.1080    1.2655 H   0  0  0  0  0  0  0  0  0  0  0  0
    2.3573   -1.2089    1.2178 H   0  0  0  0  0  0  0  0  0  0  0  0
    3.9101    0.1252   -1.9934 H   0  0  0  0  0  0  0  0  0  0  0  0
    5.2124   -1.0646   -2.1173 H   0  0  0  0  0  0  0  0  0  0  0  0
    5.1892    0.1337   -0.8089 H   0  0  0  0  0  0  0  0  0  0  0  0
    2.0179   -2.5182   -0.8897 H   0  0  0  0  0  0  0  0  0  0  0  0
    2.1805   -2.7720   -2.9653 H   0  0  0  0  0  0  0  0  0  0  0  0
  1  2  1  0
  1 24  1  0
  1 25  1  0
  1 26  1  0
  2  3  1  0
  3 10  1  0
  3  4  1  0
  3 27  1  6
  4 22  1  0
  4  5  1  0
  4 28  1  6
  5 17  1  0
  5  6  1  0
  5 29  1  6
  6  7  1  0
  6 30  1  0
  6 31  1  0
  7  8  1  0
  7  9  1  0
  7 32  1  1
  8 33  1  0
  8 34  1  0
  8 35  1  0
  9 15  1  0
  9 10  1  0
  9 36  1  1
 10 11  1  0
 10 37  1  6
 11 12  1  0
 11 13  1  6
 11 14  1  0
 12 38  1  0
 12 39  1  0
 12 40  1  0
 13 41  1  0
 15 14  1  1
 14 42  1  0
 14 43  1  0
 15 16  1  0
 15 18  1  0
 16 17  1  0
 18 19  1  0
 19 20  1  0
 19 21  1  0
 19 22  1  0
 20 44  1  0
 20 45  1  0
 20 46  1  0
 21 47  1  0
 21 48  1  0
 21 49  1  0
 22 23  1  0
 22 50  1  1
 23 51  1  0
M  END
>  <i_m_ct_stereo_status>  (33) 
1

>  <s_m_source_file>  (33) 
/var/tmp/pbs.5076255.sched01/tmp0du1nuht/0914ajmtz.sdf

>  <i_m_source_file_index>  (33) 
13

>  <i_lp_mmshare_version>  (33) 
48012

>  <i_f3d_flags>  (33) 
0

>  <s_epik_input>  (33) 
W0NIM11bQ0BdKFtPSF0pKFtDSDJdMSlbQ0BASF0oW0NASF0yW0NAXTEzNClbQ0BIXShPW0NIM10pW0NASF0oW0NASF0oW09IXSlDKE80KShbQ0gzXSlbQ0gzXSlbQ0BIXShPTzMpW0NIMl1bQ0BIXTJbQ0gzXQ==

>  <s_epik_cmdline>  (33) 
J2VwaWtfcHl0aG9uJywgJy1waHQnLCAnMi4wJywgJy1waCcsICc3LjAnLCAnLXRuJywgJzgnLCAnLW1hJywgJzIwMCcsICctaW1hZScsICc8aW5maWxlLm1hZT4nLCAnLW9tYWUnLCAnPG91dGZpbGUubWFlPic=

>  <r_lp_tautomer_probability>  (33) 
1

>  <r_epik_Ionization_Penalty>  (33) 
1.10706e-07

>  <r_epik_Ionization_Penalty_Charging>  (33) 
0

>  <r_epik_Ionization_Penalty_Neutral>  (33) 
1.10706e-07

>  <r_epik_State_Penalty>  (33) 
-0

>  <r_epik_Charging_Adjusted_Penalty>  (33) 
0

>  <i_epik_Tot_Q>  (33) 
0

>  <i_epik_Tot_abs_Q>  (33) 
0

>  <s_lp_Force_Field>  (33) 
OPLS3e

>  <r_lp_Energy>  (33) 
116.789

>  <b_lp_Chiralities_Consistent>  (33) 
1

>  <s_lp_Variant>  (33) 
10:0-1

>  <s_i_glide_gridfile>  (33) 
pfpi4k_grid

>  <i_i_glide_lignum>  (33) 
13

>  <i_i_glide_rotatable_bonds>  (33) 
3

>  <r_i_docking_score>  (33) 
-2.60358

>  <r_i_glide_ligand_efficiency>  (33) 
-0.113199

>  <r_i_glide_ligand_efficiency_sa>  (33) 
-0.321924

>  <r_i_glide_ligand_efficiency_ln>  (33) 
-0.62957

>  <r_i_glide_gscore>  (33) 
-2.60358

>  <r_i_glide_lipo>  (33) 
-0.501782

>  <r_i_glide_hbond>  (33) 
0

>  <r_i_glide_metal>  (33) 
-0

>  <r_i_glide_rewards>  (33) 
-1.21809

>  <r_i_glide_evdw>  (33) 
-4.46936

>  <r_i_glide_ecoul>  (33) 
-4.40163

>  <r_i_glide_erotb>  (33) 
0

>  <r_i_glide_esite>  (33) 
0

>  <r_i_glide_emodel>  (33) 
-10.8371

>  <r_i_glide_energy>  (33) 
-8.871

>  <r_i_glide_einternal>  (33) 
0.722475

>  <r_i_glide_intrahb_reward>  (33) 
-0

>  <i_i_glide_confnum>  (33) 
2

>  <i_i_glide_posenum>  (33) 
3

>  <r_i_glide_eff_state_penalty>  (33) 
0

>  <ligand_id>  (33) 
10

>  <original_smiles>  (33) 
COC1C2C3CC(C)C4C1C(C)(O)CC4(OO3)OC(C)(C)C2O

>  <smiles>  (33) 
[H]OC1([H])C2([H])C3([H])OOC4(OC1(C([H])([H])[H])C([H])([H])[H])C([H])([H])C(O[H])(C([H])([H])[H])C([H])(C2([H])OC([H])([H])[H])C4([H])C([H])(C([H])([H])[H])C3([H])[H]

$$$$
11:0:0
     RDKit          3D

 60 65  0  0  1  0  0  0  0  0999 V2000
    7.1880   -5.8213    4.4160 C   0  0  0  0  0  0  0  0  0  0  0  0
    6.6890   -5.7074    2.9639 C   0  0  0  0  0  0  0  0  0  0  0  0
    5.6241   -5.0683    2.4298 C   0  0  0  0  0  0  0  0  0  0  0  0
    4.5839   -4.0709    3.0116 C   0  0  2  0  0  0  0  0  0  0  0  0
    4.3717   -4.1947    4.5491 C   0  0  1  0  0  0  0  0  0  0  0  0
    3.5276   -3.0636    5.1750 C   0  0  0  0  0  0  0  0  0  0  0  0
    3.7522   -5.5719    4.8841 C   0  0  0  0  0  0  0  0  0  0  0  0
    2.4730   -5.8342    4.1193 C   0  0  2  0  0  0  0  0  0  0  0  0
    1.1375   -5.6301    4.7893 C   0  0  0  0  0  0  0  0  0  0  0  0
    1.7094   -6.9387    4.6070 O   0  0  0  0  0  0  0  0  0  0  0  0
    2.6930   -5.7902    2.6023 C   0  0  1  0  0  0  0  0  0  0  0  0
    1.4274   -6.2349    1.8476 C   0  0  0  0  0  0  0  0  0  0  0  0
    3.2337   -4.3473    2.2732 C   0  0  2  0  0  0  0  0  0  0  0  0
    3.4412   -3.7149    0.8279 C   0  0  1  0  0  0  0  0  0  0  0  0
    2.5110   -4.1845   -0.3138 C   0  0  0  0  0  0  0  0  0  0  0  0
    3.1661   -2.1786    1.1359 C   0  0  1  0  0  0  0  0  0  0  0  0
    1.8114   -1.8627    1.3528 O   0  0  0  0  0  0  0  0  0  0  0  0
    3.9302   -1.7942    2.2765 O   0  0  0  0  0  0  0  0  0  0  0  0
    5.0696   -2.6286    2.5409 C   0  0  2  0  0  0  0  0  0  0  0  0
    5.7070   -2.6520    1.1307 C   0  0  1  0  0  0  0  0  0  0  0  0
    7.0957   -2.6706    1.1130 O   0  0  0  0  0  0  0  0  0  0  0  0
    4.9974   -3.8141    0.3730 C   0  0  2  0  0  0  0  0  0  0  0  0
    5.2269   -3.6298   -1.1464 C   0  0  0  0  0  0  0  0  0  0  0  0
    5.5837   -5.1685    0.9098 C   0  0  2  0  0  0  0  0  0  0  0  0
    4.8003   -6.2581    0.4599 O   0  0  0  0  0  0  0  0  0  0  0  0
    7.0211   -5.6185    0.5707 C   0  0  0  0  0  0  0  0  0  0  0  0
    7.4964   -6.3477    1.8420 C   0  0  1  0  0  0  0  0  0  0  0  0
    8.8905   -6.1588    1.9968 O   0  0  0  0  0  0  0  0  0  0  0  0
    8.1849   -6.2630    4.4113 H   0  0  0  0  0  0  0  0  0  0  0  0
    6.5367   -6.4281    5.0463 H   0  0  0  0  0  0  0  0  0  0  0  0
    7.3122   -4.8804    4.9598 H   0  0  0  0  0  0  0  0  0  0  0  0
    5.3312   -4.1128    5.0528 H   0  0  0  0  0  0  0  0  0  0  0  0
    2.5081   -3.0295    4.7936 H   0  0  0  0  0  0  0  0  0  0  0  0
    3.9726   -2.0825    5.0040 H   0  0  0  0  0  0  0  0  0  0  0  0
    3.4576   -3.1942    6.2565 H   0  0  0  0  0  0  0  0  0  0  0  0
    4.4373   -6.3876    4.6507 H   0  0  0  0  0  0  0  0  0  0  0  0
    3.5547   -5.6399    5.9543 H   0  0  0  0  0  0  0  0  0  0  0  0
    1.1309   -5.2717    5.8180 H   0  0  0  0  0  0  0  0  0  0  0  0
    0.2400   -5.4290    4.2086 H   0  0  0  0  0  0  0  0  0  0  0  0
    3.4454   -6.5624    2.4194 H   0  0  0  0  0  0  0  0  0  0  0  0
    0.6665   -5.4589    1.8743 H   0  0  0  0  0  0  0  0  0  0  0  0
    0.9919   -7.1469    2.2676 H   0  0  0  0  0  0  0  0  0  0  0  0
    1.6650   -6.4780    0.8161 H   0  0  0  0  0  0  0  0  0  0  0  0
    2.4557   -3.7526    2.7410 H   0  0  0  0  0  0  0  0  0  0  0  0
    2.5563   -3.5192   -1.1800 H   0  0  0  0  0  0  0  0  0  0  0  0
    1.4786   -4.2323   -0.0087 H   0  0  0  0  0  0  0  0  0  0  0  0
    2.7705   -5.1856   -0.6492 H   0  0  0  0  0  0  0  0  0  0  0  0
    3.4253   -1.5834    0.2645 H   0  0  0  0  0  0  0  0  0  0  0  0
    1.4690   -1.4452    0.5792 H   0  0  0  0  0  0  0  0  0  0  0  0
    5.6948   -2.1404    3.2863 H   0  0  0  0  0  0  0  0  0  0  0  0
    5.5255   -1.6906    0.6483 H   0  0  0  0  0  0  0  0  0  0  0  0
    7.3726   -3.3753    1.6772 H   0  0  0  0  0  0  0  0  0  0  0  0
    6.2901   -3.5690   -1.3773 H   0  0  0  0  0  0  0  0  0  0  0  0
    4.7782   -2.6997   -1.4906 H   0  0  0  0  0  0  0  0  0  0  0  0
    4.8070   -4.4480   -1.7333 H   0  0  0  0  0  0  0  0  0  0  0  0
    4.6628   -6.1549   -0.4786 H   0  0  0  0  0  0  0  0  0  0  0  0
    7.0713   -6.2423   -0.3122 H   0  0  0  0  0  0  0  0  0  0  0  0
    7.7106   -4.8192    0.3109 H   0  0  0  0  0  0  0  0  0  0  0  0
    7.2398   -7.4110    1.8044 H   0  0  0  0  0  0  0  0  0  0  0  0
    9.3699   -6.9314    1.7069 H   0  0  0  0  0  0  0  0  0  0  0  0
  1  2  1  0
  1 29  1  0
  1 30  1  0
  1 31  1  0
  2 27  1  0
  2  3  2  0
  3 24  1  0
  4  3  1  6
  4 13  1  0
  4 19  1  0
  4  5  1  0
  5  6  1  0
  5  7  1  0
  5 32  1  1
  6 33  1  0
  6 34  1  0
  6 35  1  0
  7  8  1  0
  7 36  1  0
  7 37  1  0
  8 10  1  1
  8  9  1  0
  8 11  1  0
  9 10  1  0
  9 38  1  0
  9 39  1  0
 11 12  1  0
 11 13  1  0
 11 40  1  1
 12 41  1  0
 12 42  1  0
 12 43  1  0
 13 14  1  0
 13 44  1  1
 14 22  1  0
 14 15  1  6
 14 16  1  0
 15 45  1  0
 15 46  1  0
 15 47  1  0
 16 17  1  0
 16 18  1  0
 16 48  1  6
 17 49  1  0
 18 19  1  0
 19 20  1  0
 19 50  1  1
 20 21  1  0
 20 22  1  0
 20 51  1  6
 21 52  1  0
 22 23  1  6
 22 24  1  0
 23 53  1  0
 23 54  1  0
 23 55  1  0
 24 25  1  1
 24 26  1  0
 25 56  1  0
 26 27  1  0
 26 57  1  0
 26 58  1  0
 27 28  1  0
 27 59  1  6
 28 60  1  0
M  END
>  <i_m_ct_stereo_status>  (34) 
1

>  <s_m_source_file>  (34) 
/var/tmp/pbs.5076255.sched01/tmp0du1nuht/0914ajmtz.sdf

>  <i_m_source_file_index>  (34) 
14

>  <i_lp_mmshare_version>  (34) 
48012

>  <i_f3d_flags>  (34) 
0

>  <s_epik_input>  (34) 
W0NIM11DPTFbQ0BIXShbT0hdKVtDSDJdW0NAXShDMVtDQF0yMzQpKFtPSF0pW0NAQF01KFtDSDNdKVtDQF0oW0NIM10pKFtDQEBIXShbT0hdKU9bQ0BASF00W0NASF01W09IXSlbQ0BIXTNbQ0BIXShbQ0gzXSlbQ0BdNihbQ0gyXU82KVtDSDJdW0NAQEhdMltDSDNd

>  <s_epik_cmdline>  (34) 
J2VwaWtfcHl0aG9uJywgJy1waHQnLCAnMi4wJywgJy1waCcsICc3LjAnLCAnLXRuJywgJzgnLCAnLW1hJywgJzIwMCcsICctaW1hZScsICc8aW5maWxlLm1hZT4nLCAnLW9tYWUnLCAnPG91dGZpbGUubWFlPic=

>  <r_lp_tautomer_probability>  (34) 
1

>  <r_epik_Ionization_Penalty>  (34) 
2.18599e-07

>  <r_epik_Ionization_Penalty_Charging>  (34) 
0

>  <r_epik_Ionization_Penalty_Neutral>  (34) 
2.18599e-07

>  <r_epik_State_Penalty>  (34) 
-0

>  <r_epik_Charging_Adjusted_Penalty>  (34) 
0

>  <i_epik_Tot_Q>  (34) 
0

>  <i_epik_Tot_abs_Q>  (34) 
0

>  <s_epik_Chemistry_Notes>  (34) 
This compound contains an acetal/aminal-like group ( X-CH(R)-Y where X, Y are N, S, or O) that may be acid/base labile, releasing an aldehyde.

>  <s_lp_Force_Field>  (34) 
OPLS3e

>  <r_lp_Energy>  (34) 
101.016

>  <b_lp_Chiralities_Consistent>  (34) 
1

>  <s_lp_Variant>  (34) 
11:0-1

>  <s_i_glide_gridfile>  (34) 
pfpi4k_grid

>  <i_i_glide_lignum>  (34) 
14

>  <i_i_glide_rotatable_bonds>  (34) 
4

>  <r_i_docking_score>  (34) 
-3.00176

>  <r_i_glide_ligand_efficiency>  (34) 
-0.107206

>  <r_i_glide_ligand_efficiency_sa>  (34) 
-0.32554

>  <r_i_glide_ligand_efficiency_ln>  (34) 
-0.692895

>  <r_i_glide_gscore>  (34) 
-3.00176

>  <r_i_glide_lipo>  (34) 
-0.434231

>  <r_i_glide_hbond>  (34) 
-0.152

>  <r_i_glide_metal>  (34) 
-0

>  <r_i_glide_rewards>  (34) 
-0.733051

>  <r_i_glide_evdw>  (34) 
-11.1616

>  <r_i_glide_ecoul>  (34) 
-7.31487

>  <r_i_glide_erotb>  (34) 
0

>  <r_i_glide_esite>  (34) 
-0.0271667

>  <r_i_glide_emodel>  (34) 
-18.2867

>  <r_i_glide_energy>  (34) 
-18.4765

>  <r_i_glide_einternal>  (34) 
3.05526

>  <r_i_glide_intrahb_reward>  (34) 
-0

>  <i_i_glide_confnum>  (34) 
2

>  <i_i_glide_posenum>  (34) 
10

>  <r_i_glide_eff_state_penalty>  (34) 
0

>  <ligand_id>  (34) 
11

>  <original_smiles>  (34) 
CC1=C2C34C(C)CC5(CO5)C(C)C3C3(C)C(O)OC4C(O)C3(C)C2(O)CC1O

>  <smiles>  (34) 
[H]OC1([H])OC2([H])C([H])(O[H])C3(C([H])([H])[H])C4(O[H])C(=C(C([H])([H])[H])C([H])(O[H])C4([H])[H])C24C([H])(C([H])([H])[H])C([H])([H])C2(OC2([H])[H])C([H])(C([H])([H])[H])C4([H])C13C([H])([H])[H]

$$$$
11:0:1
     RDKit          3D

 60 65  0  0  1  0  0  0  0  0999 V2000
    6.8946   -5.9618    4.3726 C   0  0  0  0  0  0  0  0  0  0  0  0
    6.4644   -5.7919    2.9207 C   0  0  0  0  0  0  0  0  0  0  0  0
    5.4225   -5.1211    2.3909 C   0  0  0  0  0  0  0  0  0  0  0  0
    4.3419   -4.1977    3.0102 C   0  0  2  0  0  0  0  0  0  0  0  0
    4.0115   -4.4972    4.5058 C   0  0  1  0  0  0  0  0  0  0  0  0
    3.0912   -3.4498    5.1815 C   0  0  0  0  0  0  0  0  0  0  0  0
    3.3845   -5.9069    4.6380 C   0  0  0  0  0  0  0  0  0  0  0  0
    2.1756   -6.0890    3.7507 C   0  0  2  0  0  0  0  0  0  0  0  0
    0.7821   -5.9735    4.3170 C   0  0  0  0  0  0  0  0  0  0  0  0
    1.3830   -7.2421    4.0392 O   0  0  0  0  0  0  0  0  0  0  0  0
    2.5412   -5.8844    2.2739 C   0  0  1  0  0  0  0  0  0  0  0  0
    1.3676   -6.2822    1.3859 C   0  0  0  0  0  0  0  0  0  0  0  0
    3.0593   -4.3933    2.1528 C   0  0  2  0  0  0  0  0  0  0  0  0
    3.3587   -3.6016    0.8123 C   0  0  1  0  0  0  0  0  0  0  0  0
    2.5160   -3.9312   -0.4363 C   0  0  0  0  0  0  0  0  0  0  0  0
    3.0453   -2.1159    1.2465 C   0  0  1  0  0  0  0  0  0  0  0  0
    1.6980   -1.8312    1.3600 O   0  0  0  0  0  0  0  0  0  0  0  0
    3.6926   -1.8657    2.4842 O   0  0  0  0  0  0  0  0  0  0  0  0
    4.8177   -2.7083    2.7472 C   0  0  2  0  0  0  0  0  0  0  0  0
    5.5374   -2.5719    1.3806 C   0  0  1  0  0  0  0  0  0  0  0  0
    6.8998   -2.5858    1.3211 O   0  0  0  0  0  0  0  0  0  0  0  0
    4.9416   -3.6528    0.4547 C   0  0  2  0  0  0  0  0  0  0  0  0
    5.3002   -3.3168   -1.0093 C   0  0  0  0  0  0  0  0  0  0  0  0
    5.5178   -5.0529    0.8776 C   0  0  2  0  0  0  0  0  0  0  0  0
    4.7874   -6.0917    0.2620 O   0  0  0  0  0  0  0  0  0  0  0  0
    6.9818   -5.4764    0.6002 C   0  0  0  0  0  0  0  0  0  0  0  0
    7.3694   -6.3285    1.8224 C   0  0  1  0  0  0  0  0  0  0  0  0
    8.7602   -6.1994    2.1298 O   0  0  0  0  0  0  0  0  0  0  0  0
    7.8588   -6.4796    4.4264 H   0  0  0  0  0  0  0  0  0  0  0  0
    6.1852   -6.5510    4.9558 H   0  0  0  0  0  0  0  0  0  0  0  0
    7.0421   -4.9970    4.8531 H   0  0  0  0  0  0  0  0  0  0  0  0
    4.9125   -4.4704    5.0906 H   0  0  0  0  0  0  0  0  0  0  0  0
    2.1086   -3.3818    4.7203 H   0  0  0  0  0  0  0  0  0  0  0  0
    3.5318   -2.4527    5.1559 H   0  0  0  0  0  0  0  0  0  0  0  0
    2.9359   -3.7004    6.2295 H   0  0  0  0  0  0  0  0  0  0  0  0
    4.0917   -6.6859    4.3710 H   0  0  0  0  0  0  0  0  0  0  0  0
    3.0878   -6.0939    5.6682 H   0  0  0  0  0  0  0  0  0  0  0  0
    0.6827   -5.7452    5.3730 H   0  0  0  0  0  0  0  0  0  0  0  0
   -0.0699   -5.7250    3.6971 H   0  0  0  0  0  0  0  0  0  0  0  0
    3.3269   -6.6239    2.0835 H   0  0  0  0  0  0  0  0  0  0  0  0
    0.6150   -5.5056    1.4889 H   0  0  0  0  0  0  0  0  0  0  0  0
    0.9012   -7.2306    1.6658 H   0  0  0  0  0  0  0  0  0  0  0  0
    1.6561   -6.3803    0.3416 H   0  0  0  0  0  0  0  0  0  0  0  0
    2.2191   -3.8644    2.6053 H   0  0  0  0  0  0  0  0  0  0  0  0
    2.6668   -3.2077   -1.2354 H   0  0  0  0  0  0  0  0  0  0  0  0
    1.4562   -3.9979   -0.2701 H   0  0  0  0  0  0  0  0  0  0  0  0
    2.8379   -4.9040   -0.7648 H   0  0  0  0  0  0  0  0  0  0  0  0
    3.3707   -1.4365    0.4678 H   0  0  0  0  0  0  0  0  0  0  0  0
    1.4052   -1.4522    0.5253 H   0  0  0  0  0  0  0  0  0  0  0  0
    5.3824   -2.3167    3.5849 H   0  0  0  0  0  0  0  0  0  0  0  0
    5.3824   -1.5568    1.0152 H   0  0  0  0  0  0  0  0  0  0  0  0
    7.1675   -2.1300    2.0977 H   0  0  0  0  0  0  0  0  0  0  0  0
    6.3721   -3.2291   -1.1281 H   0  0  0  0  0  0  0  0  0  0  0  0
    4.8754   -2.3503   -1.2867 H   0  0  0  0  0  0  0  0  0  0  0  0
    4.9472   -4.0669   -1.7026 H   0  0  0  0  0  0  0  0  0  0  0  0
    4.6861   -5.8712   -0.6551 H   0  0  0  0  0  0  0  0  0  0  0  0
    7.1041   -6.0455   -0.3093 H   0  0  0  0  0  0  0  0  0  0  0  0
    7.6761   -4.6556    0.5032 H   0  0  0  0  0  0  0  0  0  0  0  0
    7.1109   -7.3840    1.6756 H   0  0  0  0  0  0  0  0  0  0  0  0
    9.2539   -6.9204    1.7426 H   0  0  0  0  0  0  0  0  0  0  0  0
  1  2  1  0
  1 29  1  0
  1 30  1  0
  1 31  1  0
  2 27  1  0
  2  3  2  0
  3 24  1  0
  4  3  1  6
  4 13  1  0
  4 19  1  0
  4  5  1  0
  5  6  1  0
  5  7  1  0
  5 32  1  1
  6 33  1  0
  6 34  1  0
  6 35  1  0
  7  8  1  0
  7 36  1  0
  7 37  1  0
  8 10  1  6
  8  9  1  0
  8 11  1  0
  9 10  1  0
  9 38  1  0
  9 39  1  0
 11 12  1  0
 11 13  1  0
 11 40  1  6
 12 41  1  0
 12 42  1  0
 12 43  1  0
 13 14  1  0
 13 44  1  1
 14 22  1  0
 14 15  1  6
 14 16  1  0
 15 45  1  0
 15 46  1  0
 15 47  1  0
 16 17  1  0
 16 18  1  0
 16 48  1  6
 17 49  1  0
 18 19  1  0
 19 20  1  0
 19 50  1  1
 20 21  1  0
 20 22  1  0
 20 51  1  6
 21 52  1  0
 22 23  1  6
 22 24  1  0
 23 53  1  0
 23 54  1  0
 23 55  1  0
 24 25  1  6
 24 26  1  0
 25 56  1  0
 26 27  1  0
 26 57  1  0
 26 58  1  0
 27 28  1  0
 27 59  1  6
 28 60  1  0
M  END
>  <i_m_ct_stereo_status>  (35) 
1

>  <s_m_source_file>  (35) 
/var/tmp/pbs.5076255.sched01/tmp0du1nuht/0914ajmtz.sdf

>  <i_m_source_file_index>  (35) 
14

>  <i_lp_mmshare_version>  (35) 
48012

>  <i_f3d_flags>  (35) 
0

>  <s_epik_input>  (35) 
W0NIM11DPTFbQ0BIXShbT0hdKVtDSDJdW0NAXShDMVtDQF0yMzQpKFtPSF0pW0NAQF01KFtDSDNdKVtDQF0oW0NIM10pKFtDQEBIXShbT0hdKU9bQ0BASF00W0NASF01W09IXSlbQ0BIXTNbQ0BIXShbQ0gzXSlbQ0BdNihbQ0gyXU82KVtDSDJdW0NAQEhdMltDSDNd

>  <s_epik_cmdline>  (35) 
J2VwaWtfcHl0aG9uJywgJy1waHQnLCAnMi4wJywgJy1waCcsICc3LjAnLCAnLXRuJywgJzgnLCAnLW1hJywgJzIwMCcsICctaW1hZScsICc8aW5maWxlLm1hZT4nLCAnLW9tYWUnLCAnPG91dGZpbGUubWFlPic=

>  <r_lp_tautomer_probability>  (35) 
1

>  <r_epik_Ionization_Penalty>  (35) 
2.18599e-07

>  <r_epik_Ionization_Penalty_Charging>  (35) 
0

>  <r_epik_Ionization_Penalty_Neutral>  (35) 
2.18599e-07

>  <r_epik_State_Penalty>  (35) 
-0

>  <r_epik_Charging_Adjusted_Penalty>  (35) 
0

>  <i_epik_Tot_Q>  (35) 
0

>  <i_epik_Tot_abs_Q>  (35) 
0

>  <s_epik_Chemistry_Notes>  (35) 
This compound contains an acetal/aminal-like group ( X-CH(R)-Y where X, Y are N, S, or O) that may be acid/base labile, releasing an aldehyde.

>  <s_lp_Force_Field>  (35) 
OPLS3e

>  <r_lp_Energy>  (35) 
101.016

>  <b_lp_Chiralities_Consistent>  (35) 
1

>  <s_lp_Variant>  (35) 
11:0-1

>  <s_i_glide_gridfile>  (35) 
pfpi4k_grid

>  <i_i_glide_lignum>  (35) 
14

>  <i_i_glide_rotatable_bonds>  (35) 
4

>  <r_i_docking_score>  (35) 
-2.91779

>  <r_i_glide_ligand_efficiency>  (35) 
-0.104207

>  <r_i_glide_ligand_efficiency_sa>  (35) 
-0.316433

>  <r_i_glide_ligand_efficiency_ln>  (35) 
-0.673511

>  <r_i_glide_gscore>  (35) 
-2.91779

>  <r_i_glide_lipo>  (35) 
-0.447478

>  <r_i_glide_hbond>  (35) 
-0.152

>  <r_i_glide_metal>  (35) 
-0

>  <r_i_glide_rewards>  (35) 
-0.733051

>  <r_i_glide_evdw>  (35) 
-11.0885

>  <r_i_glide_ecoul>  (35) 
-6.6831

>  <r_i_glide_erotb>  (35) 
0

>  <r_i_glide_esite>  (35) 
-0.0283666

>  <r_i_glide_emodel>  (35) 
-16.9472

>  <r_i_glide_energy>  (35) 
-17.7716

>  <r_i_glide_einternal>  (35) 
3.52564

>  <r_i_glide_intrahb_reward>  (35) 
-0

>  <i_i_glide_confnum>  (35) 
2

>  <i_i_glide_posenum>  (35) 
40

>  <r_i_glide_eff_state_penalty>  (35) 
0

>  <ligand_id>  (35) 
11

>  <original_smiles>  (35) 
CC1=C2C34C(C)CC5(CO5)C(C)C3C3(C)C(O)OC4C(O)C3(C)C2(O)CC1O

>  <smiles>  (35) 
[H]OC1([H])OC2([H])C([H])(O[H])C3(C([H])([H])[H])C4(O[H])C(=C(C([H])([H])[H])C([H])(O[H])C4([H])[H])C24C([H])(C([H])([H])[H])C([H])([H])C2(OC2([H])[H])C([H])(C([H])([H])[H])C4([H])C13C([H])([H])[H]

$$$$
11:0:2
     RDKit          3D

 60 65  0  0  1  0  0  0  0  0999 V2000
    7.3959   -5.9127    3.0692 C   0  0  0  0  0  0  0  0  0  0  0  0
    6.8465   -5.2498    1.7975 C   0  0  0  0  0  0  0  0  0  0  0  0
    5.7015   -4.5843    1.5786 C   0  0  0  0  0  0  0  0  0  0  0  0
    4.5487   -4.1096    2.4825 C   0  0  2  0  0  0  0  0  0  0  0  0
    4.3859   -4.9674    3.7766 C   0  0  1  0  0  0  0  0  0  0  0  0
    3.3753   -4.3746    4.7862 C   0  0  0  0  0  0  0  0  0  0  0  0
    3.9804   -6.4253    3.4234 C   0  0  0  0  0  0  0  0  0  0  0  0
    2.7392   -6.4922    2.5470 C   0  0  2  0  0  0  0  0  0  0  0  0
    1.4038   -6.8090    3.1561 C   0  0  0  0  0  0  0  0  0  0  0  0
    2.1702   -7.7978    2.4478 O   0  0  0  0  0  0  0  0  0  0  0  0
    2.9418   -5.7303    1.2441 C   0  0  1  0  0  0  0  0  0  0  0  0
    1.7157   -5.9469    0.3395 C   0  0  0  0  0  0  0  0  0  0  0  0
    3.2475   -4.2349    1.6190 C   0  0  2  0  0  0  0  0  0  0  0  0
    3.3718   -3.0256    0.6068 C   0  0  1  0  0  0  0  0  0  0  0  0
    2.5773   -3.1322   -0.7131 C   0  0  0  0  0  0  0  0  0  0  0  0
    2.8157   -1.8411    1.5314 C   0  0  1  0  0  0  0  0  0  0  0  0
    1.4254   -1.8197    1.7338 O   0  0  0  0  0  0  0  0  0  0  0  0
    3.4975   -1.8922    2.7779 O   0  0  0  0  0  0  0  0  0  0  0  0
    4.7710   -2.5479    2.7281 C   0  0  2  0  0  0  0  0  0  0  0  0
    5.3685   -1.8369    1.4764 C   0  0  1  0  0  0  0  0  0  0  0  0
    6.7098   -1.4867    1.4022 O   0  0  0  0  0  0  0  0  0  0  0  0
    4.8746   -2.6408    0.2678 C   0  0  2  0  0  0  0  0  0  0  0  0
    5.0722   -1.8072   -1.0206 C   0  0  0  0  0  0  0  0  0  0  0  0
    5.6679   -3.9602    0.1963 C   0  0  2  0  0  0  0  0  0  0  0  0
    5.0742   -4.8496   -0.7348 O   0  0  0  0  0  0  0  0  0  0  0  0
    7.1520   -3.9590   -0.2261 C   0  0  0  0  0  0  0  0  0  0  0  0
    7.7382   -5.1727    0.5753 C   0  0  1  0  0  0  0  0  0  0  0  0
    9.0706   -4.9269    0.9243 O   0  0  0  0  0  0  0  0  0  0  0  0
    8.4386   -6.2239    2.9173 H   0  0  0  0  0  0  0  0  0  0  0  0
    6.8465   -6.7917    3.3991 H   0  0  0  0  0  0  0  0  0  0  0  0
    7.4037   -5.1864    3.8778 H   0  0  0  0  0  0  0  0  0  0  0  0
    5.3271   -4.9942    4.3148 H   0  0  0  0  0  0  0  0  0  0  0  0
    2.3629   -4.3191    4.3825 H   0  0  0  0  0  0  0  0  0  0  0  0
    3.6689   -3.3681    5.0858 H   0  0  0  0  0  0  0  0  0  0  0  0
    3.3379   -4.9910    5.6840 H   0  0  0  0  0  0  0  0  0  0  0  0
    4.7724   -6.9453    2.8792 H   0  0  0  0  0  0  0  0  0  0  0  0
    3.8072   -7.0040    4.3447 H   0  0  0  0  0  0  0  0  0  0  0  0
    1.3492   -6.9772    4.2246 H   0  0  0  0  0  0  0  0  0  0  0  0
    0.4788   -6.5131    2.6747 H   0  0  0  0  0  0  0  0  0  0  0  0
    3.7891   -6.2367    0.7907 H   0  0  0  0  0  0  0  0  0  0  0  0
    0.8708   -5.4434    0.7654 H   0  0  0  0  0  0  0  0  0  0  0  0
    1.4689   -7.0186    0.2942 H   0  0  0  0  0  0  0  0  0  0  0  0
    1.9106   -5.6404   -0.6756 H   0  0  0  0  0  0  0  0  0  0  0  0
    2.3788   -4.0261    2.2492 H   0  0  0  0  0  0  0  0  0  0  0  0
    2.6178   -2.1954   -1.2567 H   0  0  0  0  0  0  0  0  0  0  0  0
    1.5430   -3.3812   -0.4950 H   0  0  0  0  0  0  0  0  0  0  0  0
    2.9663   -3.8786   -1.4091 H   0  0  0  0  0  0  0  0  0  0  0  0
    2.9926   -0.8758    1.0312 H   0  0  0  0  0  0  0  0  0  0  0  0
    1.0450   -1.4107    0.9491 H   0  0  0  0  0  0  0  0  0  0  0  0
    5.3640   -2.3915    3.6386 H   0  0  0  0  0  0  0  0  0  0  0  0
    4.9888   -0.8166    1.4672 H   0  0  0  0  0  0  0  0  0  0  0  0
    6.9281   -1.0387    2.1918 H   0  0  0  0  0  0  0  0  0  0  0  0
    6.1099   -1.5124   -1.1407 H   0  0  0  0  0  0  0  0  0  0  0  0
    4.4869   -0.8790   -0.9689 H   0  0  0  0  0  0  0  0  0  0  0  0
    4.7926   -2.3430   -1.9229 H   0  0  0  0  0  0  0  0  0  0  0  0
    4.1482   -4.8391   -0.6369 H   0  0  0  0  0  0  0  0  0  0  0  0
    7.2228   -3.9034   -1.3059 H   0  0  0  0  0  0  0  0  0  0  0  0
    7.7065   -3.0787    0.0504 H   0  0  0  0  0  0  0  0  0  0  0  0
    7.6357   -6.1348    0.0720 H   0  0  0  0  0  0  0  0  0  0  0  0
    9.0721   -4.3706    1.6688 H   0  0  0  0  0  0  0  0  0  0  0  0
  1  2  1  0
  1 29  1  0
  1 30  1  0
  1 31  1  0
  2 27  1  0
  2  3  2  0
  3 24  1  0
  4  3  1  6
  4 13  1  0
  4 19  1  0
  4  5  1  0
  5  6  1  0
  5  7  1  0
  5 32  1  1
  6 33  1  0
  6 34  1  0
  6 35  1  0
  7  8  1  0
  7 36  1  0
  7 37  1  0
  8 10  1  6
  8  9  1  0
  8 11  1  0
  9 10  1  0
  9 38  1  0
  9 39  1  0
 11 12  1  0
 11 13  1  0
 11 40  1  6
 12 41  1  0
 12 42  1  0
 12 43  1  0
 13 14  1  0
 13 44  1  1
 14 22  1  0
 14 15  1  6
 14 16  1  0
 15 45  1  0
 15 46  1  0
 15 47  1  0
 16 17  1  0
 16 18  1  0
 16 48  1  6
 17 49  1  0
 18 19  1  0
 19 20  1  0
 19 50  1  1
 20 21  1  0
 20 22  1  0
 20 51  1  6
 21 52  1  0
 22 23  1  6
 22 24  1  0
 23 53  1  0
 23 54  1  0
 23 55  1  0
 24 25  1  6
 24 26  1  0
 25 56  1  0
 26 27  1  0
 26 57  1  0
 26 58  1  0
 27 28  1  0
 27 59  1  6
 28 60  1  0
M  END
>  <i_m_ct_stereo_status>  (36) 
1

>  <s_m_source_file>  (36) 
/var/tmp/pbs.5076255.sched01/tmp0du1nuht/0914ajmtz.sdf

>  <i_m_source_file_index>  (36) 
14

>  <i_lp_mmshare_version>  (36) 
48012

>  <i_f3d_flags>  (36) 
0

>  <s_epik_input>  (36) 
W0NIM11DPTFbQ0BIXShbT0hdKVtDSDJdW0NAXShDMVtDQF0yMzQpKFtPSF0pW0NAQF01KFtDSDNdKVtDQF0oW0NIM10pKFtDQEBIXShbT0hdKU9bQ0BASF00W0NASF01W09IXSlbQ0BIXTNbQ0BIXShbQ0gzXSlbQ0BdNihbQ0gyXU82KVtDSDJdW0NAQEhdMltDSDNd

>  <s_epik_cmdline>  (36) 
J2VwaWtfcHl0aG9uJywgJy1waHQnLCAnMi4wJywgJy1waCcsICc3LjAnLCAnLXRuJywgJzgnLCAnLW1hJywgJzIwMCcsICctaW1hZScsICc8aW5maWxlLm1hZT4nLCAnLW9tYWUnLCAnPG91dGZpbGUubWFlPic=

>  <r_lp_tautomer_probability>  (36) 
1

>  <r_epik_Ionization_Penalty>  (36) 
2.18599e-07

>  <r_epik_Ionization_Penalty_Charging>  (36) 
0

>  <r_epik_Ionization_Penalty_Neutral>  (36) 
2.18599e-07

>  <r_epik_State_Penalty>  (36) 
-0

>  <r_epik_Charging_Adjusted_Penalty>  (36) 
0

>  <i_epik_Tot_Q>  (36) 
0

>  <i_epik_Tot_abs_Q>  (36) 
0

>  <s_epik_Chemistry_Notes>  (36) 
This compound contains an acetal/aminal-like group ( X-CH(R)-Y where X, Y are N, S, or O) that may be acid/base labile, releasing an aldehyde.

>  <s_lp_Force_Field>  (36) 
OPLS3e

>  <r_lp_Energy>  (36) 
101.016

>  <b_lp_Chiralities_Consistent>  (36) 
1

>  <s_lp_Variant>  (36) 
11:0-1

>  <s_i_glide_gridfile>  (36) 
pfpi4k_grid

>  <i_i_glide_lignum>  (36) 
14

>  <i_i_glide_rotatable_bonds>  (36) 
4

>  <r_i_docking_score>  (36) 
-2.56579

>  <r_i_glide_ligand_efficiency>  (36) 
-0.0916354

>  <r_i_glide_ligand_efficiency_sa>  (36) 
-0.278259

>  <r_i_glide_ligand_efficiency_ln>  (36) 
-0.59226

>  <r_i_glide_gscore>  (36) 
-2.56579

>  <r_i_glide_lipo>  (36) 
-0.58898

>  <r_i_glide_hbond>  (36) 
-0.00238691

>  <r_i_glide_metal>  (36) 
-0

>  <r_i_glide_rewards>  (36) 
-0.733051

>  <r_i_glide_evdw>  (36) 
-15.0736

>  <r_i_glide_ecoul>  (36) 
-3.01325

>  <r_i_glide_erotb>  (36) 
0

>  <r_i_glide_esite>  (36) 
-0.0357054

>  <r_i_glide_emodel>  (36) 
-16.0188

>  <r_i_glide_energy>  (36) 
-18.0869

>  <r_i_glide_einternal>  (36) 
3.34296

>  <r_i_glide_intrahb_reward>  (36) 
-0

>  <i_i_glide_confnum>  (36) 
1

>  <i_i_glide_posenum>  (36) 
34

>  <r_i_glide_eff_state_penalty>  (36) 
0

>  <ligand_id>  (36) 
11

>  <original_smiles>  (36) 
CC1=C2C34C(C)CC5(CO5)C(C)C3C3(C)C(O)OC4C(O)C3(C)C2(O)CC1O

>  <smiles>  (36) 
[H]OC1([H])OC2([H])C([H])(O[H])C3(C([H])([H])[H])C4(O[H])C(=C(C([H])([H])[H])C([H])(O[H])C4([H])[H])C24C([H])(C([H])([H])[H])C([H])([H])C2(OC2([H])[H])C([H])(C([H])([H])[H])C4([H])C13C([H])([H])[H]

$$$$
13:0:0
     RDKit          3D

 53 56  0  0  1  0  0  0  0  0999 V2000
    0.8121    1.6521    5.5014 C   0  0  0  0  0  0  0  0  0  0  0  0
    0.5500    0.2324    4.9532 C   0  0  2  0  0  0  0  0  0  0  0  0
   -0.6817   -0.4408    5.6031 C   0  0  0  0  0  0  0  0  0  0  0  0
   -1.4761    0.2191    6.2632 O   0  0  0  0  0  0  0  0  0  0  0  0
   -0.8725   -1.8962    5.4009 C   0  0  0  0  0  0  0  0  0  0  0  0
    0.1218   -2.6749    4.9159 C   0  0  0  0  0  0  0  0  0  0  0  0
    1.4225   -2.1051    4.6222 C   0  0  0  0  0  0  0  0  0  0  0  0
    2.4440   -2.6786    3.9820 C   0  0  0  0  0  0  0  0  0  0  0  0
    2.5874   -4.1011    3.4660 C   0  0  0  0  0  0  0  0  0  0  0  0
    3.1572   -4.1483    2.0378 C   0  0  0  0  0  0  0  0  0  0  0  0
    4.4370   -3.2838    1.8044 C   0  0  1  0  0  0  0  0  0  0  0  0
    5.4149   -3.8975    2.6268 O   0  0  0  0  0  0  0  0  0  0  0  0
    4.9465   -3.3983    0.3040 C   0  0  0  0  0  0  0  0  0  0  0  0
    6.4002   -2.8801    0.0810 C   0  0  0  0  0  0  0  0  0  0  0  0
    4.9631   -4.8619   -0.2109 C   0  0  0  0  0  0  0  0  0  0  0  0
    4.0000   -2.6134   -0.6269 C   0  0  0  0  0  0  0  0  0  0  0  0
    3.8333   -1.1507   -0.2016 C   0  0  0  0  0  0  0  0  0  0  0  0
    3.3545   -0.9946    1.2519 C   0  0  1  0  0  0  0  0  0  0  0  0
    1.9898   -1.3501    1.2863 O   0  0  0  0  0  0  0  0  0  0  0  0
    4.1883   -1.7964    2.3080 C   0  0  2  0  0  0  0  0  0  0  0  0
    5.3975   -1.0705    2.3659 O   0  0  0  0  0  0  0  0  0  0  0  0
    3.6109   -1.7457    3.7857 C   0  0  2  0  0  0  0  0  0  0  0  0
    4.5920   -2.1342    4.7300 O   0  0  0  0  0  0  0  0  0  0  0  0
    3.0336   -0.3747    4.2580 C   0  0  0  0  0  0  0  0  0  0  0  0
    1.7711   -0.7127    5.0885 C   0  0  1  0  0  0  0  0  0  0  0  0
   -0.0230    2.3079    5.2724 H   0  0  0  0  0  0  0  0  0  0  0  0
    1.6954    2.0985    5.0425 H   0  0  0  0  0  0  0  0  0  0  0  0
    0.9537    1.6700    6.5832 H   0  0  0  0  0  0  0  0  0  0  0  0
    0.3162    0.3331    3.8926 H   0  0  0  0  0  0  0  0  0  0  0  0
   -1.8487   -2.2935    5.6202 H   0  0  0  0  0  0  0  0  0  0  0  0
   -0.0533   -3.7232    4.7329 H   0  0  0  0  0  0  0  0  0  0  0  0
    3.2765   -4.6172    4.1334 H   0  0  0  0  0  0  0  0  0  0  0  0
    1.6367   -4.6338    3.5267 H   0  0  0  0  0  0  0  0  0  0  0  0
    3.3468   -5.2019    1.8129 H   0  0  0  0  0  0  0  0  0  0  0  0
    2.3656   -3.8410    1.3601 H   0  0  0  0  0  0  0  0  0  0  0  0
    5.5414   -4.7888    2.3264 H   0  0  0  0  0  0  0  0  0  0  0  0
    6.7125   -3.0154   -0.9611 H   0  0  0  0  0  0  0  0  0  0  0  0
    7.1250   -3.4114    0.7002 H   0  0  0  0  0  0  0  0  0  0  0  0
    6.5251   -1.8204    0.2794 H   0  0  0  0  0  0  0  0  0  0  0  0
    5.4080   -4.9284   -1.2088 H   0  0  0  0  0  0  0  0  0  0  0  0
    3.9582   -5.2689   -0.3211 H   0  0  0  0  0  0  0  0  0  0  0  0
    5.5309   -5.5293    0.4390 H   0  0  0  0  0  0  0  0  0  0  0  0
    4.3539   -2.6531   -1.6636 H   0  0  0  0  0  0  0  0  0  0  0  0
    3.0156   -3.0818   -0.6470 H   0  0  0  0  0  0  0  0  0  0  0  0
    4.7708   -0.6171   -0.3384 H   0  0  0  0  0  0  0  0  0  0  0  0
    3.1298   -0.6645   -0.8806 H   0  0  0  0  0  0  0  0  0  0  0  0
    3.4089    0.0760    1.4543 H   0  0  0  0  0  0  0  0  0  0  0  0
    1.5734   -1.0980    0.4375 H   0  0  0  0  0  0  0  0  0  0  0  0
    5.8002   -1.1121    1.5103 H   0  0  0  0  0  0  0  0  0  0  0  0
    5.0233   -2.8947    4.3590 H   0  0  0  0  0  0  0  0  0  0  0  0
    3.7630    0.2365    4.7977 H   0  0  0  0  0  0  0  0  0  0  0  0
    2.6881    0.2310    3.4231 H   0  0  0  0  0  0  0  0  0  0  0  0
    2.0643   -0.8045    6.1370 H   0  0  0  0  0  0  0  0  0  0  0  0
  1  2  1  0
  1 26  1  0
  1 27  1  0
  1 28  1  0
  2 25  1  0
  2  3  1  0
  2 29  1  6
  3  4  2  0
  3  5  1  0
  5  6  2  0
  5 30  1  0
  6  7  1  0
  6 31  1  0
  7 25  1  0
  7  8  2  0
  8 22  1  0
  8  9  1  0
  9 10  1  0
  9 32  1  0
  9 33  1  0
 10 11  1  0
 10 34  1  0
 10 35  1  0
 11 20  1  0
 11 12  1  1
 11 13  1  0
 12 36  1  0
 13 14  1  0
 13 15  1  0
 13 16  1  0
 14 37  1  0
 14 38  1  0
 14 39  1  0
 15 40  1  0
 15 41  1  0
 15 42  1  0
 16 17  1  0
 16 43  1  0
 16 44  1  0
 17 18  1  0
 17 45  1  0
 17 46  1  0
 18 19  1  0
 18 20  1  0
 18 47  1  1
 19 48  1  0
 20 21  1  1
 20 22  1  0
 21 49  1  0
 22 23  1  1
 22 24  1  0
 23 50  1  0
 24 25  1  0
 24 51  1  0
 24 52  1  0
 25 53  1  1
M  END
>  <i_m_ct_stereo_status>  (37) 
1

>  <s_m_source_file>  (37) 
/var/tmp/pbs.5076255.sched01/tmp0du1nuht/0914ajmtz.sdf

>  <i_m_source_file_index>  (37) 
16

>  <i_lp_mmshare_version>  (37) 
48012

>  <i_f3d_flags>  (37) 
0

>  <s_epik_input>  (37) 
W0NIXTE9W0NIXUMoPU8pW0NAQEhdKFtDSDNdKVtDQEhdKFtDSDJdMilDMT1DKFtDSDJdW0NIMl0zKVtDQEBdMihbT0hdKVtDQEBdKFtPSF0pKFtDQEBdMzRbT0hdKVtDQEhdKFtPSF0pW0NIMl1bQ0gyXUM0KFtDSDNdKVtDSDNd

>  <s_epik_cmdline>  (37) 
J2VwaWtfcHl0aG9uJywgJy1waHQnLCAnMi4wJywgJy1waCcsICc3LjAnLCAnLXRuJywgJzgnLCAnLW1hJywgJzIwMCcsICctaW1hZScsICc8aW5maWxlLm1hZT4nLCAnLW9tYWUnLCAnPG91dGZpbGUubWFlPic=

>  <r_lp_tautomer_probability>  (37) 
1

>  <r_epik_Ionization_Penalty>  (37) 
6.46477e-07

>  <r_epik_Ionization_Penalty_Charging>  (37) 
0

>  <r_epik_Ionization_Penalty_Neutral>  (37) 
6.46477e-07

>  <r_epik_State_Penalty>  (37) 
-0

>  <r_epik_Charging_Adjusted_Penalty>  (37) 
0

>  <i_epik_Tot_Q>  (37) 
0

>  <i_epik_Tot_abs_Q>  (37) 
0

>  <s_lp_Force_Field>  (37) 
OPLS3e

>  <r_lp_Energy>  (37) 
40.7106

>  <b_lp_Chiralities_Consistent>  (37) 
1

>  <s_lp_Variant>  (37) 
13:0-1

>  <s_i_glide_gridfile>  (37) 
pfpi4k_grid

>  <i_i_glide_lignum>  (37) 
16

>  <i_i_glide_rotatable_bonds>  (37) 
4

>  <r_i_docking_score>  (37) 
-4.16989

>  <r_i_glide_ligand_efficiency>  (37) 
-0.166796

>  <r_i_glide_ligand_efficiency_sa>  (37) 
-0.487713

>  <r_i_glide_ligand_efficiency_ln>  (37) 
-0.988389

>  <r_i_glide_gscore>  (37) 
-4.16989

>  <r_i_glide_lipo>  (37) 
-0.145317

>  <r_i_glide_hbond>  (37) 
-0.283068

>  <r_i_glide_metal>  (37) 
-0

>  <r_i_glide_rewards>  (37) 
-1.53341

>  <r_i_glide_evdw>  (37) 
-18.5144

>  <r_i_glide_ecoul>  (37) 
-8.3088

>  <r_i_glide_erotb>  (37) 
0

>  <r_i_glide_esite>  (37) 
-0.0360567

>  <r_i_glide_emodel>  (37) 
-39.2382

>  <r_i_glide_energy>  (37) 
-26.8232

>  <r_i_glide_einternal>  (37) 
0.74935

>  <r_i_glide_intrahb_reward>  (37) 
-0.5

>  <i_i_glide_confnum>  (37) 
1

>  <i_i_glide_posenum>  (37) 
39

>  <r_i_glide_eff_state_penalty>  (37) 
0

>  <ligand_id>  (37) 
13

>  <original_smiles>  (37) 
CC1C(=O)C=CC2=C3CCC4(O)C(C)(C)CCC(O)C4(O)C3(O)CC21

>  <smiles>  (37) 
[H]OC1([H])C([H])([H])C([H])([H])C(C([H])([H])[H])(C([H])([H])[H])C2(O[H])C([H])([H])C([H])([H])C3=C4C([H])=C([H])C(=O)C([H])(C([H])([H])[H])C4([H])C([H])([H])C3(O[H])C12O[H]

$$$$
13:0:1
     RDKit          3D

 53 56  0  0  1  0  0  0  0  0999 V2000
    0.9495    1.5490    5.5276 C   0  0  0  0  0  0  0  0  0  0  0  0
    0.6751    0.1318    4.9806 C   0  0  2  0  0  0  0  0  0  0  0  0
   -0.5528   -0.5341    5.6457 C   0  0  0  0  0  0  0  0  0  0  0  0
   -1.3432    0.1302    6.3155 O   0  0  0  0  0  0  0  0  0  0  0  0
   -0.7550   -1.9867    5.4353 C   0  0  0  0  0  0  0  0  0  0  0  0
    0.2273   -2.7696    4.9300 C   0  0  0  0  0  0  0  0  0  0  0  0
    1.5307   -2.2095    4.6185 C   0  0  0  0  0  0  0  0  0  0  0  0
    2.5440   -2.7849    3.9621 C   0  0  0  0  0  0  0  0  0  0  0  0
    2.6730   -4.2059    3.4371 C   0  0  0  0  0  0  0  0  0  0  0  0
    3.2164   -4.2467    1.9985 C   0  0  0  0  0  0  0  0  0  0  0  0
    4.4957   -3.3908    1.7378 C   0  0  1  0  0  0  0  0  0  0  0  0
    5.5040   -3.9949    2.5295 O   0  0  0  0  0  0  0  0  0  0  0  0
    4.9800   -3.4961    0.2300 C   0  0  0  0  0  0  0  0  0  0  0  0
    6.4342   -2.9775   -0.0060 C   0  0  0  0  0  0  0  0  0  0  0  0
    4.9809   -4.9550   -0.2880 C   0  0  0  0  0  0  0  0  0  0  0  0
    4.0201   -2.7000   -0.6773 C   0  0  0  0  0  0  0  0  0  0  0  0
    3.8684   -1.2374   -0.2431 C   0  0  0  0  0  0  0  0  0  0  0  0
    3.4150   -1.0845    1.2180 C   0  0  1  0  0  0  0  0  0  0  0  0
    2.0555   -1.4343    1.2860 O   0  0  0  0  0  0  0  0  0  0  0  0
    4.2612   -1.9067    2.2533 C   0  0  2  0  0  0  0  0  0  0  0  0
    5.4929   -1.2091    2.2894 O   0  0  0  0  0  0  0  0  0  0  0  0
    3.7124   -1.8534    3.7424 C   0  0  2  0  0  0  0  0  0  0  0  0
    4.7247   -2.2305    4.6619 O   0  0  0  0  0  0  0  0  0  0  0  0
    3.1427   -0.4834    4.2352 C   0  0  0  0  0  0  0  0  0  0  0  0
    1.8945   -0.8233    5.0869 C   0  0  1  0  0  0  0  0  0  0  0  0
    0.1122    2.2103    5.3141 H   0  0  0  0  0  0  0  0  0  0  0  0
    1.8270    1.9940    5.0576 H   0  0  0  0  0  0  0  0  0  0  0  0
    1.1073    1.5622    6.6072 H   0  0  0  0  0  0  0  0  0  0  0  0
    0.4231    0.2372    3.9242 H   0  0  0  0  0  0  0  0  0  0  0  0
   -1.7259   -2.3883    5.6674 H   0  0  0  0  0  0  0  0  0  0  0  0
    0.0379   -3.8148    4.7438 H   0  0  0  0  0  0  0  0  0  0  0  0
    3.3703   -4.7350    4.0853 H   0  0  0  0  0  0  0  0  0  0  0  0
    1.7225   -4.7367    3.5049 H   0  0  0  0  0  0  0  0  0  0  0  0
    3.4041   -5.2961    1.7622 H   0  0  0  0  0  0  0  0  0  0  0  0
    2.4165   -3.9318    1.3331 H   0  0  0  0  0  0  0  0  0  0  0  0
    6.2906   -3.4901    2.3902 H   0  0  0  0  0  0  0  0  0  0  0  0
    6.7295   -3.0990   -1.0518 H   0  0  0  0  0  0  0  0  0  0  0  0
    7.1701   -3.5174    0.5916 H   0  0  0  0  0  0  0  0  0  0  0  0
    6.5593   -1.9201    0.2102 H   0  0  0  0  0  0  0  0  0  0  0  0
    5.4112   -5.0185   -1.2893 H   0  0  0  0  0  0  0  0  0  0  0  0
    3.9718   -5.3554   -0.3784 H   0  0  0  0  0  0  0  0  0  0  0  0
    5.5523   -5.6225    0.3575 H   0  0  0  0  0  0  0  0  0  0  0  0
    4.3571   -2.7363   -1.7163 H   0  0  0  0  0  0  0  0  0  0  0  0
    3.0333   -3.1643   -0.6802 H   0  0  0  0  0  0  0  0  0  0  0  0
    4.8124   -0.7095   -0.3876 H   0  0  0  0  0  0  0  0  0  0  0  0
    3.1569   -0.7431   -0.9074 H   0  0  0  0  0  0  0  0  0  0  0  0
    3.4815   -0.0158    1.4281 H   0  0  0  0  0  0  0  0  0  0  0  0
    1.5861   -1.0549    0.5362 H   0  0  0  0  0  0  0  0  0  0  0  0
    5.3215   -0.3573    2.6539 H   0  0  0  0  0  0  0  0  0  0  0  0
    5.0788   -3.0480    4.3413 H   0  0  0  0  0  0  0  0  0  0  0  0
    3.8759    0.1227    4.7707 H   0  0  0  0  0  0  0  0  0  0  0  0
    2.7821    0.1278    3.4107 H   0  0  0  0  0  0  0  0  0  0  0  0
    2.2044   -0.9172    6.1313 H   0  0  0  0  0  0  0  0  0  0  0  0
  1  2  1  0
  1 26  1  0
  1 27  1  0
  1 28  1  0
  2 25  1  0
  2  3  1  0
  2 29  1  6
  3  4  2  0
  3  5  1  0
  5  6  2  0
  5 30  1  0
  6  7  1  0
  6 31  1  0
  7 25  1  0
  7  8  2  0
  8 22  1  0
  8  9  1  0
  9 10  1  0
  9 32  1  0
  9 33  1  0
 10 11  1  0
 10 34  1  0
 10 35  1  0
 11 20  1  0
 11 12  1  1
 11 13  1  0
 12 36  1  0
 13 14  1  0
 13 15  1  0
 13 16  1  0
 14 37  1  0
 14 38  1  0
 14 39  1  0
 15 40  1  0
 15 41  1  0
 15 42  1  0
 16 17  1  0
 16 43  1  0
 16 44  1  0
 17 18  1  0
 17 45  1  0
 17 46  1  0
 18 19  1  0
 18 20  1  0
 18 47  1  1
 19 48  1  0
 20 21  1  1
 20 22  1  0
 21 49  1  0
 22 23  1  1
 22 24  1  0
 23 50  1  0
 24 25  1  0
 24 51  1  0
 24 52  1  0
 25 53  1  1
M  END
>  <i_m_ct_stereo_status>  (38) 
1

>  <s_m_source_file>  (38) 
/var/tmp/pbs.5076255.sched01/tmp0du1nuht/0914ajmtz.sdf

>  <i_m_source_file_index>  (38) 
16

>  <i_lp_mmshare_version>  (38) 
48012

>  <i_f3d_flags>  (38) 
0

>  <s_epik_input>  (38) 
W0NIXTE9W0NIXUMoPU8pW0NAQEhdKFtDSDNdKVtDQEhdKFtDSDJdMilDMT1DKFtDSDJdW0NIMl0zKVtDQEBdMihbT0hdKVtDQEBdKFtPSF0pKFtDQEBdMzRbT0hdKVtDQEhdKFtPSF0pW0NIMl1bQ0gyXUM0KFtDSDNdKVtDSDNd

>  <s_epik_cmdline>  (38) 
J2VwaWtfcHl0aG9uJywgJy1waHQnLCAnMi4wJywgJy1waCcsICc3LjAnLCAnLXRuJywgJzgnLCAnLW1hJywgJzIwMCcsICctaW1hZScsICc8aW5maWxlLm1hZT4nLCAnLW9tYWUnLCAnPG91dGZpbGUubWFlPic=

>  <r_lp_tautomer_probability>  (38) 
1

>  <r_epik_Ionization_Penalty>  (38) 
6.46477e-07

>  <r_epik_Ionization_Penalty_Charging>  (38) 
0

>  <r_epik_Ionization_Penalty_Neutral>  (38) 
6.46477e-07

>  <r_epik_State_Penalty>  (38) 
-0

>  <r_epik_Charging_Adjusted_Penalty>  (38) 
0

>  <i_epik_Tot_Q>  (38) 
0

>  <i_epik_Tot_abs_Q>  (38) 
0

>  <s_lp_Force_Field>  (38) 
OPLS3e

>  <r_lp_Energy>  (38) 
40.7106

>  <b_lp_Chiralities_Consistent>  (38) 
1

>  <s_lp_Variant>  (38) 
13:0-1

>  <s_i_glide_gridfile>  (38) 
pfpi4k_grid

>  <i_i_glide_lignum>  (38) 
16

>  <i_i_glide_rotatable_bonds>  (38) 
4

>  <r_i_docking_score>  (38) 
-3.96867

>  <r_i_glide_ligand_efficiency>  (38) 
-0.158747

>  <r_i_glide_ligand_efficiency_sa>  (38) 
-0.464178

>  <r_i_glide_ligand_efficiency_ln>  (38) 
-0.940693

>  <r_i_glide_gscore>  (38) 
-3.96867

>  <r_i_glide_lipo>  (38) 
-0.147207

>  <r_i_glide_hbond>  (38) 
-0.295276

>  <r_i_glide_metal>  (38) 
-0

>  <r_i_glide_rewards>  (38) 
-1.53341

>  <r_i_glide_evdw>  (38) 
-19.1271

>  <r_i_glide_ecoul>  (38) 
-6.68234

>  <r_i_glide_erotb>  (38) 
0

>  <r_i_glide_esite>  (38) 
-0.034073

>  <r_i_glide_emodel>  (38) 
-37.9784

>  <r_i_glide_energy>  (38) 
-25.8094

>  <r_i_glide_einternal>  (38) 
0.596527

>  <r_i_glide_intrahb_reward>  (38) 
-0.5

>  <i_i_glide_confnum>  (38) 
1

>  <i_i_glide_posenum>  (38) 
13

>  <r_i_glide_eff_state_penalty>  (38) 
0

>  <ligand_id>  (38) 
13

>  <original_smiles>  (38) 
CC1C(=O)C=CC2=C3CCC4(O)C(C)(C)CCC(O)C4(O)C3(O)CC21

>  <smiles>  (38) 
[H]OC1([H])C([H])([H])C([H])([H])C(C([H])([H])[H])(C([H])([H])[H])C2(O[H])C([H])([H])C([H])([H])C3=C4C([H])=C([H])C(=O)C([H])(C([H])([H])[H])C4([H])C([H])([H])C3(O[H])C12O[H]

$$$$
13:0:2
     RDKit          3D

 53 56  0  0  1  0  0  0  0  0999 V2000
    5.3941   -4.3956    6.9728 C   0  0  0  0  0  0  0  0  0  0  0  0
    4.1690   -4.4014    6.0307 C   0  0  2  0  0  0  0  0  0  0  0  0
    2.8917   -4.9351    6.7188 C   0  0  0  0  0  0  0  0  0  0  0  0
    2.8532   -5.0348    7.9413 O   0  0  0  0  0  0  0  0  0  0  0  0
    1.7369   -5.2902    5.8606 C   0  0  0  0  0  0  0  0  0  0  0  0
    1.8574   -5.4053    4.5223 C   0  0  0  0  0  0  0  0  0  0  0  0
    3.1529   -5.2268    3.8886 C   0  0  0  0  0  0  0  0  0  0  0  0
    3.4235   -5.1320    2.5788 C   0  0  0  0  0  0  0  0  0  0  0  0
    2.5067   -5.2740    1.3932 C   0  0  0  0  0  0  0  0  0  0  0  0
    2.7281   -4.1650    0.3490 C   0  0  0  0  0  0  0  0  0  0  0  0
    4.2135   -3.9232   -0.0632 C   0  0  1  0  0  0  0  0  0  0  0  0
    4.6127   -5.1361   -0.6978 O   0  0  0  0  0  0  0  0  0  0  0  0
    4.3448   -2.7537   -1.1353 C   0  0  0  0  0  0  0  0  0  0  0  0
    5.7225   -2.7155   -1.8586 C   0  0  0  0  0  0  0  0  0  0  0  0
    3.2962   -2.8728   -2.2710 C   0  0  0  0  0  0  0  0  0  0  0  0
    4.1024   -1.3920   -0.4433 C   0  0  0  0  0  0  0  0  0  0  0  0
    5.0269   -1.1512    0.7586 C   0  0  0  0  0  0  0  0  0  0  0  0
    4.9323   -2.2602    1.8195 C   0  0  1  0  0  0  0  0  0  0  0  0
    3.7287   -2.0678    2.5315 O   0  0  0  0  0  0  0  0  0  0  0  0
    5.0972   -3.7146    1.2438 C   0  0  2  0  0  0  0  0  0  0  0  0
    6.4749   -3.7663    0.9071 O   0  0  0  0  0  0  0  0  0  0  0  0
    4.8833   -4.8745    2.3117 C   0  0  2  0  0  0  0  0  0  0  0  0
    5.4490   -6.0848    1.8494 O   0  0  0  0  0  0  0  0  0  0  0  0
    5.4532   -4.6330    3.7380 C   0  0  0  0  0  0  0  0  0  0  0  0
    4.4072   -5.1944    4.7211 C   0  0  1  0  0  0  0  0  0  0  0  0
    5.2223   -3.7393    7.8238 H   0  0  0  0  0  0  0  0  0  0  0  0
    6.2904   -4.0298    6.4679 H   0  0  0  0  0  0  0  0  0  0  0  0
    5.6195   -5.3854    7.3714 H   0  0  0  0  0  0  0  0  0  0  0  0
    3.9596   -3.3618    5.7697 H   0  0  0  0  0  0  0  0  0  0  0  0
    0.7826   -5.4111    6.3487 H   0  0  0  0  0  0  0  0  0  0  0  0
    0.9914   -5.6225    3.9118 H   0  0  0  0  0  0  0  0  0  0  0  0
    2.7181   -6.2409    0.9305 H   0  0  0  0  0  0  0  0  0  0  0  0
    1.4677   -5.3043    1.7205 H   0  0  0  0  0  0  0  0  0  0  0  0
    2.1351   -4.4288   -0.5223 H   0  0  0  0  0  0  0  0  0  0  0  0
    2.2901   -3.2479    0.7335 H   0  0  0  0  0  0  0  0  0  0  0  0
    4.0221   -5.3169   -1.4289 H   0  0  0  0  0  0  0  0  0  0  0  0
    5.7367   -1.9204   -2.6028 H   0  0  0  0  0  0  0  0  0  0  0  0
    5.9338   -3.6488   -2.3818 H   0  0  0  0  0  0  0  0  0  0  0  0
    6.5572   -2.5191   -1.1923 H   0  0  0  0  0  0  0  0  0  0  0  0
    3.4819   -2.1294   -3.0485 H   0  0  0  0  0  0  0  0  0  0  0  0
    2.2820   -2.6878   -1.9170 H   0  0  0  0  0  0  0  0  0  0  0  0
    3.3205   -3.8535   -2.7508 H   0  0  0  0  0  0  0  0  0  0  0  0
    4.2410   -0.5824   -1.1661 H   0  0  0  0  0  0  0  0  0  0  0  0
    3.0663   -1.3136   -0.1172 H   0  0  0  0  0  0  0  0  0  0  0  0
    6.0572   -1.0665    0.4141 H   0  0  0  0  0  0  0  0  0  0  0  0
    4.7930   -0.1842    1.2091 H   0  0  0  0  0  0  0  0  0  0  0  0
    5.7405   -2.0557    2.5198 H   0  0  0  0  0  0  0  0  0  0  0  0
    3.0081   -2.0930    1.9140 H   0  0  0  0  0  0  0  0  0  0  0  0
    6.9726   -3.7540    1.7115 H   0  0  0  0  0  0  0  0  0  0  0  0
    5.1845   -6.1681    0.9388 H   0  0  0  0  0  0  0  0  0  0  0  0
    6.4399   -5.0663    3.8859 H   0  0  0  0  0  0  0  0  0  0  0  0
    5.5515   -3.5756    3.9672 H   0  0  0  0  0  0  0  0  0  0  0  0
    4.6668   -6.2308    4.9553 H   0  0  0  0  0  0  0  0  0  0  0  0
  1  2  1  0
  1 26  1  0
  1 27  1  0
  1 28  1  0
  2 25  1  0
  2  3  1  0
  2 29  1  6
  3  4  2  0
  3  5  1  0
  5  6  2  0
  5 30  1  0
  6  7  1  0
  6 31  1  0
  7 25  1  0
  7  8  2  0
  8 22  1  0
  8  9  1  0
  9 10  1  0
  9 32  1  0
  9 33  1  0
 10 11  1  0
 10 34  1  0
 10 35  1  0
 11 20  1  0
 11 12  1  6
 11 13  1  0
 12 36  1  0
 13 14  1  0
 13 15  1  0
 13 16  1  0
 14 37  1  0
 14 38  1  0
 14 39  1  0
 15 40  1  0
 15 41  1  0
 15 42  1  0
 16 17  1  0
 16 43  1  0
 16 44  1  0
 17 18  1  0
 17 45  1  0
 17 46  1  0
 18 19  1  0
 18 20  1  0
 18 47  1  1
 19 48  1  0
 20 21  1  6
 20 22  1  0
 21 49  1  0
 22 23  1  6
 22 24  1  0
 23 50  1  0
 24 25  1  0
 24 51  1  0
 24 52  1  0
 25 53  1  1
M  END
>  <i_m_ct_stereo_status>  (39) 
1

>  <s_m_source_file>  (39) 
/var/tmp/pbs.5076255.sched01/tmp0du1nuht/0914ajmtz.sdf

>  <i_m_source_file_index>  (39) 
16

>  <i_lp_mmshare_version>  (39) 
48012

>  <i_f3d_flags>  (39) 
0

>  <s_epik_input>  (39) 
W0NIXTE9W0NIXUMoPU8pW0NAQEhdKFtDSDNdKVtDQEhdKFtDSDJdMilDMT1DKFtDSDJdW0NIMl0zKVtDQEBdMihbT0hdKVtDQEBdKFtPSF0pKFtDQEBdMzRbT0hdKVtDQEhdKFtPSF0pW0NIMl1bQ0gyXUM0KFtDSDNdKVtDSDNd

>  <s_epik_cmdline>  (39) 
J2VwaWtfcHl0aG9uJywgJy1waHQnLCAnMi4wJywgJy1waCcsICc3LjAnLCAnLXRuJywgJzgnLCAnLW1hJywgJzIwMCcsICctaW1hZScsICc8aW5maWxlLm1hZT4nLCAnLW9tYWUnLCAnPG91dGZpbGUubWFlPic=

>  <r_lp_tautomer_probability>  (39) 
1

>  <r_epik_Ionization_Penalty>  (39) 
6.46477e-07

>  <r_epik_Ionization_Penalty_Charging>  (39) 
0

>  <r_epik_Ionization_Penalty_Neutral>  (39) 
6.46477e-07

>  <r_epik_State_Penalty>  (39) 
-0

>  <r_epik_Charging_Adjusted_Penalty>  (39) 
0

>  <i_epik_Tot_Q>  (39) 
0

>  <i_epik_Tot_abs_Q>  (39) 
0

>  <s_lp_Force_Field>  (39) 
OPLS3e

>  <r_lp_Energy>  (39) 
40.7106

>  <b_lp_Chiralities_Consistent>  (39) 
1

>  <s_lp_Variant>  (39) 
13:0-1

>  <s_i_glide_gridfile>  (39) 
pfpi4k_grid

>  <i_i_glide_lignum>  (39) 
16

>  <i_i_glide_rotatable_bonds>  (39) 
4

>  <r_i_docking_score>  (39) 
-3.56049

>  <r_i_glide_ligand_efficiency>  (39) 
-0.14242

>  <r_i_glide_ligand_efficiency_sa>  (39) 
-0.416437

>  <r_i_glide_ligand_efficiency_ln>  (39) 
-0.843943

>  <r_i_glide_gscore>  (39) 
-3.56049

>  <r_i_glide_lipo>  (39) 
-0.195668

>  <r_i_glide_hbond>  (39) 
0

>  <r_i_glide_metal>  (39) 
-0

>  <r_i_glide_rewards>  (39) 
-1.53341

>  <r_i_glide_evdw>  (39) 
-21.3885

>  <r_i_glide_ecoul>  (39) 
-5.07991

>  <r_i_glide_erotb>  (39) 
0

>  <r_i_glide_esite>  (39) 
0

>  <r_i_glide_emodel>  (39) 
-38.1295

>  <r_i_glide_energy>  (39) 
-26.4684

>  <r_i_glide_einternal>  (39) 
0.0966539

>  <r_i_glide_intrahb_reward>  (39) 
-0.5

>  <i_i_glide_confnum>  (39) 
2

>  <i_i_glide_posenum>  (39) 
28

>  <r_i_glide_eff_state_penalty>  (39) 
0

>  <ligand_id>  (39) 
13

>  <original_smiles>  (39) 
CC1C(=O)C=CC2=C3CCC4(O)C(C)(C)CCC(O)C4(O)C3(O)CC21

>  <smiles>  (39) 
[H]OC1([H])C([H])([H])C([H])([H])C(C([H])([H])[H])(C([H])([H])[H])C2(O[H])C([H])([H])C([H])([H])C3=C4C([H])=C([H])C(=O)C([H])(C([H])([H])[H])C4([H])C([H])([H])C3(O[H])C12O[H]

$$$$
14:0:0
     RDKit          3D

 51 54  0  0  1  0  0  0  0  0999 V2000
    2.4428   -4.7627    0.0076 C   0  0  0  0  0  0  0  0  0  0  0  0
    3.1571   -3.4039    0.2380 C   0  0  2  0  0  0  0  0  0  0  0  0
    4.4290   -3.2745   -0.6839 C   0  0  1  0  0  0  0  0  0  0  0  0
    4.2947   -2.7757   -2.1737 C   0  0  0  0  0  0  0  0  0  0  0  0
    5.2837   -3.4714   -3.1110 C   0  0  0  0  0  0  0  0  0  0  0  0
    2.8879   -2.8569   -2.7823 C   0  0  0  0  0  0  0  0  0  0  0  0
    4.5674   -1.3999   -2.2961 O   0  0  0  0  0  0  0  0  0  0  0  0
    5.7306   -3.0282   -0.1061 O   0  0  0  0  0  0  0  0  0  0  0  0
    6.1403   -1.9705    0.7526 C   0  0  1  0  0  0  0  0  0  0  0  0
    7.6423   -1.8326    0.4740 C   0  0  0  0  0  0  0  0  0  0  0  0
    5.4251   -0.6355    0.4969 C   0  0  0  0  0  0  0  0  0  0  0  0
    3.9792   -0.6716    1.0027 C   0  0  0  0  0  0  0  0  0  0  0  0
    3.7677   -1.7239    2.1229 C   0  0  1  0  0  0  0  0  0  0  0  0
    2.6591   -1.2242    2.8780 O   0  0  0  0  0  0  0  0  0  0  0  0
    2.8853   -1.3615    4.3787 O   0  0  0  0  0  0  0  0  0  0  0  0
    3.6467   -2.5237    4.6615 C   0  0  1  0  0  0  0  0  0  0  0  0
    3.8356   -2.5478    6.1841 C   0  0  0  0  0  0  0  0  0  0  0  0
    2.9754   -3.8324    4.1798 C   0  0  0  0  0  0  0  0  0  0  0  0
    2.4644   -3.8270    2.7303 C   0  0  0  0  0  0  0  0  0  0  0  0
    3.4865   -3.2143    1.7345 C   0  0  1  0  0  0  0  0  0  0  0  0
    4.9533   -2.4284    4.1188 O   0  0  0  0  0  0  0  0  0  0  0  0
    5.0776   -1.7166    2.9208 C   0  0  1  0  0  0  0  0  0  0  0  0
    6.0905   -2.2959    2.1198 O   0  0  0  0  0  0  0  0  0  0  0  0
    3.0223   -5.6095    0.3837 H   0  0  0  0  0  0  0  0  0  0  0  0
    2.2345   -4.9410   -1.0449 H   0  0  0  0  0  0  0  0  0  0  0  0
    1.4602   -4.8043    0.4649 H   0  0  0  0  0  0  0  0  0  0  0  0
    2.4241   -2.6519   -0.0395 H   0  0  0  0  0  0  0  0  0  0  0  0
    4.6182   -4.3320   -0.8614 H   0  0  0  0  0  0  0  0  0  0  0  0
    5.1191   -4.5476   -3.1451 H   0  0  0  0  0  0  0  0  0  0  0  0
    6.3244   -3.3042   -2.8197 H   0  0  0  0  0  0  0  0  0  0  0  0
    5.1456   -3.1054   -4.1269 H   0  0  0  0  0  0  0  0  0  0  0  0
    2.4833   -3.8539   -2.8135 H   0  0  0  0  0  0  0  0  0  0  0  0
    2.8683   -2.5023   -3.8148 H   0  0  0  0  0  0  0  0  0  0  0  0
    2.1929   -2.2352   -2.2310 H   0  0  0  0  0  0  0  0  0  0  0  0
    4.0104   -0.9315   -1.7167 H   0  0  0  0  0  0  0  0  0  0  0  0
    8.0580   -1.0363    1.0914 H   0  0  0  0  0  0  0  0  0  0  0  0
    7.8095   -1.6007   -0.5724 H   0  0  0  0  0  0  0  0  0  0  0  0
    8.1680   -2.7638    0.7042 H   0  0  0  0  0  0  0  0  0  0  0  0
    5.9606    0.1100    1.0768 H   0  0  0  0  0  0  0  0  0  0  0  0
    5.5468   -0.3010   -0.5243 H   0  0  0  0  0  0  0  0  0  0  0  0
    3.7750    0.3158    1.4140 H   0  0  0  0  0  0  0  0  0  0  0  0
    3.2659   -0.7553    0.1926 H   0  0  0  0  0  0  0  0  0  0  0  0
    4.3018   -1.6193    6.5131 H   0  0  0  0  0  0  0  0  0  0  0  0
    4.4771   -3.3755    6.4892 H   0  0  0  0  0  0  0  0  0  0  0  0
    2.8791   -2.6481    6.6998 H   0  0  0  0  0  0  0  0  0  0  0  0
    3.7027   -4.6397    4.2828 H   0  0  0  0  0  0  0  0  0  0  0  0
    2.1498   -4.1061    4.8392 H   0  0  0  0  0  0  0  0  0  0  0  0
    2.2672   -4.8721    2.5015 H   0  0  0  0  0  0  0  0  0  0  0  0
    1.4995   -3.3211    2.6725 H   0  0  0  0  0  0  0  0  0  0  0  0
    4.3646   -3.8373    1.9040 H   0  0  0  0  0  0  0  0  0  0  0  0
    5.3580   -0.6993    3.1905 H   0  0  0  0  0  0  0  0  0  0  0  0
  1  2  1  0
  1 24  1  0
  1 25  1  0
  1 26  1  0
  2 20  1  0
  2  3  1  0
  2 27  1  6
  3  4  1  0
  3  8  1  0
  3 28  1  6
  4  5  1  0
  4  6  1  0
  4  7  1  0
  5 29  1  0
  5 30  1  0
  5 31  1  0
  6 32  1  0
  6 33  1  0
  6 34  1  0
  7 35  1  0
  8  9  1  0
  9 23  1  0
  9 10  1  6
  9 11  1  0
 10 36  1  0
 10 37  1  0
 10 38  1  0
 11 12  1  0
 11 39  1  0
 11 40  1  0
 12 13  1  0
 12 41  1  0
 12 42  1  0
 13 20  1  0
 13 22  1  0
 13 14  1  1
 14 15  1  0
 15 16  1  0
 16 17  1  1
 16 18  1  0
 16 21  1  0
 17 43  1  0
 17 44  1  0
 17 45  1  0
 18 19  1  0
 18 46  1  0
 18 47  1  0
 19 20  1  0
 19 48  1  0
 19 49  1  0
 20 50  1  6
 21 22  1  0
 22 23  1  0
 22 51  1  1
M  END
>  <i_m_ct_stereo_status>  (40) 
1

>  <s_m_source_file>  (40) 
/var/tmp/pbs.5076255.sched01/tmp0du1nuht/0914ajmtz.sdf

>  <i_m_source_file_index>  (40) 
17

>  <i_lp_mmshare_version>  (40) 
48012

>  <i_f3d_flags>  (40) 
0

>  <s_epik_input>  (40) 
W0NAXTEyM1tDQEBIXTRbQ0BIXShbQ0gzXSlbQ0BASF0oQyhbQ0gzXSkoW0NIM10pW09IXSlPW0NAXShbQ0gzXSkoW0NIMl1bQ0gyXTEpT1tDQEBIXTNPW0NAXShPTzIpKFtDSDNdKVtDSDJdW0NIMl00

>  <s_epik_cmdline>  (40) 
J2VwaWtfcHl0aG9uJywgJy1waHQnLCAnMi4wJywgJy1waCcsICc3LjAnLCAnLXRuJywgJzgnLCAnLW1hJywgJzIwMCcsICctaW1hZScsICc8aW5maWxlLm1hZT4nLCAnLW9tYWUnLCAnPG91dGZpbGUubWFlPic=

>  <r_lp_tautomer_probability>  (40) 
1

>  <r_epik_Ionization_Penalty>  (40) 
6.21493e-08

>  <r_epik_Ionization_Penalty_Charging>  (40) 
0

>  <r_epik_Ionization_Penalty_Neutral>  (40) 
6.21493e-08

>  <r_epik_State_Penalty>  (40) 
-0

>  <r_epik_Charging_Adjusted_Penalty>  (40) 
0

>  <i_epik_Tot_Q>  (40) 
0

>  <i_epik_Tot_abs_Q>  (40) 
0

>  <s_epik_Chemistry_Notes>  (40) 
This compound contains an acetal/aminal-like group ( X-CH(R)-Y where X, Y are N, S, or O) that may be acid/base labile, releasing an aldehyde.

>  <s_lp_Force_Field>  (40) 
OPLS3e

>  <r_lp_Energy>  (40) 
61.0165

>  <b_lp_Chiralities_Consistent>  (40) 
1

>  <s_lp_Variant>  (40) 
14:0-1

>  <s_i_glide_gridfile>  (40) 
pfpi4k_grid

>  <i_i_glide_lignum>  (40) 
17

>  <i_i_glide_rotatable_bonds>  (40) 
2

>  <r_i_docking_score>  (40) 
-3.07552

>  <r_i_glide_ligand_efficiency>  (40) 
-0.133718

>  <r_i_glide_ligand_efficiency_sa>  (40) 
-0.380277

>  <r_i_glide_ligand_efficiency_ln>  (40) 
-0.743688

>  <r_i_glide_gscore>  (40) 
-3.07552

>  <r_i_glide_lipo>  (40) 
-0.410391

>  <r_i_glide_hbond>  (40) 
0

>  <r_i_glide_metal>  (40) 
-0

>  <r_i_glide_rewards>  (40) 
-1.42682

>  <r_i_glide_evdw>  (40) 
-22.5376

>  <r_i_glide_ecoul>  (40) 
-1.90383

>  <r_i_glide_erotb>  (40) 
0.174145

>  <r_i_glide_esite>  (40) 
0

>  <r_i_glide_emodel>  (40) 
-25.7515

>  <r_i_glide_energy>  (40) 
-24.4414

>  <r_i_glide_einternal>  (40) 
5.56641

>  <r_i_glide_intrahb_reward>  (40) 
-0

>  <i_i_glide_confnum>  (40) 
6

>  <i_i_glide_posenum>  (40) 
39

>  <r_i_glide_eff_state_penalty>  (40) 
0

>  <ligand_id>  (40) 
14

>  <original_smiles>  (40) 
CC1C(C(C)(C)O)OC2(C)CCC34OOC(C)(CCC13)OC4O2

>  <smiles>  (40) 
[H]OC(C([H])([H])[H])(C([H])([H])[H])C1([H])OC2(C([H])([H])[H])OC3([H])OC4(C([H])([H])[H])OOC3(C([H])([H])C2([H])[H])C([H])(C([H])([H])C4([H])[H])C1([H])C([H])([H])[H]

$$$$
14:0:1
     RDKit          3D

 51 54  0  0  1  0  0  0  0  0999 V2000
    5.8194   -3.8360   -0.0906 C   0  0  0  0  0  0  0  0  0  0  0  0
    4.7283   -3.7538    1.0075 C   0  0  2  0  0  0  0  0  0  0  0  0
    5.1790   -2.7980    2.1732 C   0  0  1  0  0  0  0  0  0  0  0  0
    4.9078   -1.2486    2.0333 C   0  0  0  0  0  0  0  0  0  0  0  0
    3.4505   -0.8204    1.6860 C   0  0  0  0  0  0  0  0  0  0  0  0
    5.3882   -0.4821    3.2801 C   0  0  0  0  0  0  0  0  0  0  0  0
    5.7045   -0.7405    0.9866 O   0  0  0  0  0  0  0  0  0  0  0  0
    5.1900   -3.3062    3.5312 O   0  0  0  0  0  0  0  0  0  0  0  0
    4.1300   -3.8375    4.3191 C   0  0  1  0  0  0  0  0  0  0  0  0
    4.4769   -3.4522    5.7573 C   0  0  0  0  0  0  0  0  0  0  0  0
    2.7502   -3.2378    3.9645 C   0  0  0  0  0  0  0  0  0  0  0  0
    2.2253   -3.8399    2.6350 C   0  0  0  0  0  0  0  0  0  0  0  0
    2.9110   -5.1654    2.2506 C   0  0  1  0  0  0  0  0  0  0  0  0
    1.9724   -5.8353    1.3949 O   0  0  0  0  0  0  0  0  0  0  0  0
    1.7949   -7.2683    1.7571 O   0  0  0  0  0  0  0  0  0  0  0  0
    3.0407   -7.8382    2.1763 C   0  0  1  0  0  0  0  0  0  0  0  0
    2.7934   -9.3010    2.5240 C   0  0  0  0  0  0  0  0  0  0  0  0
    4.1908   -7.6968    1.1421 C   0  0  0  0  0  0  0  0  0  0  0  0
    4.3549   -6.3121    0.4984 C   0  0  0  0  0  0  0  0  0  0  0  0
    4.3038   -5.1554    1.5311 C   0  0  1  0  0  0  0  0  0  0  0  0
    3.4612   -7.2425    3.4078 O   0  0  0  0  0  0  0  0  0  0  0  0
    3.0887   -5.9053    3.5825 C   0  0  1  0  0  0  0  0  0  0  0  0
    4.0972   -5.2516    4.3416 O   0  0  0  0  0  0  0  0  0  0  0  0
    6.6870   -4.4089    0.2427 H   0  0  0  0  0  0  0  0  0  0  0  0
    6.1682   -2.8486   -0.3841 H   0  0  0  0  0  0  0  0  0  0  0  0
    5.4385   -4.2993   -1.0019 H   0  0  0  0  0  0  0  0  0  0  0  0
    3.8844   -3.3252    0.4747 H   0  0  0  0  0  0  0  0  0  0  0  0
    6.2667   -2.8307    2.0662 H   0  0  0  0  0  0  0  0  0  0  0  0
    2.7200   -1.0732    2.4211 H   0  0  0  0  0  0  0  0  0  0  0  0
    3.1608   -1.1867    0.6917 H   0  0  0  0  0  0  0  0  0  0  0  0
    3.4050    0.2742    1.5529 H   0  0  0  0  0  0  0  0  0  0  0  0
    4.9722   -0.8646    4.2070 H   0  0  0  0  0  0  0  0  0  0  0  0
    5.1095    0.5665    3.2398 H   0  0  0  0  0  0  0  0  0  0  0  0
    6.4744   -0.5106    3.3822 H   0  0  0  0  0  0  0  0  0  0  0  0
    6.5876   -0.5736    1.3206 H   0  0  0  0  0  0  0  0  0  0  0  0
    3.7128   -3.8464    6.4303 H   0  0  0  0  0  0  0  0  0  0  0  0
    4.5006   -2.3695    5.8555 H   0  0  0  0  0  0  0  0  0  0  0  0
    5.4505   -3.8631    6.0397 H   0  0  0  0  0  0  0  0  0  0  0  0
    2.0714   -3.5991    4.7594 H   0  0  0  0  0  0  0  0  0  0  0  0
    2.7890   -2.1731    4.0031 H   0  0  0  0  0  0  0  0  0  0  0  0
    1.1609   -4.0152    2.7893 H   0  0  0  0  0  0  0  0  0  0  0  0
    2.2520   -3.1498    1.8060 H   0  0  0  0  0  0  0  0  0  0  0  0
    1.9979   -9.3701    3.2583 H   0  0  0  0  0  0  0  0  0  0  0  0
    3.6858   -9.7650    2.9497 H   0  0  0  0  0  0  0  0  0  0  0  0
    2.4992   -9.8671    1.6432 H   0  0  0  0  0  0  0  0  0  0  0  0
    5.1273   -7.9649    1.6380 H   0  0  0  0  0  0  0  0  0  0  0  0
    4.0732   -8.4417    0.3599 H   0  0  0  0  0  0  0  0  0  0  0  0
    5.3120   -6.3307   -0.0040 H   0  0  0  0  0  0  0  0  0  0  0  0
    3.6033   -6.1743   -0.2904 H   0  0  0  0  0  0  0  0  0  0  0  0
    5.1021   -5.4366    2.2314 H   0  0  0  0  0  0  0  0  0  0  0  0
    2.1598   -5.8993    4.1548 H   0  0  0  0  0  0  0  0  0  0  0  0
  1  2  1  0
  1 24  1  0
  1 25  1  0
  1 26  1  0
  2 20  1  0
  2  3  1  0
  2 27  1  6
  3  4  1  0
  3  8  1  0
  3 28  1  6
  4  5  1  0
  4  6  1  0
  4  7  1  0
  5 29  1  0
  5 30  1  0
  5 31  1  0
  6 32  1  0
  6 33  1  0
  6 34  1  0
  7 35  1  0
  8  9  1  0
  9 23  1  0
  9 10  1  1
  9 11  1  0
 10 36  1  0
 10 37  1  0
 10 38  1  0
 11 12  1  0
 11 39  1  0
 11 40  1  0
 12 13  1  0
 12 41  1  0
 12 42  1  0
 13 20  1  0
 13 22  1  0
 13 14  1  6
 14 15  1  0
 15 16  1  0
 16 17  1  1
 16 18  1  0
 16 21  1  0
 17 43  1  0
 17 44  1  0
 17 45  1  0
 18 19  1  0
 18 46  1  0
 18 47  1  0
 19 20  1  0
 19 48  1  0
 19 49  1  0
 20 50  1  1
 21 22  1  0
 22 23  1  0
 22 51  1  1
M  END
>  <i_m_ct_stereo_status>  (41) 
1

>  <s_m_source_file>  (41) 
/var/tmp/pbs.5076255.sched01/tmp0du1nuht/0914ajmtz.sdf

>  <i_m_source_file_index>  (41) 
17

>  <i_lp_mmshare_version>  (41) 
48012

>  <i_f3d_flags>  (41) 
0

>  <s_epik_input>  (41) 
W0NAXTEyM1tDQEBIXTRbQ0BIXShbQ0gzXSlbQ0BASF0oQyhbQ0gzXSkoW0NIM10pW09IXSlPW0NAXShbQ0gzXSkoW0NIMl1bQ0gyXTEpT1tDQEBIXTNPW0NAXShPTzIpKFtDSDNdKVtDSDJdW0NIMl00

>  <s_epik_cmdline>  (41) 
J2VwaWtfcHl0aG9uJywgJy1waHQnLCAnMi4wJywgJy1waCcsICc3LjAnLCAnLXRuJywgJzgnLCAnLW1hJywgJzIwMCcsICctaW1hZScsICc8aW5maWxlLm1hZT4nLCAnLW9tYWUnLCAnPG91dGZpbGUubWFlPic=

>  <r_lp_tautomer_probability>  (41) 
1

>  <r_epik_Ionization_Penalty>  (41) 
6.21493e-08

>  <r_epik_Ionization_Penalty_Charging>  (41) 
0

>  <r_epik_Ionization_Penalty_Neutral>  (41) 
6.21493e-08

>  <r_epik_State_Penalty>  (41) 
-0

>  <r_epik_Charging_Adjusted_Penalty>  (41) 
0

>  <i_epik_Tot_Q>  (41) 
0

>  <i_epik_Tot_abs_Q>  (41) 
0

>  <s_epik_Chemistry_Notes>  (41) 
This compound contains an acetal/aminal-like group ( X-CH(R)-Y where X, Y are N, S, or O) that may be acid/base labile, releasing an aldehyde.

>  <s_lp_Force_Field>  (41) 
OPLS3e

>  <r_lp_Energy>  (41) 
61.0165

>  <b_lp_Chiralities_Consistent>  (41) 
1

>  <s_lp_Variant>  (41) 
14:0-1

>  <s_i_glide_gridfile>  (41) 
pfpi4k_grid

>  <i_i_glide_lignum>  (41) 
17

>  <i_i_glide_rotatable_bonds>  (41) 
2

>  <r_i_docking_score>  (41) 
-3.01993

>  <r_i_glide_ligand_efficiency>  (41) 
-0.131301

>  <r_i_glide_ligand_efficiency_sa>  (41) 
-0.373403

>  <r_i_glide_ligand_efficiency_ln>  (41) 
-0.730247

>  <r_i_glide_gscore>  (41) 
-3.01993

>  <r_i_glide_lipo>  (41) 
-0.588913

>  <r_i_glide_hbond>  (41) 
-0.056582

>  <r_i_glide_metal>  (41) 
-0

>  <r_i_glide_rewards>  (41) 
-1.17044

>  <r_i_glide_evdw>  (41) 
-20.9882

>  <r_i_glide_ecoul>  (41) 
-2.16771

>  <r_i_glide_erotb>  (41) 
0.174145

>  <r_i_glide_esite>  (41) 
-0.00356854

>  <r_i_glide_emodel>  (41) 
-26.606

>  <r_i_glide_energy>  (41) 
-23.1559

>  <r_i_glide_einternal>  (41) 
0.6602

>  <r_i_glide_intrahb_reward>  (41) 
-0

>  <i_i_glide_confnum>  (41) 
3

>  <i_i_glide_posenum>  (41) 
11

>  <r_i_glide_eff_state_penalty>  (41) 
0

>  <ligand_id>  (41) 
14

>  <original_smiles>  (41) 
CC1C(C(C)(C)O)OC2(C)CCC34OOC(C)(CCC13)OC4O2

>  <smiles>  (41) 
[H]OC(C([H])([H])[H])(C([H])([H])[H])C1([H])OC2(C([H])([H])[H])OC3([H])OC4(C([H])([H])[H])OOC3(C([H])([H])C2([H])[H])C([H])(C([H])([H])C4([H])[H])C1([H])C([H])([H])[H]

$$$$
14:0:2
     RDKit          3D

 51 54  0  0  1  0  0  0  0  0999 V2000
    4.8620   -5.8138    0.1066 C   0  0  0  0  0  0  0  0  0  0  0  0
    4.1743   -4.5256    0.6364 C   0  0  2  0  0  0  0  0  0  0  0  0
    5.0717   -3.2528    0.3485 C   0  0  1  0  0  0  0  0  0  0  0  0
    4.8805   -2.5206   -1.0483 C   0  0  0  0  0  0  0  0  0  0  0  0
    5.2160   -3.4417   -2.2338 C   0  0  0  0  0  0  0  0  0  0  0  0
    3.5027   -1.9028   -1.3786 C   0  0  0  0  0  0  0  0  0  0  0  0
    5.8301   -1.4755   -1.1250 O   0  0  0  0  0  0  0  0  0  0  0  0
    5.4294   -2.3684    1.4522 O   0  0  0  0  0  0  0  0  0  0  0  0
    4.6222   -1.6865    2.4013 C   0  0  1  0  0  0  0  0  0  0  0  0
    5.4218   -0.4284    2.7415 C   0  0  0  0  0  0  0  0  0  0  0  0
    3.2568   -1.2327    1.8520 C   0  0  0  0  0  0  0  0  0  0  0  0
    2.2968   -2.4495    1.7355 C   0  0  0  0  0  0  0  0  0  0  0  0
    2.7010   -3.6300    2.6599 C   0  0  1  0  0  0  0  0  0  0  0  0
    1.4692   -4.3221    2.9018 O   0  0  0  0  0  0  0  0  0  0  0  0
    1.3407   -4.8062    4.3484 O   0  0  0  0  0  0  0  0  0  0  0  0
    2.6179   -5.0536    4.9099 C   0  0  1  0  0  0  0  0  0  0  0  0
    2.3590   -5.3984    6.3818 C   0  0  0  0  0  0  0  0  0  0  0  0
    3.3925   -6.1835    4.1907 C   0  0  0  0  0  0  0  0  0  0  0  0
    3.4492   -6.0895    2.6505 C   0  0  0  0  0  0  0  0  0  0  0  0
    3.7899   -4.6572    2.1480 C   0  0  1  0  0  0  0  0  0  0  0  0
    3.4118   -3.8858    4.9782 O   0  0  0  0  0  0  0  0  0  0  0  0
    3.2538   -2.9621    3.9345 C   0  0  1  0  0  0  0  0  0  0  0  0
    4.4945   -2.3719    3.6303 O   0  0  0  0  0  0  0  0  0  0  0  0
    5.7302   -6.0831    0.7066 H   0  0  0  0  0  0  0  0  0  0  0  0
    5.2170   -5.7281   -0.9143 H   0  0  0  0  0  0  0  0  0  0  0  0
    4.1737   -6.6593    0.0914 H   0  0  0  0  0  0  0  0  0  0  0  0
    3.2645   -4.4530    0.0421 H   0  0  0  0  0  0  0  0  0  0  0  0
    6.0715   -3.6959    0.2426 H   0  0  0  0  0  0  0  0  0  0  0  0
    4.5135   -4.2781   -2.2740 H   0  0  0  0  0  0  0  0  0  0  0  0
    6.2377   -3.8369   -2.2099 H   0  0  0  0  0  0  0  0  0  0  0  0
    5.0849   -2.9239   -3.1899 H   0  0  0  0  0  0  0  0  0  0  0  0
    2.7119   -2.6432   -1.2393 H   0  0  0  0  0  0  0  0  0  0  0  0
    3.4457   -1.5968   -2.4169 H   0  0  0  0  0  0  0  0  0  0  0  0
    3.2863   -1.0013   -0.8302 H   0  0  0  0  0  0  0  0  0  0  0  0
    5.5194   -0.7848   -0.5486 H   0  0  0  0  0  0  0  0  0  0  0  0
    4.8778    0.1725    3.4717 H   0  0  0  0  0  0  0  0  0  0  0  0
    5.5737    0.1519    1.8308 H   0  0  0  0  0  0  0  0  0  0  0  0
    6.3962   -0.6915    3.1492 H   0  0  0  0  0  0  0  0  0  0  0  0
    2.8063   -0.5514    2.5775 H   0  0  0  0  0  0  0  0  0  0  0  0
    3.4122   -0.6217    0.9821 H   0  0  0  0  0  0  0  0  0  0  0  0
    1.3136   -2.0815    2.0298 H   0  0  0  0  0  0  0  0  0  0  0  0
    2.1158   -2.8117    0.7307 H   0  0  0  0  0  0  0  0  0  0  0  0
    1.8213   -4.5858    6.8720 H   0  0  0  0  0  0  0  0  0  0  0  0
    3.2852   -5.5519    6.9359 H   0  0  0  0  0  0  0  0  0  0  0  0
    1.7513   -6.2961    6.4847 H   0  0  0  0  0  0  0  0  0  0  0  0
    4.4129   -6.2086    4.5805 H   0  0  0  0  0  0  0  0  0  0  0  0
    2.9659   -7.1511    4.4531 H   0  0  0  0  0  0  0  0  0  0  0  0
    4.2190   -6.7976    2.3476 H   0  0  0  0  0  0  0  0  0  0  0  0
    2.5212   -6.4583    2.2125 H   0  0  0  0  0  0  0  0  0  0  0  0
    4.7347   -4.4707    2.6531 H   0  0  0  0  0  0  0  0  0  0  0  0
    2.5733   -2.1859    4.2863 H   0  0  0  0  0  0  0  0  0  0  0  0
  1  2  1  0
  1 24  1  0
  1 25  1  0
  1 26  1  0
  2 20  1  0
  2  3  1  0
  2 27  1  6
  3  4  1  0
  3  8  1  0
  3 28  1  6
  4  5  1  0
  4  6  1  0
  4  7  1  0
  5 29  1  0
  5 30  1  0
  5 31  1  0
  6 32  1  0
  6 33  1  0
  6 34  1  0
  7 35  1  0
  8  9  1  0
  9 23  1  0
  9 10  1  1
  9 11  1  0
 10 36  1  0
 10 37  1  0
 10 38  1  0
 11 12  1  0
 11 39  1  0
 11 40  1  0
 12 13  1  0
 12 41  1  0
 12 42  1  0
 13 20  1  0
 13 22  1  0
 13 14  1  1
 14 15  1  0
 15 16  1  0
 16 17  1  1
 16 18  1  0
 16 21  1  0
 17 43  1  0
 17 44  1  0
 17 45  1  0
 18 19  1  0
 18 46  1  0
 18 47  1  0
 19 20  1  0
 19 48  1  0
 19 49  1  0
 20 50  1  1
 21 22  1  0
 22 23  1  0
 22 51  1  1
M  END
>  <i_m_ct_stereo_status>  (42) 
1

>  <s_m_source_file>  (42) 
/var/tmp/pbs.5076255.sched01/tmp0du1nuht/0914ajmtz.sdf

>  <i_m_source_file_index>  (42) 
17

>  <i_lp_mmshare_version>  (42) 
48012

>  <i_f3d_flags>  (42) 
0

>  <s_epik_input>  (42) 
W0NAXTEyM1tDQEBIXTRbQ0BIXShbQ0gzXSlbQ0BASF0oQyhbQ0gzXSkoW0NIM10pW09IXSlPW0NAXShbQ0gzXSkoW0NIMl1bQ0gyXTEpT1tDQEBIXTNPW0NAXShPTzIpKFtDSDNdKVtDSDJdW0NIMl00

>  <s_epik_cmdline>  (42) 
J2VwaWtfcHl0aG9uJywgJy1waHQnLCAnMi4wJywgJy1waCcsICc3LjAnLCAnLXRuJywgJzgnLCAnLW1hJywgJzIwMCcsICctaW1hZScsICc8aW5maWxlLm1hZT4nLCAnLW9tYWUnLCAnPG91dGZpbGUubWFlPic=

>  <r_lp_tautomer_probability>  (42) 
1

>  <r_epik_Ionization_Penalty>  (42) 
6.21493e-08

>  <r_epik_Ionization_Penalty_Charging>  (42) 
0

>  <r_epik_Ionization_Penalty_Neutral>  (42) 
6.21493e-08

>  <r_epik_State_Penalty>  (42) 
-0

>  <r_epik_Charging_Adjusted_Penalty>  (42) 
0

>  <i_epik_Tot_Q>  (42) 
0

>  <i_epik_Tot_abs_Q>  (42) 
0

>  <s_epik_Chemistry_Notes>  (42) 
This compound contains an acetal/aminal-like group ( X-CH(R)-Y where X, Y are N, S, or O) that may be acid/base labile, releasing an aldehyde.

>  <s_lp_Force_Field>  (42) 
OPLS3e

>  <r_lp_Energy>  (42) 
61.0165

>  <b_lp_Chiralities_Consistent>  (42) 
1

>  <s_lp_Variant>  (42) 
14:0-1

>  <s_i_glide_gridfile>  (42) 
pfpi4k_grid

>  <i_i_glide_lignum>  (42) 
17

>  <i_i_glide_rotatable_bonds>  (42) 
2

>  <r_i_docking_score>  (42) 
-2.89593

>  <r_i_glide_ligand_efficiency>  (42) 
-0.12591

>  <r_i_glide_ligand_efficiency_sa>  (42) 
-0.358071

>  <r_i_glide_ligand_efficiency_ln>  (42) 
-0.700261

>  <r_i_glide_gscore>  (42) 
-2.89593

>  <r_i_glide_lipo>  (42) 
-0.391772

>  <r_i_glide_hbond>  (42) 
0

>  <r_i_glide_metal>  (42) 
-0

>  <r_i_glide_rewards>  (42) 
-1.23332

>  <r_i_glide_evdw>  (42) 
-20.1386

>  <r_i_glide_ecoul>  (42) 
-2.92033

>  <r_i_glide_erotb>  (42) 
0.174145

>  <r_i_glide_esite>  (42) 
0

>  <r_i_glide_emodel>  (42) 
-24.5067

>  <r_i_glide_energy>  (42) 
-23.0589

>  <r_i_glide_einternal>  (42) 
4.94787

>  <r_i_glide_intrahb_reward>  (42) 
-0

>  <i_i_glide_confnum>  (42) 
3

>  <i_i_glide_posenum>  (42) 
17

>  <r_i_glide_eff_state_penalty>  (42) 
0

>  <ligand_id>  (42) 
14

>  <original_smiles>  (42) 
CC1C(C(C)(C)O)OC2(C)CCC34OOC(C)(CCC13)OC4O2

>  <smiles>  (42) 
[H]OC(C([H])([H])[H])(C([H])([H])[H])C1([H])OC2(C([H])([H])[H])OC3([H])OC4(C([H])([H])[H])OOC3(C([H])([H])C2([H])[H])C([H])(C([H])([H])C4([H])[H])C1([H])C([H])([H])[H]

$$$$
15:0:0
     RDKit          3D

 33 34  0  0  1  0  0  0  0  0999 V2000
    8.1664   -2.7009   -1.2286 C   0  0  0  0  0  0  0  0  0  0  0  0
    7.3627   -2.1572   -0.2139 O   0  0  0  0  0  0  0  0  0  0  0  0
    6.0012   -2.4288   -0.3773 C   0  0  2  0  0  0  0  0  0  0  0  0
    5.3643   -1.3122   -1.5936 S   0  0  0  0  0  0  0  0  0  0  0  0
    3.7348   -1.9962   -1.6190 C   0  0  1  0  0  0  0  0  0  0  0  0
    3.0308   -1.2040   -2.7198 C   0  0  0  0  0  0  0  0  0  0  0  0
    2.6672   -2.1974   -3.7835 C   0  0  0  0  0  0  0  0  0  0  0  0
    2.5834   -3.4351   -3.0867 N   0  0  0  0  0  0  0  0  0  0  0  0
    3.6931   -3.4490   -2.1450 C   0  0  0  0  0  0  0  0  0  0  0  0
    3.1324   -1.9967   -0.3397 O   0  0  0  0  0  0  0  0  0  0  0  0
    3.6992   -2.6243    0.7567 C   0  0  0  0  0  0  0  0  0  0  0  0
    2.7616   -3.4825    1.8370 S   0  0  0  0  0  0  0  0  0  0  0  0
    5.2075   -2.3281    0.9410 C   0  0  0  0  0  0  0  0  0  0  0  0
    5.8827   -3.3422    1.8892 C   0  0  0  0  0  0  0  0  0  0  0  0
    5.3823   -0.9138    1.5313 C   0  0  0  0  0  0  0  0  0  0  0  0
    9.1507   -2.2638   -1.1076 H   0  0  0  0  0  0  0  0  0  0  0  0
    7.8227   -2.5008   -2.2469 H   0  0  0  0  0  0  0  0  0  0  0  0
    8.1989   -3.7751   -1.0699 H   0  0  0  0  0  0  0  0  0  0  0  0
    5.9059   -3.4319   -0.7680 H   0  0  0  0  0  0  0  0  0  0  0  0
    2.2356   -0.6245   -2.3892 H   0  0  0  0  0  0  0  0  0  0  0  0
    3.6150   -0.4213   -3.1476 H   0  0  0  0  0  0  0  0  0  0  0  0
    1.7582   -1.9318   -4.2982 H   0  0  0  0  0  0  0  0  0  0  0  0
    3.4864   -2.2634   -4.5047 H   0  0  0  0  0  0  0  0  0  0  0  0
    1.7121   -3.4842   -2.5773 H   0  0  0  0  0  0  0  0  0  0  0  0
    4.5989   -3.6709   -2.6955 H   0  0  0  0  0  0  0  0  0  0  0  0
    3.5828   -4.2255   -1.3934 H   0  0  0  0  0  0  0  0  0  0  0  0
    6.9590   -3.1993    1.9239 H   0  0  0  0  0  0  0  0  0  0  0  0
    5.7233   -4.3700    1.5661 H   0  0  0  0  0  0  0  0  0  0  0  0
    5.5286   -3.2531    2.9115 H   0  0  0  0  0  0  0  0  0  0  0  0
    6.4363   -0.6400    1.5920 H   0  0  0  0  0  0  0  0  0  0  0  0
    4.9791   -0.8522    2.5391 H   0  0  0  0  0  0  0  0  0  0  0  0
    4.8847   -0.1456    0.9374 H   0  0  0  0  0  0  0  0  0  0  0  0
    2.6345   -4.2763   -3.6913 H   0  0  0  0  0  0  0  0  0  0  0  0
  1  2  1  0
  1 16  1  0
  1 17  1  0
  1 18  1  0
  2  3  1  0
  3 13  1  0
  3  4  1  0
  3 19  1  6
  4  5  1  0
  5  9  1  0
  5  6  1  0
  5 10  1  1
  6  7  1  0
  6 20  1  0
  6 21  1  0
  7  8  1  0
  7 22  1  0
  7 23  1  0
  8  9  1  0
  8 24  1  0
  8 33  1  0
  9 25  1  0
  9 26  1  0
 10 11  1  0
 11 12  2  0
 11 13  1  0
 13 14  1  0
 13 15  1  0
 14 27  1  0
 14 28  1  0
 14 29  1  0
 15 30  1  0
 15 31  1  0
 15 32  1  0
M  CHG  1   8   1
M  END
>  <i_m_ct_stereo_status>  (43) 
1

>  <s_m_source_file>  (43) 
/var/tmp/pbs.5076255.sched01/tmp0du1nuht/0914ajmtz.sdf

>  <i_m_source_file_index>  (43) 
18

>  <i_lp_mmshare_version>  (43) 
48012

>  <i_f3d_flags>  (43) 
0

>  <s_epik_input>  (43) 
TzFDKD1TKUMoW0NIM10pKFtDSDNdKVtDQEhdKE9bQ0gzXSlTW0NAXTEyW0NIMl1bQ0gyXVtOSF1bQ0gyXTI=

>  <s_epik_cmdline>  (43) 
J2VwaWtfcHl0aG9uJywgJy1waHQnLCAnMi4wJywgJy1waCcsICc3LjAnLCAnLXRuJywgJzgnLCAnLW1hJywgJzIwMCcsICctaW1hZScsICc8aW5maWxlLm1hZT4nLCAnLW9tYWUnLCAnPG91dGZpbGUubWFlPic=

>  <r_epik_Ionization_Penalty>  (43) 
0.00688269

>  <r_epik_Ionization_Penalty_Charging>  (43) 
0.00688269

>  <r_epik_Ionization_Penalty_Neutral>  (43) 
1.85497e-14

>  <r_epik_State_Penalty>  (43) 
0.00511425

>  <r_epik_Charging_Adjusted_Penalty>  (43) 
0.0119969

>  <i_epik_Tot_Q>  (43) 
1

>  <i_epik_Tot_abs_Q>  (43) 
1

>  <s_epik_Chemistry_Notes>  (43) 
This compound contains an acetal/aminal-like group ( X-CH(R)-Y where X, Y are N, S, or O) that may be acid/base labile, releasing an aldehyde.

>  <s_lp_Force_Field>  (43) 
OPLS3e

>  <r_lp_Energy>  (43) 
29.6112

>  <b_lp_Chiralities_Consistent>  (43) 
1

>  <s_lp_Variant>  (43) 
15:0-1

>  <s_i_glide_gridfile>  (43) 
pfpi4k_grid

>  <i_i_glide_lignum>  (43) 
18

>  <i_i_glide_rotatable_bonds>  (43) 
1

>  <r_i_docking_score>  (43) 
-3.82663

>  <r_i_glide_ligand_efficiency>  (43) 
-0.255109

>  <r_i_glide_ligand_efficiency_sa>  (43) 
-0.629152

>  <r_i_glide_ligand_efficiency_ln>  (43) 
-1.03198

>  <r_i_glide_gscore>  (43) 
-3.82663

>  <r_i_glide_lipo>  (43) 
-0.404527

>  <r_i_glide_hbond>  (43) 
-0.107454

>  <r_i_glide_metal>  (43) 
-0

>  <r_i_glide_rewards>  (43) 
-1.71554

>  <r_i_glide_evdw>  (43) 
-16.3521

>  <r_i_glide_ecoul>  (43) 
-5.08799

>  <r_i_glide_erotb>  (43) 
0

>  <r_i_glide_esite>  (43) 
-0.0183015

>  <r_i_glide_emodel>  (43) 
-26.8664

>  <r_i_glide_energy>  (43) 
-21.4401

>  <r_i_glide_einternal>  (43) 
0.247797

>  <r_i_glide_intrahb_reward>  (43) 
-0

>  <i_i_glide_confnum>  (43) 
4

>  <i_i_glide_posenum>  (43) 
1

>  <r_i_glide_eff_state_penalty>  (43) 
0

>  <ligand_id>  (43) 
15

>  <original_smiles>  (43) 
COC1SC2(CCNC2)OC(=S)C1(C)C

>  <smiles>  (43) 
[H]C([H])([H])OC1([H])SC2(OC(=S)C1(C([H])([H])[H])C([H])([H])[H])C([H])([H])C([H])([H])[N+]([H])([H])C2([H])[H]

$$$$
15:0:1
     RDKit          3D

 33 34  0  0  1  0  0  0  0  0999 V2000
    8.4941   -2.7534   -1.0656 C   0  0  0  0  0  0  0  0  0  0  0  0
    7.5794   -2.5601   -0.0088 O   0  0  0  0  0  0  0  0  0  0  0  0
    6.2628   -2.8327   -0.3530 C   0  0  2  0  0  0  0  0  0  0  0  0
    5.6641   -1.4628   -1.2400 S   0  0  0  0  0  0  0  0  0  0  0  0
    4.1000   -2.1112   -1.6354 C   0  0  1  0  0  0  0  0  0  0  0  0
    3.4183   -1.0250   -2.4779 C   0  0  0  0  0  0  0  0  0  0  0  0
    3.2047   -1.6646   -3.8374 C   0  0  0  0  0  0  0  0  0  0  0  0
    3.1395   -3.0983   -3.5480 N   0  0  0  0  0  0  0  0  0  0  0  0
    4.1829   -3.3241   -2.5563 C   0  0  0  0  0  0  0  0  0  0  0  0
    3.4004   -2.4591   -0.4498 O   0  0  0  0  0  0  0  0  0  0  0  0
    3.8927   -3.3747    0.4384 C   0  0  0  0  0  0  0  0  0  0  0  0
    2.9446   -4.5861    1.1396 S   0  0  0  0  0  0  0  0  0  0  0  0
    5.3758   -3.1298    0.8514 C   0  0  0  0  0  0  0  0  0  0  0  0
    6.0299   -4.3547    1.5127 C   0  0  0  0  0  0  0  0  0  0  0  0
    5.4439   -1.9503    1.8421 C   0  0  0  0  0  0  0  0  0  0  0  0
    9.4205   -2.3374   -0.7030 H   0  0  0  0  0  0  0  0  0  0  0  0
    8.2404   -2.2545   -2.0141 H   0  0  0  0  0  0  0  0  0  0  0  0
    8.5912   -3.8310   -1.2369 H   0  0  0  0  0  0  0  0  0  0  0  0
    6.2626   -3.6555   -1.0395 H   0  0  0  0  0  0  0  0  0  0  0  0
    2.5048   -0.6742   -2.0107 H   0  0  0  0  0  0  0  0  0  0  0  0
    4.0278   -0.1340   -2.6202 H   0  0  0  0  0  0  0  0  0  0  0  0
    2.3336   -1.2680   -4.3533 H   0  0  0  0  0  0  0  0  0  0  0  0
    4.0833   -1.4903   -4.4699 H   0  0  0  0  0  0  0  0  0  0  0  0
    2.2355   -3.2967   -3.1424 H   0  0  0  0  0  0  0  0  0  0  0  0
    5.1377   -3.3486   -3.0632 H   0  0  0  0  0  0  0  0  0  0  0  0
    4.0579   -4.2597   -2.0437 H   0  0  0  0  0  0  0  0  0  0  0  0
    7.0952   -4.2096    1.6901 H   0  0  0  0  0  0  0  0  0  0  0  0
    5.9490   -5.2467    0.8925 H   0  0  0  0  0  0  0  0  0  0  0  0
    5.5924   -4.5870    2.4789 H   0  0  0  0  0  0  0  0  0  0  0  0
    6.4756   -1.6770    2.0738 H   0  0  0  0  0  0  0  0  0  0  0  0
    4.9658   -2.2014    2.7865 H   0  0  0  0  0  0  0  0  0  0  0  0
    4.9554   -1.0528    1.4638 H   0  0  0  0  0  0  0  0  0  0  0  0
    3.2628   -3.6756   -4.3592 H   0  0  0  0  0  0  0  0  0  0  0  0
  1  2  1  0
  1 16  1  0
  1 17  1  0
  1 18  1  0
  2  3  1  0
  3 13  1  0
  3  4  1  0
  3 19  1  6
  4  5  1  0
  5  9  1  0
  5  6  1  0
  5 10  1  1
  6  7  1  0
  6 20  1  0
  6 21  1  0
  7  8  1  0
  7 22  1  0
  7 23  1  0
  8  9  1  0
  8 24  1  0
  8 33  1  0
  9 25  1  0
  9 26  1  0
 10 11  1  0
 11 12  2  0
 11 13  1  0
 13 14  1  0
 13 15  1  0
 14 27  1  0
 14 28  1  0
 14 29  1  0
 15 30  1  0
 15 31  1  0
 15 32  1  0
M  CHG  1   8   1
M  END
>  <i_m_ct_stereo_status>  (44) 
1

>  <s_m_source_file>  (44) 
/var/tmp/pbs.5076255.sched01/tmp0du1nuht/0914ajmtz.sdf

>  <i_m_source_file_index>  (44) 
18

>  <i_lp_mmshare_version>  (44) 
48012

>  <i_f3d_flags>  (44) 
0

>  <s_epik_input>  (44) 
TzFDKD1TKUMoW0NIM10pKFtDSDNdKVtDQEhdKE9bQ0gzXSlTW0NAXTEyW0NIMl1bQ0gyXVtOSF1bQ0gyXTI=

>  <s_epik_cmdline>  (44) 
J2VwaWtfcHl0aG9uJywgJy1waHQnLCAnMi4wJywgJy1waCcsICc3LjAnLCAnLXRuJywgJzgnLCAnLW1hJywgJzIwMCcsICctaW1hZScsICc8aW5maWxlLm1hZT4nLCAnLW9tYWUnLCAnPG91dGZpbGUubWFlPic=

>  <r_epik_Ionization_Penalty>  (44) 
0.00688269

>  <r_epik_Ionization_Penalty_Charging>  (44) 
0.00688269

>  <r_epik_Ionization_Penalty_Neutral>  (44) 
1.85497e-14

>  <r_epik_State_Penalty>  (44) 
0.00511425

>  <r_epik_Charging_Adjusted_Penalty>  (44) 
0.0119969

>  <i_epik_Tot_Q>  (44) 
1

>  <i_epik_Tot_abs_Q>  (44) 
1

>  <s_epik_Chemistry_Notes>  (44) 
This compound contains an acetal/aminal-like group ( X-CH(R)-Y where X, Y are N, S, or O) that may be acid/base labile, releasing an aldehyde.

>  <s_lp_Force_Field>  (44) 
OPLS3e

>  <r_lp_Energy>  (44) 
29.6112

>  <b_lp_Chiralities_Consistent>  (44) 
1

>  <s_lp_Variant>  (44) 
15:0-1

>  <s_i_glide_gridfile>  (44) 
pfpi4k_grid

>  <i_i_glide_lignum>  (44) 
18

>  <i_i_glide_rotatable_bonds>  (44) 
1

>  <r_i_docking_score>  (44) 
-3.56906

>  <r_i_glide_ligand_efficiency>  (44) 
-0.237937

>  <r_i_glide_ligand_efficiency_sa>  (44) 
-0.586804

>  <r_i_glide_ligand_efficiency_ln>  (44) 
-0.962516

>  <r_i_glide_gscore>  (44) 
-3.56906

>  <r_i_glide_lipo>  (44) 
-0.364285

>  <r_i_glide_hbond>  (44) 
0

>  <r_i_glide_metal>  (44) 
-0

>  <r_i_glide_rewards>  (44) 
-1.7266

>  <r_i_glide_evdw>  (44) 
-18.4858

>  <r_i_glide_ecoul>  (44) 
-3.62465

>  <r_i_glide_erotb>  (44) 
0

>  <r_i_glide_esite>  (44) 
-0.0101859

>  <r_i_glide_emodel>  (44) 
-27.2456

>  <r_i_glide_energy>  (44) 
-22.1105

>  <r_i_glide_einternal>  (44) 
0.217984

>  <r_i_glide_intrahb_reward>  (44) 
-0

>  <i_i_glide_confnum>  (44) 
1

>  <i_i_glide_posenum>  (44) 
7

>  <r_i_glide_eff_state_penalty>  (44) 
0

>  <ligand_id>  (44) 
15

>  <original_smiles>  (44) 
COC1SC2(CCNC2)OC(=S)C1(C)C

>  <smiles>  (44) 
[H]C([H])([H])OC1([H])SC2(OC(=S)C1(C([H])([H])[H])C([H])([H])[H])C([H])([H])C([H])([H])[N+]([H])([H])C2([H])[H]

$$$$
15:0:2
     RDKit          3D

 33 34  0  0  1  0  0  0  0  0999 V2000
    8.3329   -3.3827   -1.3725 C   0  0  0  0  0  0  0  0  0  0  0  0
    7.5716   -4.0093   -0.3220 O   0  0  0  0  0  0  0  0  0  0  0  0
    6.1722   -3.9052   -0.4344 C   0  0  2  0  0  0  0  0  0  0  0  0
    5.7982   -2.1988   -0.4995 S   0  0  0  0  0  0  0  0  0  0  0  0
    4.1042   -2.3715   -0.9153 C   0  0  1  0  0  0  0  0  0  0  0  0
    3.6016   -0.9477   -1.1377 C   0  0  0  0  0  0  0  0  0  0  0  0
    3.1331   -0.9203   -2.5779 C   0  0  0  0  0  0  0  0  0  0  0  0
    2.7624   -2.3097   -2.8646 N   0  0  0  0  0  0  0  0  0  0  0  0
    3.8119   -3.1090   -2.2459 C   0  0  0  0  0  0  0  0  0  0  0  0
    3.4521   -3.0552    0.1307 O   0  0  0  0  0  0  0  0  0  0  0  0
    3.8042   -4.3300    0.4921 C   0  0  0  0  0  0  0  0  0  0  0  0
    2.6523   -5.4898    0.8691 S   0  0  0  0  0  0  0  0  0  0  0  0
    5.3414   -4.5614    0.6834 C   0  0  0  0  0  0  0  0  0  0  0  0
    5.7463   -6.0500    0.6847 C   0  0  0  0  0  0  0  0  0  0  0  0
    5.8096   -3.9484    2.0126 C   0  0  0  0  0  0  0  0  0  0  0  0
    9.3970   -3.4496   -1.1353 H   0  0  0  0  0  0  0  0  0  0  0  0
    8.1263   -2.3291   -1.5461 H   0  0  0  0  0  0  0  0  0  0  0  0
    8.1205   -3.8419   -2.3195 H   0  0  0  0  0  0  0  0  0  0  0  0
    5.8957   -4.3262   -1.3837 H   0  0  0  0  0  0  0  0  0  0  0  0
    2.8841   -0.5958   -0.3833 H   0  0  0  0  0  0  0  0  0  0  0  0
    4.3849   -0.2125   -1.0762 H   0  0  0  0  0  0  0  0  0  0  0  0
    2.3439   -0.1965   -2.7281 H   0  0  0  0  0  0  0  0  0  0  0  0
    3.9701   -0.6628   -3.2468 H   0  0  0  0  0  0  0  0  0  0  0  0
    1.8780   -2.4513   -2.3995 H   0  0  0  0  0  0  0  0  0  0  0  0
    4.6820   -3.0944   -2.8847 H   0  0  0  0  0  0  0  0  0  0  0  0
    3.4944   -4.1386   -2.1370 H   0  0  0  0  0  0  0  0  0  0  0  0
    6.8225   -6.2025    0.6983 H   0  0  0  0  0  0  0  0  0  0  0  0
    5.3728   -6.5737   -0.1901 H   0  0  0  0  0  0  0  0  0  0  0  0
    5.3653   -6.5787    1.5500 H   0  0  0  0  0  0  0  0  0  0  0  0
    6.8959   -3.9901    2.0948 H   0  0  0  0  0  0  0  0  0  0  0  0
    5.3920   -4.4725    2.8623 H   0  0  0  0  0  0  0  0  0  0  0  0
    5.5234   -2.9027    2.1201 H   0  0  0  0  0  0  0  0  0  0  0  0
    2.6420   -2.4949   -3.8449 H   0  0  0  0  0  0  0  0  0  0  0  0
  1  2  1  0
  1 16  1  0
  1 17  1  0
  1 18  1  0
  2  3  1  0
  3 13  1  0
  3  4  1  0
  3 19  1  6
  4  5  1  0
  5  9  1  0
  5  6  1  0
  5 10  1  1
  6  7  1  0
  6 20  1  0
  6 21  1  0
  7  8  1  0
  7 22  1  0
  7 23  1  0
  8  9  1  0
  8 24  1  0
  8 33  1  0
  9 25  1  0
  9 26  1  0
 10 11  1  0
 11 12  2  0
 11 13  1  0
 13 14  1  0
 13 15  1  0
 14 27  1  0
 14 28  1  0
 14 29  1  0
 15 30  1  0
 15 31  1  0
 15 32  1  0
M  CHG  1   8   1
M  END
>  <i_m_ct_stereo_status>  (45) 
1

>  <s_m_source_file>  (45) 
/var/tmp/pbs.5076255.sched01/tmp0du1nuht/0914ajmtz.sdf

>  <i_m_source_file_index>  (45) 
18

>  <i_lp_mmshare_version>  (45) 
48012

>  <i_f3d_flags>  (45) 
0

>  <s_epik_input>  (45) 
TzFDKD1TKUMoW0NIM10pKFtDSDNdKVtDQEhdKE9bQ0gzXSlTW0NAXTEyW0NIMl1bQ0gyXVtOSF1bQ0gyXTI=

>  <s_epik_cmdline>  (45) 
J2VwaWtfcHl0aG9uJywgJy1waHQnLCAnMi4wJywgJy1waCcsICc3LjAnLCAnLXRuJywgJzgnLCAnLW1hJywgJzIwMCcsICctaW1hZScsICc8aW5maWxlLm1hZT4nLCAnLW9tYWUnLCAnPG91dGZpbGUubWFlPic=

>  <r_epik_Ionization_Penalty>  (45) 
0.00688269

>  <r_epik_Ionization_Penalty_Charging>  (45) 
0.00688269

>  <r_epik_Ionization_Penalty_Neutral>  (45) 
1.85497e-14

>  <r_epik_State_Penalty>  (45) 
0.00511425

>  <r_epik_Charging_Adjusted_Penalty>  (45) 
0.0119969

>  <i_epik_Tot_Q>  (45) 
1

>  <i_epik_Tot_abs_Q>  (45) 
1

>  <s_epik_Chemistry_Notes>  (45) 
This compound contains an acetal/aminal-like group ( X-CH(R)-Y where X, Y are N, S, or O) that may be acid/base labile, releasing an aldehyde.

>  <s_lp_Force_Field>  (45) 
OPLS3e

>  <r_lp_Energy>  (45) 
29.6112

>  <b_lp_Chiralities_Consistent>  (45) 
1

>  <s_lp_Variant>  (45) 
15:0-1

>  <s_i_glide_gridfile>  (45) 
pfpi4k_grid

>  <i_i_glide_lignum>  (45) 
18

>  <i_i_glide_rotatable_bonds>  (45) 
1

>  <r_i_docking_score>  (45) 
-3.39264

>  <r_i_glide_ligand_efficiency>  (45) 
-0.226176

>  <r_i_glide_ligand_efficiency_sa>  (45) 
-0.557798

>  <r_i_glide_ligand_efficiency_ln>  (45) 
-0.914939

>  <r_i_glide_gscore>  (45) 
-3.39264

>  <r_i_glide_lipo>  (45) 
-0.237058

>  <r_i_glide_hbond>  (45) 
-0.00729488

>  <r_i_glide_metal>  (45) 
-0

>  <r_i_glide_rewards>  (45) 
-1.72554

>  <r_i_glide_evdw>  (45) 
-15.2549

>  <r_i_glide_ecoul>  (45) 
-5.73463

>  <r_i_glide_erotb>  (45) 
0

>  <r_i_glide_esite>  (45) 
-0.0505569

>  <r_i_glide_emodel>  (45) 
-22.5272

>  <r_i_glide_energy>  (45) 
-20.9895

>  <r_i_glide_einternal>  (45) 
1.82239

>  <r_i_glide_intrahb_reward>  (45) 
-0

>  <i_i_glide_confnum>  (45) 
1

>  <i_i_glide_posenum>  (45) 
12

>  <r_i_glide_eff_state_penalty>  (45) 
0

>  <ligand_id>  (45) 
15

>  <original_smiles>  (45) 
COC1SC2(CCNC2)OC(=S)C1(C)C

>  <smiles>  (45) 
[H]C([H])([H])OC1([H])SC2(OC(=S)C1(C([H])([H])[H])C([H])([H])[H])C([H])([H])C([H])([H])[N+]([H])([H])C2([H])[H]

$$$$
17:0:0
     RDKit          3D

 79 84  0  0  1  0  0  0  0  0999 V2000
    5.4563   -1.3543   -1.9147 C   0  0  0  0  0  0  0  0  0  0  0  0
    5.8199   -1.0527   -0.6612 C   0  0  0  0  0  0  0  0  0  0  0  0
    6.0627   -2.0414    0.4735 C   0  0  1  0  0  0  0  0  0  0  0  0
    7.5583   -2.3915    0.4683 C   0  0  0  0  0  0  0  0  0  0  0  0
    5.8217   -1.4697    1.7164 O   0  0  0  0  0  0  0  0  0  0  0  0
    4.4515   -1.2273    1.9961 C   0  0  0  0  0  0  0  0  0  0  0  0
    3.6360   -2.5379    1.9676 C   0  0  2  0  0  0  0  0  0  0  0  0
    2.1204   -2.1928    2.0475 C   0  0  0  0  0  0  0  0  0  0  0  0
    1.5638   -1.7396    3.4209 C   0  0  1  0  0  0  0  0  0  0  0  0
    2.4595   -2.1627    4.5788 C   0  0  0  0  0  0  0  0  0  0  0  0
    2.6082   -1.3817    5.6644 C   0  0  0  0  0  0  0  0  0  0  0  0
    1.8893   -0.0624    5.8683 C   0  0  0  0  0  0  0  0  0  0  0  0
    0.6365    0.1157    4.9633 C   0  0  2  0  0  0  0  0  0  0  0  0
   -0.4620   -0.8375    5.5211 C   0  0  0  0  0  0  0  0  0  0  0  0
    1.0163   -0.2776    3.5041 C   0  0  1  0  0  0  0  0  0  0  0  0
    1.9298    0.7982    2.8775 C   0  0  0  0  0  0  0  0  0  0  0  0
    1.2676    2.1848    2.8724 C   0  0  0  0  0  0  0  0  0  0  0  0
    0.8954    2.6943    4.2810 C   0  0  1  0  0  0  0  0  0  0  0  0
    2.1453    3.2056    5.0375 C   0  0  0  0  0  0  0  0  0  0  0  0
   -0.1342    3.8436    4.2298 C   0  0  1  0  0  0  0  0  0  0  0  0
    0.1298    4.8701    3.2921 O   0  0  0  0  0  0  0  0  0  0  0  0
   -1.5032    3.2063    4.0191 C   0  0  0  0  0  0  0  0  0  0  0  0
   -1.3674    1.7702    4.5370 C   0  0  0  0  0  0  0  0  0  0  0  0
    0.0920    1.5917    5.0357 C   0  0  1  0  0  0  0  0  0  0  0  0
    3.1106   -3.5422    4.3976 C   0  0  0  0  0  0  0  0  0  0  0  0
    3.9773   -3.9462    5.6167 C   0  0  0  0  0  0  0  0  0  0  0  0
    1.9756   -4.6055    4.3214 C   0  0  0  0  0  0  0  0  0  0  0  0
    4.0379   -3.5113    3.1268 C   0  0  1  0  0  0  0  0  0  0  0  0
    4.3322   -4.8759    2.4704 C   0  0  0  0  0  0  0  0  0  0  0  0
    3.7881   -4.7862    1.0479 C   0  0  0  0  0  0  0  0  0  0  0  0
    3.9794   -3.3233    0.6554 C   0  0  1  0  0  0  0  0  0  0  0  0
    3.1287   -2.9969   -0.5905 C   0  0  0  0  0  0  0  0  0  0  0  0
    5.3774   -3.2493    0.3261 O   0  0  0  0  0  0  0  0  0  0  0  0
    5.3293   -2.3849   -2.2308 H   0  0  0  0  0  0  0  0  0  0  0  0
    5.2747   -0.5891   -2.6583 H   0  0  0  0  0  0  0  0  0  0  0  0
    5.9631   -0.0172   -0.3810 H   0  0  0  0  0  0  0  0  0  0  0  0
    7.7794   -3.0934    1.2781 H   0  0  0  0  0  0  0  0  0  0  0  0
    8.1561   -1.4898    0.6105 H   0  0  0  0  0  0  0  0  0  0  0  0
    7.8357   -2.8498   -0.4793 H   0  0  0  0  0  0  0  0  0  0  0  0
    4.3870   -0.7672    2.9809 H   0  0  0  0  0  0  0  0  0  0  0  0
    4.0533   -0.5105    1.2763 H   0  0  0  0  0  0  0  0  0  0  0  0
    1.8217   -1.4912    1.2729 H   0  0  0  0  0  0  0  0  0  0  0  0
    1.5907   -3.1059    1.7915 H   0  0  0  0  0  0  0  0  0  0  0  0
    0.6656   -2.3430    3.5507 H   0  0  0  0  0  0  0  0  0  0  0  0
    3.2495   -1.6613    6.4832 H   0  0  0  0  0  0  0  0  0  0  0  0
    1.6081    0.0217    6.9193 H   0  0  0  0  0  0  0  0  0  0  0  0
    2.6348    0.7035    5.6921 H   0  0  0  0  0  0  0  0  0  0  0  0
   -1.3025   -0.9392    4.8328 H   0  0  0  0  0  0  0  0  0  0  0  0
   -0.8451   -0.4829    6.4770 H   0  0  0  0  0  0  0  0  0  0  0  0
   -0.0816   -1.8453    5.6954 H   0  0  0  0  0  0  0  0  0  0  0  0
    0.1085   -0.2648    2.9023 H   0  0  0  0  0  0  0  0  0  0  0  0
    2.8858    0.8486    3.3959 H   0  0  0  0  0  0  0  0  0  0  0  0
    2.1537    0.5594    1.8408 H   0  0  0  0  0  0  0  0  0  0  0  0
    1.9423    2.8950    2.3902 H   0  0  0  0  0  0  0  0  0  0  0  0
    0.3804    2.1378    2.2391 H   0  0  0  0  0  0  0  0  0  0  0  0
    1.9775    3.2535    6.1146 H   0  0  0  0  0  0  0  0  0  0  0  0
    2.4066    4.2130    4.7127 H   0  0  0  0  0  0  0  0  0  0  0  0
    3.0343    2.6030    4.8605 H   0  0  0  0  0  0  0  0  0  0  0  0
   -0.1534    4.3205    5.2076 H   0  0  0  0  0  0  0  0  0  0  0  0
    0.1729    4.5288    2.3834 H   0  0  0  0  0  0  0  0  0  0  0  0
   -2.2795    3.7539    4.5532 H   0  0  0  0  0  0  0  0  0  0  0  0
   -1.7724    3.1940    2.9672 H   0  0  0  0  0  0  0  0  0  0  0  0
   -2.0826    1.5643    5.3331 H   0  0  0  0  0  0  0  0  0  0  0  0
   -1.5925    1.0870    3.7138 H   0  0  0  0  0  0  0  0  0  0  0  0
    0.0750    1.8735    6.0919 H   0  0  0  0  0  0  0  0  0  0  0  0
    4.4275   -4.9278    5.4713 H   0  0  0  0  0  0  0  0  0  0  0  0
    3.3776   -3.9960    6.5287 H   0  0  0  0  0  0  0  0  0  0  0  0
    4.7894   -3.2347    5.7870 H   0  0  0  0  0  0  0  0  0  0  0  0
    2.3432   -5.6195    4.4688 H   0  0  0  0  0  0  0  0  0  0  0  0
    1.4319   -4.5906    3.3774 H   0  0  0  0  0  0  0  0  0  0  0  0
    1.2436   -4.4310    5.1136 H   0  0  0  0  0  0  0  0  0  0  0  0
    5.0041   -3.1527    3.4792 H   0  0  0  0  0  0  0  0  0  0  0  0
    5.4140   -5.0053    2.4163 H   0  0  0  0  0  0  0  0  0  0  0  0
    3.9494   -5.7448    3.0008 H   0  0  0  0  0  0  0  0  0  0  0  0
    4.2971   -5.4695    0.3686 H   0  0  0  0  0  0  0  0  0  0  0  0
    2.7325   -5.0443    1.0479 H   0  0  0  0  0  0  0  0  0  0  0  0
    2.0897   -3.2967   -0.4922 H   0  0  0  0  0  0  0  0  0  0  0  0
    3.5187   -3.5244   -1.4629 H   0  0  0  0  0  0  0  0  0  0  0  0
    3.1232   -1.9270   -0.7975 H   0  0  0  0  0  0  0  0  0  0  0  0
  1  2  2  0
  1 34  1  0
  1 35  1  0
  2  3  1  0
  2 36  1  0
  3 33  1  0
  3  4  1  1
  3  5  1  0
  4 37  1  0
  4 38  1  0
  4 39  1  0
  5  6  1  0
  7  6  1  1
  6 40  1  0
  6 41  1  0
  7 28  1  0
  7 31  1  0
  7  8  1  0
  8  9  1  0
  8 42  1  0
  8 43  1  0
  9 15  1  0
  9 10  1  0
  9 44  1  1
 10 11  2  0
 10 25  1  0
 11 12  1  0
 11 45  1  0
 12 13  1  0
 12 46  1  0
 12 47  1  0
 13 24  1  0
 13 14  1  1
 13 15  1  0
 14 48  1  0
 14 49  1  0
 14 50  1  0
 15 16  1  0
 15 51  1  6
 16 17  1  0
 16 52  1  0
 16 53  1  0
 17 18  1  0
 17 54  1  0
 17 55  1  0
 18 24  1  0
 18 19  1  1
 18 20  1  0
 19 56  1  0
 19 57  1  0
 19 58  1  0
 20 21  1  0
 20 22  1  0
 20 59  1  1
 21 60  1  0
 22 23  1  0
 22 61  1  0
 22 62  1  0
 23 24  1  0
 23 63  1  0
 23 64  1  0
 24 65  1  1
 25 26  1  0
 25 27  1  0
 25 28  1  0
 26 66  1  0
 26 67  1  0
 26 68  1  0
 27 69  1  0
 27 70  1  0
 27 71  1  0
 28 29  1  0
 28 72  1  1
 29 30  1  0
 29 73  1  0
 29 74  1  0
 30 31  1  0
 30 75  1  0
 30 76  1  0
 31 32  1  6
 31 33  1  0
 32 77  1  0
 32 78  1  0
 32 79  1  0
M  END
>  <i_m_ct_stereo_status>  (46) 
1

>  <s_m_source_file>  (46) 
/var/tmp/pbs.5076255.sched01/tmp0du1nuht/0914ajmtz.sdf

>  <i_m_source_file_index>  (46) 
21

>  <i_lp_mmshare_version>  (46) 
48012

>  <i_f3d_flags>  (46) 
0

>  <s_epik_input>  (46) 
W0NIMl09W0NIXVtDQEBdKFtDSDNdKShPW0NIMl0xKU9bQ0BAXTIoW0NIM10pW0NIMl1bQ0gyXVtDQEBIXShbQ0BAXTEyMylDKFtDSDNdKShbQ0gzXSlDPTRbQ0BIXShbQ0gyXTMpW0NASF01W0NAQF0oW0NIM10pKFtDSDJdW0NIXTQpW0NASF02W0NAQF0oW0NIM10pKFtDSDJdW0NIMl01KVtDQEBIXShbT0hdKVtDSDJdW0NIMl02

>  <s_epik_cmdline>  (46) 
J2VwaWtfcHl0aG9uJywgJy1waHQnLCAnMi4wJywgJy1waCcsICc3LjAnLCAnLXRuJywgJzgnLCAnLW1hJywgJzIwMCcsICctaW1hZScsICc8aW5maWxlLm1hZT4nLCAnLW9tYWUnLCAnPG91dGZpbGUubWFlPic=

>  <r_lp_tautomer_probability>  (46) 
1

>  <r_epik_Ionization_Penalty>  (46) 
2.78527e-06

>  <r_epik_Ionization_Penalty_Charging>  (46) 
0

>  <r_epik_Ionization_Penalty_Neutral>  (46) 
2.78527e-06

>  <r_epik_State_Penalty>  (46) 
-0

>  <r_epik_Charging_Adjusted_Penalty>  (46) 
0

>  <i_epik_Tot_Q>  (46) 
0

>  <i_epik_Tot_abs_Q>  (46) 
0

>  <s_lp_Force_Field>  (46) 
OPLS3e

>  <r_lp_Energy>  (46) 
76.4435

>  <b_lp_Chiralities_Consistent>  (46) 
1

>  <s_lp_Variant>  (46) 
17:0-1

>  <s_i_glide_gridfile>  (46) 
pfpi4k_grid

>  <i_i_glide_lignum>  (46) 
21

>  <i_i_glide_rotatable_bonds>  (46) 
2

>  <r_i_docking_score>  (46) 
-3.09091

>  <r_i_glide_ligand_efficiency>  (46) 
-0.093664

>  <r_i_glide_ligand_efficiency_sa>  (46) 
-0.30043

>  <r_i_glide_ligand_efficiency_ln>  (46) 
-0.687403

>  <r_i_glide_gscore>  (46) 
-3.09091

>  <r_i_glide_lipo>  (46) 
-0.234027

>  <r_i_glide_hbond>  (46) 
-0.16

>  <r_i_glide_metal>  (46) 
-0

>  <r_i_glide_rewards>  (46) 
-0.417495

>  <r_i_glide_evdw>  (46) 
-28.5493

>  <r_i_glide_ecoul>  (46) 
-6.32711

>  <r_i_glide_erotb>  (46) 
0.0971427

>  <r_i_glide_esite>  (46) 
0

>  <r_i_glide_emodel>  (46) 
-41.364

>  <r_i_glide_energy>  (46) 
-34.8764

>  <r_i_glide_einternal>  (46) 
0.631505

>  <r_i_glide_intrahb_reward>  (46) 
-0

>  <i_i_glide_confnum>  (46) 
1

>  <i_i_glide_posenum>  (46) 
24

>  <r_i_glide_eff_state_penalty>  (46) 
0

>  <ligand_id>  (46) 
17

>  <original_smiles>  (46) 
C=CC1(C)OCC23CC4C(=CCC5(C)C4CCC4(C)C(O)CCC45)C(C)(C)C2CCC3(C)O1

>  <smiles>  (46) 
[H]OC1([H])C([H])([H])C([H])([H])C2([H])C1(C([H])([H])[H])C([H])([H])C([H])([H])C1([H])C3([H])C(=C([H])C([H])([H])C12C([H])([H])[H])C(C([H])([H])[H])(C([H])([H])[H])C1([H])C([H])([H])C([H])([H])C2(C([H])([H])[H])OC(C([H])=C([H])[H])(C([H])([H])[H])OC([H])([H])C12C3([H])[H]

$$$$
17:0:1
     RDKit          3D

 79 84  0  0  1  0  0  0  0  0999 V2000
    5.2323   -1.3798   -1.9121 C   0  0  0  0  0  0  0  0  0  0  0  0
    4.7453   -1.3585   -0.6608 C   0  0  0  0  0  0  0  0  0  0  0  0
    5.4568   -1.8455    0.6174 C   0  0  1  0  0  0  0  0  0  0  0  0
    6.9745   -1.9202    0.3892 C   0  0  0  0  0  0  0  0  0  0  0  0
    5.2991   -0.9534    1.6777 O   0  0  0  0  0  0  0  0  0  0  0  0
    3.9942   -0.9093    2.2443 C   0  0  0  0  0  0  0  0  0  0  0  0
    3.5323   -2.2954    2.7521 C   0  0  2  0  0  0  0  0  0  0  0  0
    2.0123   -2.2439    3.1134 C   0  0  0  0  0  0  0  0  0  0  0  0
    1.6404   -1.4768    4.4137 C   0  0  1  0  0  0  0  0  0  0  0  0
    2.8219   -1.3387    5.3766 C   0  0  0  0  0  0  0  0  0  0  0  0
    2.9723   -0.2370    6.1410 C   0  0  0  0  0  0  0  0  0  0  0  0
    2.0028    0.9289    6.1670 C   0  0  0  0  0  0  0  0  0  0  0  0
    0.5992    0.5810    5.6004 C   0  0  2  0  0  0  0  0  0  0  0  0
   -0.1019   -0.3320    6.6475 C   0  0  0  0  0  0  0  0  0  0  0  0
    0.7779   -0.1806    4.2484 C   0  0  1  0  0  0  0  0  0  0  0  0
    1.2636    0.7872    3.1489 C   0  0  0  0  0  0  0  0  0  0  0  0
    0.2931    1.9567    2.9382 C   0  0  0  0  0  0  0  0  0  0  0  0
    0.0815    2.8177    4.2074 C   0  0  1  0  0  0  0  0  0  0  0  0
    1.2821    3.7591    4.4600 C   0  0  0  0  0  0  0  0  0  0  0  0
   -1.1919    3.6929    4.1122 C   0  0  1  0  0  0  0  0  0  0  0  0
   -1.4081    4.3824    2.8910 O   0  0  0  0  0  0  0  0  0  0  0  0
   -2.3679    2.7827    4.4442 C   0  0  0  0  0  0  0  0  0  0  0  0
   -1.7837    1.6307    5.2650 C   0  0  0  0  0  0  0  0  0  0  0  0
   -0.2659    1.8856    5.4103 C   0  0  1  0  0  0  0  0  0  0  0  0
    3.7516   -2.5656    5.4155 C   0  0  0  0  0  0  0  0  0  0  0  0
    4.9020   -2.3905    6.4382 C   0  0  0  0  0  0  0  0  0  0  0  0
    2.9171   -3.7780    5.9173 C   0  0  0  0  0  0  0  0  0  0  0  0
    4.3770   -2.7644    3.9879 C   0  0  1  0  0  0  0  0  0  0  0  0
    4.8748   -4.1873    3.6621 C   0  0  0  0  0  0  0  0  0  0  0  0
    4.0724   -4.6436    2.4499 C   0  0  0  0  0  0  0  0  0  0  0  0
    3.8277   -3.3621    1.6461 C   0  0  1  0  0  0  0  0  0  0  0  0
    2.7474   -3.5830    0.5674 C   0  0  0  0  0  0  0  0  0  0  0  0
    5.0842   -3.1396    0.9927 O   0  0  0  0  0  0  0  0  0  0  0  0
    6.2007   -1.8000   -2.1545 H   0  0  0  0  0  0  0  0  0  0  0  0
    4.6498   -0.9720   -2.7301 H   0  0  0  0  0  0  0  0  0  0  0  0
    3.7594   -0.9314   -0.5431 H   0  0  0  0  0  0  0  0  0  0  0  0
    7.4700   -2.2506    1.2878 H   0  0  0  0  0  0  0  0  0  0  0  0
    7.3613   -0.9396    0.1245 H   0  0  0  0  0  0  0  0  0  0  0  0
    7.2227   -2.6375   -0.3892 H   0  0  0  0  0  0  0  0  0  0  0  0
    4.0192   -0.1922    3.0659 H   0  0  0  0  0  0  0  0  0  0  0  0
    3.2920   -0.5202    1.5098 H   0  0  0  0  0  0  0  0  0  0  0  0
    1.4151   -1.8896    2.2746 H   0  0  0  0  0  0  0  0  0  0  0  0
    1.6660   -3.2681    3.2427 H   0  0  0  0  0  0  0  0  0  0  0  0
    0.9658   -2.1560    4.9344 H   0  0  0  0  0  0  0  0  0  0  0  0
    3.8057   -0.1286    6.8156 H   0  0  0  0  0  0  0  0  0  0  0  0
    1.9148    1.2886    7.1930 H   0  0  0  0  0  0  0  0  0  0  0  0
    2.4906    1.7179    5.6085 H   0  0  0  0  0  0  0  0  0  0  0  0
   -1.0010   -0.7978    6.2426 H   0  0  0  0  0  0  0  0  0  0  0  0
   -0.3801    0.2278    7.5412 H   0  0  0  0  0  0  0  0  0  0  0  0
    0.5423   -1.1454    6.9841 H   0  0  0  0  0  0  0  0  0  0  0  0
   -0.2049   -0.5182    3.9171 H   0  0  0  0  0  0  0  0  0  0  0  0
    2.2572    1.1687    3.3749 H   0  0  0  0  0  0  0  0  0  0  0  0
    1.3419    0.2789    2.1915 H   0  0  0  0  0  0  0  0  0  0  0  0
    0.6723    2.5656    2.1197 H   0  0  0  0  0  0  0  0  0  0  0  0
   -0.6614    1.5539    2.5943 H   0  0  0  0  0  0  0  0  0  0  0  0
    1.3086    4.1092    5.4930 H   0  0  0  0  0  0  0  0  0  0  0  0
    1.2194    4.6448    3.8271 H   0  0  0  0  0  0  0  0  0  0  0  0
    2.2433    3.3030    4.2336 H   0  0  0  0  0  0  0  0  0  0  0  0
   -1.1454    4.4480    4.8996 H   0  0  0  0  0  0  0  0  0  0  0  0
   -0.7303    4.1605    2.2491 H   0  0  0  0  0  0  0  0  0  0  0  0
   -3.1413    3.3189    4.9891 H   0  0  0  0  0  0  0  0  0  0  0  0
   -2.8236    2.3890    3.5380 H   0  0  0  0  0  0  0  0  0  0  0  0
   -2.2620    1.5642    6.2435 H   0  0  0  0  0  0  0  0  0  0  0  0
   -1.9829    0.6955    4.7388 H   0  0  0  0  0  0  0  0  0  0  0  0
   -0.1551    2.4769    6.3233 H   0  0  0  0  0  0  0  0  0  0  0  0
    5.5476   -3.2688    6.4529 H   0  0  0  0  0  0  0  0  0  0  0  0
    4.5197   -2.2586    7.4527 H   0  0  0  0  0  0  0  0  0  0  0  0
    5.5305   -1.5304    6.2025 H   0  0  0  0  0  0  0  0  0  0  0  0
    3.5461   -4.6109    6.2312 H   0  0  0  0  0  0  0  0  0  0  0  0
    2.2245   -4.1629    5.1705 H   0  0  0  0  0  0  0  0  0  0  0  0
    2.3262   -3.4995    6.7920 H   0  0  0  0  0  0  0  0  0  0  0  0
    5.2755   -2.1466    3.9768 H   0  0  0  0  0  0  0  0  0  0  0  0
    5.9224   -4.1360    3.3706 H   0  0  0  0  0  0  0  0  0  0  0  0
    4.8253   -4.8984    4.4839 H   0  0  0  0  0  0  0  0  0  0  0  0
    4.5961   -5.4081    1.8758 H   0  0  0  0  0  0  0  0  0  0  0  0
    3.1305   -5.0770    2.7832 H   0  0  0  0  0  0  0  0  0  0  0  0
    1.8579   -4.0423    0.9935 H   0  0  0  0  0  0  0  0  0  0  0  0
    3.1069   -4.2525   -0.2146 H   0  0  0  0  0  0  0  0  0  0  0  0
    2.4390   -2.6541    0.0914 H   0  0  0  0  0  0  0  0  0  0  0  0
  1  2  2  0
  1 34  1  0
  1 35  1  0
  2  3  1  0
  2 36  1  0
  3 33  1  0
  3  4  1  6
  3  5  1  0
  4 37  1  0
  4 38  1  0
  4 39  1  0
  5  6  1  0
  7  6  1  6
  6 40  1  0
  6 41  1  0
  7 28  1  0
  7 31  1  0
  7  8  1  0
  8  9  1  0
  8 42  1  0
  8 43  1  0
  9 15  1  0
  9 10  1  0
  9 44  1  1
 10 11  2  0
 10 25  1  0
 11 12  1  0
 11 45  1  0
 12 13  1  0
 12 46  1  0
 12 47  1  0
 13 24  1  0
 13 14  1  1
 13 15  1  0
 14 48  1  0
 14 49  1  0
 14 50  1  0
 15 16  1  0
 15 51  1  6
 16 17  1  0
 16 52  1  0
 16 53  1  0
 17 18  1  0
 17 54  1  0
 17 55  1  0
 18 24  1  0
 18 19  1  1
 18 20  1  0
 19 56  1  0
 19 57  1  0
 19 58  1  0
 20 21  1  0
 20 22  1  0
 20 59  1  1
 21 60  1  0
 22 23  1  0
 22 61  1  0
 22 62  1  0
 23 24  1  0
 23 63  1  0
 23 64  1  0
 24 65  1  1
 25 26  1  0
 25 27  1  0
 25 28  1  0
 26 66  1  0
 26 67  1  0
 26 68  1  0
 27 69  1  0
 27 70  1  0
 27 71  1  0
 28 29  1  0
 28 72  1  1
 29 30  1  0
 29 73  1  0
 29 74  1  0
 30 31  1  0
 30 75  1  0
 30 76  1  0
 31 32  1  6
 31 33  1  0
 32 77  1  0
 32 78  1  0
 32 79  1  0
M  END
>  <i_m_ct_stereo_status>  (47) 
1

>  <s_m_source_file>  (47) 
/var/tmp/pbs.5076255.sched01/tmp0du1nuht/0914ajmtz.sdf

>  <i_m_source_file_index>  (47) 
21

>  <i_lp_mmshare_version>  (47) 
48012

>  <i_f3d_flags>  (47) 
0

>  <s_epik_input>  (47) 
W0NIMl09W0NIXVtDQEBdKFtDSDNdKShPW0NIMl0xKU9bQ0BAXTIoW0NIM10pW0NIMl1bQ0gyXVtDQEBIXShbQ0BAXTEyMylDKFtDSDNdKShbQ0gzXSlDPTRbQ0BIXShbQ0gyXTMpW0NASF01W0NAQF0oW0NIM10pKFtDSDJdW0NIXTQpW0NASF02W0NAQF0oW0NIM10pKFtDSDJdW0NIMl01KVtDQEBIXShbT0hdKVtDSDJdW0NIMl02

>  <s_epik_cmdline>  (47) 
J2VwaWtfcHl0aG9uJywgJy1waHQnLCAnMi4wJywgJy1waCcsICc3LjAnLCAnLXRuJywgJzgnLCAnLW1hJywgJzIwMCcsICctaW1hZScsICc8aW5maWxlLm1hZT4nLCAnLW9tYWUnLCAnPG91dGZpbGUubWFlPic=

>  <r_lp_tautomer_probability>  (47) 
1

>  <r_epik_Ionization_Penalty>  (47) 
2.78527e-06

>  <r_epik_Ionization_Penalty_Charging>  (47) 
0

>  <r_epik_Ionization_Penalty_Neutral>  (47) 
2.78527e-06

>  <r_epik_State_Penalty>  (47) 
-0

>  <r_epik_Charging_Adjusted_Penalty>  (47) 
0

>  <i_epik_Tot_Q>  (47) 
0

>  <i_epik_Tot_abs_Q>  (47) 
0

>  <s_lp_Force_Field>  (47) 
OPLS3e

>  <r_lp_Energy>  (47) 
76.4435

>  <b_lp_Chiralities_Consistent>  (47) 
1

>  <s_lp_Variant>  (47) 
17:0-1

>  <s_i_glide_gridfile>  (47) 
pfpi4k_grid

>  <i_i_glide_lignum>  (47) 
21

>  <i_i_glide_rotatable_bonds>  (47) 
2

>  <r_i_docking_score>  (47) 
-2.7459

>  <r_i_glide_ligand_efficiency>  (47) 
-0.083209

>  <r_i_glide_ligand_efficiency_sa>  (47) 
-0.266896

>  <r_i_glide_ligand_efficiency_ln>  (47) 
-0.610673

>  <r_i_glide_gscore>  (47) 
-2.7459

>  <r_i_glide_lipo>  (47) 
-0.065025

>  <r_i_glide_hbond>  (47) 
-0.165408

>  <r_i_glide_metal>  (47) 
-0

>  <r_i_glide_rewards>  (47) 
-0.40244

>  <r_i_glide_evdw>  (47) 
-26.7108

>  <r_i_glide_ecoul>  (47) 
-5.83084

>  <r_i_glide_erotb>  (47) 
0.0971427

>  <r_i_glide_esite>  (47) 
0

>  <r_i_glide_emodel>  (47) 
-37.4902

>  <r_i_glide_energy>  (47) 
-32.5416

>  <r_i_glide_einternal>  (47) 
1.95802

>  <r_i_glide_intrahb_reward>  (47) 
-0

>  <i_i_glide_confnum>  (47) 
5

>  <i_i_glide_posenum>  (47) 
10

>  <r_i_glide_eff_state_penalty>  (47) 
0

>  <ligand_id>  (47) 
17

>  <original_smiles>  (47) 
C=CC1(C)OCC23CC4C(=CCC5(C)C4CCC4(C)C(O)CCC45)C(C)(C)C2CCC3(C)O1

>  <smiles>  (47) 
[H]OC1([H])C([H])([H])C([H])([H])C2([H])C1(C([H])([H])[H])C([H])([H])C([H])([H])C1([H])C3([H])C(=C([H])C([H])([H])C12C([H])([H])[H])C(C([H])([H])[H])(C([H])([H])[H])C1([H])C([H])([H])C([H])([H])C2(C([H])([H])[H])OC(C([H])=C([H])[H])(C([H])([H])[H])OC([H])([H])C12C3([H])[H]

$$$$
17:0:2
     RDKit          3D

 79 84  0  0  1  0  0  0  0  0999 V2000
    4.4647   -4.0863   -4.0861 C   0  0  0  0  0  0  0  0  0  0  0  0
    4.5960   -3.8590   -2.7722 C   0  0  0  0  0  0  0  0  0  0  0  0
    4.2154   -2.5673   -2.0182 C   0  0  1  0  0  0  0  0  0  0  0  0
    3.7737   -1.4665   -3.0019 C   0  0  0  0  0  0  0  0  0  0  0  0
    3.1185   -2.7655   -1.1883 O   0  0  0  0  0  0  0  0  0  0  0  0
    3.3607   -3.5756   -0.0495 C   0  0  0  0  0  0  0  0  0  0  0  0
    4.4550   -2.9677    0.8547 C   0  0  2  0  0  0  0  0  0  0  0  0
    4.8540   -3.9984    1.9602 C   0  0  0  0  0  0  0  0  0  0  0  0
    3.8262   -4.2156    3.1069 C   0  0  1  0  0  0  0  0  0  0  0  0
    2.8464   -3.0497    3.2512 C   0  0  0  0  0  0  0  0  0  0  0  0
    1.5675   -3.2560    3.6245 C   0  0  0  0  0  0  0  0  0  0  0  0
    0.9928   -4.6101    3.9789 C   0  0  0  0  0  0  0  0  0  0  0  0
    2.0599   -5.6828    4.3135 C   0  0  2  0  0  0  0  0  0  0  0  0
    2.6431   -5.3129    5.7067 C   0  0  0  0  0  0  0  0  0  0  0  0
    3.1728   -5.6335    3.2161 C   0  0  1  0  0  0  0  0  0  0  0  0
    2.6407   -6.2155    1.8876 C   0  0  0  0  0  0  0  0  0  0  0  0
    2.1440   -7.6623    2.0433 C   0  0  0  0  0  0  0  0  0  0  0  0
    0.9969   -7.8109    3.0758 C   0  0  1  0  0  0  0  0  0  0  0  0
   -0.3460   -7.3376    2.4743 C   0  0  0  0  0  0  0  0  0  0  0  0
    0.8133   -9.2737    3.5376 C   0  0  1  0  0  0  0  0  0  0  0  0
    0.8853  -10.2114    2.4828 O   0  0  0  0  0  0  0  0  0  0  0  0
    1.8914   -9.5426    4.5823 C   0  0  0  0  0  0  0  0  0  0  0  0
    2.2726   -8.1704    5.1392 C   0  0  0  0  0  0  0  0  0  0  0  0
    1.4046   -7.1132    4.4053 C   0  0  1  0  0  0  0  0  0  0  0  0
    3.4688   -1.6635    2.9870 C   0  0  0  0  0  0  0  0  0  0  0  0
    2.4458   -0.5168    3.1910 C   0  0  0  0  0  0  0  0  0  0  0  0
    4.5791   -1.4333    4.0521 C   0  0  0  0  0  0  0  0  0  0  0  0
    3.9812   -1.6203    1.5028 C   0  0  1  0  0  0  0  0  0  0  0  0
    5.0819   -0.5835    1.2026 C   0  0  0  0  0  0  0  0  0  0  0  0
    6.2808   -1.3842    0.7101 C   0  0  0  0  0  0  0  0  0  0  0  0
    5.6780   -2.5766   -0.0389 C   0  0  1  0  0  0  0  0  0  0  0  0
    6.7471   -3.6615   -0.2814 C   0  0  0  0  0  0  0  0  0  0  0  0
    5.2895   -2.0195   -1.3083 O   0  0  0  0  0  0  0  0  0  0  0  0
    4.0484   -3.3435   -4.7417 H   0  0  0  0  0  0  0  0  0  0  0  0
    4.7639   -5.0339   -4.5186 H   0  0  0  0  0  0  0  0  0  0  0  0
    4.9928   -4.6772   -2.1983 H   0  0  0  0  0  0  0  0  0  0  0  0
    3.4996   -0.5552   -2.4706 H   0  0  0  0  0  0  0  0  0  0  0  0
    2.9022   -1.7893   -3.5739 H   0  0  0  0  0  0  0  0  0  0  0  0
    4.5859   -1.2301   -3.6882 H   0  0  0  0  0  0  0  0  0  0  0  0
    2.4215   -3.6546    0.4962 H   0  0  0  0  0  0  0  0  0  0  0  0
    3.6284   -4.5828   -0.3675 H   0  0  0  0  0  0  0  0  0  0  0  0
    5.1468   -4.9531    1.5284 H   0  0  0  0  0  0  0  0  0  0  0  0
    5.7735   -3.6458    2.4249 H   0  0  0  0  0  0  0  0  0  0  0  0
    4.4279   -4.1519    4.0143 H   0  0  0  0  0  0  0  0  0  0  0  0
    0.8692   -2.4404    3.7155 H   0  0  0  0  0  0  0  0  0  0  0  0
    0.3014   -4.4927    4.8148 H   0  0  0  0  0  0  0  0  0  0  0  0
    0.3990   -4.9004    3.1254 H   0  0  0  0  0  0  0  0  0  0  0  0
    3.5435   -5.8850    5.9379 H   0  0  0  0  0  0  0  0  0  0  0  0
    1.9164   -5.4951    6.5004 H   0  0  0  0  0  0  0  0  0  0  0  0
    2.9155   -4.2591    5.7751 H   0  0  0  0  0  0  0  0  0  0  0  0
    3.9746   -6.3051    3.5242 H   0  0  0  0  0  0  0  0  0  0  0  0
    1.8483   -5.5929    1.4782 H   0  0  0  0  0  0  0  0  0  0  0  0
    3.4262   -6.2317    1.1360 H   0  0  0  0  0  0  0  0  0  0  0  0
    1.8210   -8.0394    1.0728 H   0  0  0  0  0  0  0  0  0  0  0  0
    2.9944   -8.2810    2.3335 H   0  0  0  0  0  0  0  0  0  0  0  0
   -1.0791   -7.1258    3.2543 H   0  0  0  0  0  0  0  0  0  0  0  0
   -0.7791   -8.1058    1.8326 H   0  0  0  0  0  0  0  0  0  0  0  0
   -0.2417   -6.4590    1.8443 H   0  0  0  0  0  0  0  0  0  0  0  0
   -0.1563   -9.3818    4.0298 H   0  0  0  0  0  0  0  0  0  0  0  0
    0.2416   -9.9928    1.8245 H   0  0  0  0  0  0  0  0  0  0  0  0
    1.5376  -10.2231    5.3558 H   0  0  0  0  0  0  0  0  0  0  0  0
    2.7651  -10.0057    4.1251 H   0  0  0  0  0  0  0  0  0  0  0  0
    2.1111   -8.1280    6.2165 H   0  0  0  0  0  0  0  0  0  0  0  0
    3.3367   -8.0035    4.9651 H   0  0  0  0  0  0  0  0  0  0  0  0
    0.4971   -7.0150    5.0069 H   0  0  0  0  0  0  0  0  0  0  0  0
    2.9068    0.4553    3.0022 H   0  0  0  0  0  0  0  0  0  0  0  0
    2.0668   -0.4985    4.2147 H   0  0  0  0  0  0  0  0  0  0  0  0
    1.5928   -0.6073    2.5154 H   0  0  0  0  0  0  0  0  0  0  0  0
    4.8858   -0.3884    4.1131 H   0  0  0  0  0  0  0  0  0  0  0  0
    5.4758   -2.0216    3.8698 H   0  0  0  0  0  0  0  0  0  0  0  0
    4.2160   -1.6999    5.0458 H   0  0  0  0  0  0  0  0  0  0  0  0
    3.1255   -1.2938    0.9102 H   0  0  0  0  0  0  0  0  0  0  0  0
    4.7401    0.0683    0.3982 H   0  0  0  0  0  0  0  0  0  0  0  0
    5.3417    0.0691    2.0330 H   0  0  0  0  0  0  0  0  0  0  0  0
    6.9458   -0.7814    0.0951 H   0  0  0  0  0  0  0  0  0  0  0  0
    6.8606   -1.7253    1.5667 H   0  0  0  0  0  0  0  0  0  0  0  0
    7.3086   -3.8915    0.6238 H   0  0  0  0  0  0  0  0  0  0  0  0
    7.4673   -3.3316   -1.0315 H   0  0  0  0  0  0  0  0  0  0  0  0
    6.3050   -4.5944   -0.6189 H   0  0  0  0  0  0  0  0  0  0  0  0
  1  2  2  0
  1 34  1  0
  1 35  1  0
  2  3  1  0
  2 36  1  0
  3 33  1  0
  3  4  1  6
  3  5  1  0
  4 37  1  0
  4 38  1  0
  4 39  1  0
  5  6  1  0
  7  6  1  6
  6 40  1  0
  6 41  1  0
  7 28  1  0
  7 31  1  0
  7  8  1  0
  8  9  1  0
  8 42  1  0
  8 43  1  0
  9 15  1  0
  9 10  1  0
  9 44  1  1
 10 11  2  0
 10 25  1  0
 11 12  1  0
 11 45  1  0
 12 13  1  0
 12 46  1  0
 12 47  1  0
 13 24  1  0
 13 14  1  1
 13 15  1  0
 14 48  1  0
 14 49  1  0
 14 50  1  0
 15 16  1  0
 15 51  1  1
 16 17  1  0
 16 52  1  0
 16 53  1  0
 17 18  1  0
 17 54  1  0
 17 55  1  0
 18 24  1  0
 18 19  1  6
 18 20  1  0
 19 56  1  0
 19 57  1  0
 19 58  1  0
 20 21  1  0
 20 22  1  0
 20 59  1  1
 21 60  1  0
 22 23  1  0
 22 61  1  0
 22 62  1  0
 23 24  1  0
 23 63  1  0
 23 64  1  0
 24 65  1  1
 25 26  1  0
 25 27  1  0
 25 28  1  0
 26 66  1  0
 26 67  1  0
 26 68  1  0
 27 69  1  0
 27 70  1  0
 27 71  1  0
 28 29  1  0
 28 72  1  6
 29 30  1  0
 29 73  1  0
 29 74  1  0
 30 31  1  0
 30 75  1  0
 30 76  1  0
 31 32  1  6
 31 33  1  0
 32 77  1  0
 32 78  1  0
 32 79  1  0
M  END
>  <i_m_ct_stereo_status>  (48) 
1

>  <s_m_source_file>  (48) 
/var/tmp/pbs.5076255.sched01/tmp0du1nuht/0914ajmtz.sdf

>  <i_m_source_file_index>  (48) 
21

>  <i_lp_mmshare_version>  (48) 
48012

>  <i_f3d_flags>  (48) 
0

>  <s_epik_input>  (48) 
W0NIMl09W0NIXVtDQEBdKFtDSDNdKShPW0NIMl0xKU9bQ0BAXTIoW0NIM10pW0NIMl1bQ0gyXVtDQEBIXShbQ0BAXTEyMylDKFtDSDNdKShbQ0gzXSlDPTRbQ0BIXShbQ0gyXTMpW0NASF01W0NAQF0oW0NIM10pKFtDSDJdW0NIXTQpW0NASF02W0NAQF0oW0NIM10pKFtDSDJdW0NIMl01KVtDQEBIXShbT0hdKVtDSDJdW0NIMl02

>  <s_epik_cmdline>  (48) 
J2VwaWtfcHl0aG9uJywgJy1waHQnLCAnMi4wJywgJy1waCcsICc3LjAnLCAnLXRuJywgJzgnLCAnLW1hJywgJzIwMCcsICctaW1hZScsICc8aW5maWxlLm1hZT4nLCAnLW9tYWUnLCAnPG91dGZpbGUubWFlPic=

>  <r_lp_tautomer_probability>  (48) 
1

>  <r_epik_Ionization_Penalty>  (48) 
2.78527e-06

>  <r_epik_Ionization_Penalty_Charging>  (48) 
0

>  <r_epik_Ionization_Penalty_Neutral>  (48) 
2.78527e-06

>  <r_epik_State_Penalty>  (48) 
-0

>  <r_epik_Charging_Adjusted_Penalty>  (48) 
0

>  <i_epik_Tot_Q>  (48) 
0

>  <i_epik_Tot_abs_Q>  (48) 
0

>  <s_lp_Force_Field>  (48) 
OPLS3e

>  <r_lp_Energy>  (48) 
76.4435

>  <b_lp_Chiralities_Consistent>  (48) 
1

>  <s_lp_Variant>  (48) 
17:0-1

>  <s_i_glide_gridfile>  (48) 
pfpi4k_grid

>  <i_i_glide_lignum>  (48) 
21

>  <i_i_glide_rotatable_bonds>  (48) 
2

>  <r_i_docking_score>  (48) 
-2.74332

>  <r_i_glide_ligand_efficiency>  (48) 
-0.0831308

>  <r_i_glide_ligand_efficiency_sa>  (48) 
-0.266645

>  <r_i_glide_ligand_efficiency_ln>  (48) 
-0.610099

>  <r_i_glide_gscore>  (48) 
-2.74332

>  <r_i_glide_lipo>  (48) 
-0.477399

>  <r_i_glide_hbond>  (48) 
-0.193001

>  <r_i_glide_metal>  (48) 
-0

>  <r_i_glide_rewards>  (48) 
-0.30897

>  <r_i_glide_evdw>  (48) 
-37.418

>  <r_i_glide_ecoul>  (48) 
0.0942889

>  <r_i_glide_erotb>  (48) 
0.0971427

>  <r_i_glide_esite>  (48) 
-0.00433405

>  <r_i_glide_emodel>  (48) 
-43.1091

>  <r_i_glide_energy>  (48) 
-37.3237

>  <r_i_glide_einternal>  (48) 
0.50081

>  <r_i_glide_intrahb_reward>  (48) 
-0

>  <i_i_glide_confnum>  (48) 
2

>  <i_i_glide_posenum>  (48) 
9

>  <r_i_glide_eff_state_penalty>  (48) 
0

>  <ligand_id>  (48) 
17

>  <original_smiles>  (48) 
C=CC1(C)OCC23CC4C(=CCC5(C)C4CCC4(C)C(O)CCC45)C(C)(C)C2CCC3(C)O1

>  <smiles>  (48) 
[H]OC1([H])C([H])([H])C([H])([H])C2([H])C1(C([H])([H])[H])C([H])([H])C([H])([H])C1([H])C3([H])C(=C([H])C([H])([H])C12C([H])([H])[H])C(C([H])([H])[H])(C([H])([H])[H])C1([H])C([H])([H])C([H])([H])C2(C([H])([H])[H])OC(C([H])=C([H])[H])(C([H])([H])[H])OC([H])([H])C12C3([H])[H]

$$$$
19:0:0
     RDKit          3D

 38 40  0  0  1  0  0  0  0  0999 V2000
   -9.1660  -11.0611   -5.9040 C   0  0  0  0  0  0  0  0  0  0  0  0
   -9.5047  -11.3654   -7.1707 C   0  0  0  0  0  0  0  0  0  0  0  0
   -8.6344  -11.1738   -8.4061 C   0  0  0  0  0  0  0  0  0  0  0  0
   -7.3620  -10.5066   -8.1556 N   0  0  0  0  0  0  0  0  0  0  0  0
   -7.2397   -9.1002   -8.5685 C   0  0  0  0  0  0  0  0  0  0  0  0
   -6.5542   -8.2525   -7.5683 N   0  0  0  0  0  0  0  0  0  0  0  0
   -7.4247   -7.9148   -6.4368 C   0  0  0  0  0  0  0  0  0  0  0  0
   -7.1655   -6.5587   -5.8424 C   0  0  0  0  0  0  0  0  0  0  0  0
   -8.0124   -5.4758   -5.8562 C   0  0  0  0  0  0  0  0  0  0  0  0
   -7.4667   -4.3325   -5.2076 C   0  0  0  0  0  0  0  0  0  0  0  0
   -6.2055   -4.5494   -4.7204 C   0  0  0  0  0  0  0  0  0  0  0  0
   -5.7066   -6.1937   -4.9607 S   0  0  0  0  0  0  0  0  0  0  0  0
   -5.2699   -8.8325   -7.1456 C   0  0  0  0  0  0  0  0  0  0  0  0
   -5.3592  -10.3287   -6.9235 C   0  0  0  0  0  0  0  0  0  0  0  0
   -4.3876  -11.1302   -6.1066 C   0  0  0  0  0  0  0  0  0  0  0  0
   -5.0067  -12.5565   -6.1204 C   0  0  0  0  0  0  0  0  0  0  0  0
   -6.2137  -12.5232   -7.0932 C   0  0  0  0  0  0  0  0  0  0  0  0
   -6.3252  -11.0650   -7.4336 C   0  0  0  0  0  0  0  0  0  0  0  0
   -8.2101  -10.6397   -5.6345 H   0  0  0  0  0  0  0  0  0  0  0  0
   -9.8502  -11.2330   -5.0891 H   0  0  0  0  0  0  0  0  0  0  0  0
  -10.4844  -11.7883   -7.3531 H   0  0  0  0  0  0  0  0  0  0  0  0
   -8.4424  -12.1410   -8.8754 H   0  0  0  0  0  0  0  0  0  0  0  0
   -9.2087  -10.6105   -9.1431 H   0  0  0  0  0  0  0  0  0  0  0  0
   -6.6392   -9.0920   -9.4825 H   0  0  0  0  0  0  0  0  0  0  0  0
   -8.2133   -8.6750   -8.8404 H   0  0  0  0  0  0  0  0  0  0  0  0
   -8.4699   -7.9474   -6.7520 H   0  0  0  0  0  0  0  0  0  0  0  0
   -7.3243   -8.6696   -5.6629 H   0  0  0  0  0  0  0  0  0  0  0  0
   -9.0038   -5.4629   -6.2901 H   0  0  0  0  0  0  0  0  0  0  0  0
   -8.0110   -3.4038   -5.1274 H   0  0  0  0  0  0  0  0  0  0  0  0
   -5.5619   -3.8459   -4.2149 H   0  0  0  0  0  0  0  0  0  0  0  0
   -4.5906   -8.6600   -7.9727 H   0  0  0  0  0  0  0  0  0  0  0  0
   -4.8538   -8.3585   -6.2636 H   0  0  0  0  0  0  0  0  0  0  0  0
   -3.3983  -11.1038   -6.5645 H   0  0  0  0  0  0  0  0  0  0  0  0
   -4.3245  -10.7287   -5.0933 H   0  0  0  0  0  0  0  0  0  0  0  0
   -4.2627  -13.3092   -6.4049 H   0  0  0  0  0  0  0  0  0  0  0  0
   -5.3525  -12.8338   -5.1175 H   0  0  0  0  0  0  0  0  0  0  0  0
   -6.0060  -13.0929   -7.9976 H   0  0  0  0  0  0  0  0  0  0  0  0
   -7.1189  -12.9118   -6.6328 H   0  0  0  0  0  0  0  0  0  0  0  0
  1  2  2  0
  1 19  1  0
  1 20  1  0
  2  3  1  0
  2 21  1  0
  3  4  1  0
  3 22  1  0
  3 23  1  0
  4 18  1  0
  4  5  1  0
  5  6  1  0
  5 24  1  0
  5 25  1  0
  6  7  1  0
  6 13  1  0
  7  8  1  0
  7 26  1  0
  7 27  1  0
  8 12  1  0
  8  9  2  0
  9 10  1  0
  9 28  1  0
 10 11  2  0
 10 29  1  0
 11 12  1  0
 11 30  1  0
 13 14  1  0
 13 31  1  0
 13 32  1  0
 14 18  2  0
 14 15  1  0
 15 16  1  0
 15 33  1  0
 15 34  1  0
 16 17  1  0
 16 35  1  0
 16 36  1  0
 17 18  1  0
 17 37  1  0
 17 38  1  0
M  END
>  <i_m_ct_stereo_status>  (49) 
1

>  <s_m_source_file>  (49) 
/var/tmp/pbs.5076255.sched01/tmp0du1nuht/0914ajmtz.sdf

>  <i_m_source_file_index>  (49) 
23

>  <i_lp_mmshare_version>  (49) 
48012

>  <i_f3d_flags>  (49) 
0

>  <s_epik_input>  (49) 
W0NIMl0xW0NIMl1bQ0hdPUMoW0NAQEhdMTIpTihbQ0gyXVtDSF09W0NIMl0pW0NIMl1OKFtDSDJdMilbQ0gyXWMzW2NIXVtjSF1bY0hdczM=

>  <s_epik_cmdline>  (49) 
J2VwaWtfcHl0aG9uJywgJy1waHQnLCAnMi4wJywgJy1waCcsICc3LjAnLCAnLXRuJywgJzgnLCAnLW1hJywgJzIwMCcsICctaW1hZScsICc8aW5maWxlLm1hZT4nLCAnLW9tYWUnLCAnPG91dGZpbGUubWFlPic=

>  <r_lp_tautomer_probability>  (49) 
1

>  <r_epik_Ionization_Penalty>  (49) 
0.000616376

>  <r_epik_Ionization_Penalty_Charging>  (49) 
4.79214e-11

>  <r_epik_Ionization_Penalty_Neutral>  (49) 
0.000616376

>  <r_epik_State_Penalty>  (49) 
0.000762602

>  <r_epik_Charging_Adjusted_Penalty>  (49) 
0.000762602

>  <i_epik_Tot_Q>  (49) 
0

>  <i_epik_Tot_abs_Q>  (49) 
0

>  <s_epik_Chemistry_Notes>  (49) 
This compound has an imine and may undergo hydrolysis. This compound contains an acetal/aminal-like group ( X-CH(R)-Y where X, Y are N, S, or O) that may be acid/base labile, releasing an aldehyde.

>  <s_lp_Force_Field>  (49) 
OPLS3e

>  <r_lp_Energy>  (49) 
1.73386

>  <b_lp_Chiralities_Consistent>  (49) 
1

>  <s_lp_Variant>  (49) 
19:0-1

>  <s_i_glide_gridfile>  (49) 
pfpi4k_grid

>  <i_i_glide_lignum>  (49) 
23

>  <i_i_glide_rotatable_bonds>  (49) 
4

>  <r_i_docking_score>  (49) 
-5.34661

>  <r_i_glide_ligand_efficiency>  (49) 
-0.297034

>  <r_i_glide_ligand_efficiency_sa>  (49) 
-0.778449

>  <r_i_glide_ligand_efficiency_ln>  (49) 
-1.37432

>  <r_i_glide_gscore>  (49) 
-5.34661

>  <r_i_glide_lipo>  (49) 
-2.15213

>  <r_i_glide_hbond>  (49) 
0

>  <r_i_glide_metal>  (49) 
-0

>  <r_i_glide_rewards>  (49) 
-2.57756

>  <r_i_glide_evdw>  (49) 
-28.0813

>  <r_i_glide_ecoul>  (49) 
-1.71402

>  <r_i_glide_erotb>  (49) 
1.04425

>  <r_i_glide_esite>  (49) 
0

>  <r_i_glide_emodel>  (49) 
-36.5389

>  <r_i_glide_energy>  (49) 
-29.7954

>  <r_i_glide_einternal>  (49) 
4.98939

>  <r_i_glide_intrahb_reward>  (49) 
-0

>  <i_i_glide_confnum>  (49) 
5

>  <i_i_glide_posenum>  (49) 
36

>  <r_i_glide_eff_state_penalty>  (49) 
0

>  <ligand_id>  (49) 
19

>  <original_smiles>  (49) 
C=CCN1CN(Cc2cccs2)CC2CCC=C21

>  <smiles>  (49) 
[H]C([H])=C([H])C([H])([H])N1C2=C(C([H])([H])N(C([H])([H])c3sc([H])c([H])c3[H])C1([H])[H])C([H])([H])C([H])([H])C2([H])[H]

$$$$
19:0:1
     RDKit          3D

 38 40  0  0  1  0  0  0  0  0999 V2000
   -9.3771  -13.2109   -9.6540 C   0  0  0  0  0  0  0  0  0  0  0  0
   -8.8978  -11.9585   -9.6372 C   0  0  0  0  0  0  0  0  0  0  0  0
   -8.7809  -11.1177   -8.3772 C   0  0  0  0  0  0  0  0  0  0  0  0
   -7.4601  -10.5374   -8.1499 N   0  0  0  0  0  0  0  0  0  0  0  0
   -7.2403   -9.1443   -8.5824 C   0  0  0  0  0  0  0  0  0  0  0  0
   -6.5090   -8.3359   -7.5848 N   0  0  0  0  0  0  0  0  0  0  0  0
   -7.3440   -7.9657   -6.4343 C   0  0  0  0  0  0  0  0  0  0  0  0
   -6.9775   -6.6515   -5.8200 C   0  0  0  0  0  0  0  0  0  0  0  0
   -5.8045   -6.2510   -5.2213 C   0  0  0  0  0  0  0  0  0  0  0  0
   -5.8288   -4.9001   -4.7848 C   0  0  0  0  0  0  0  0  0  0  0  0
   -7.0270   -4.2783   -4.9968 C   0  0  0  0  0  0  0  0  0  0  0  0
   -8.1446   -5.3421   -5.8134 S   0  0  0  0  0  0  0  0  0  0  0  0
   -5.2546   -8.9882   -7.1740 C   0  0  0  0  0  0  0  0  0  0  0  0
   -5.4359  -10.4723   -6.9255 C   0  0  0  0  0  0  0  0  0  0  0  0
   -4.4864  -11.3239   -6.1370 C   0  0  0  0  0  0  0  0  0  0  0  0
   -5.1709  -12.7199   -6.1414 C   0  0  0  0  0  0  0  0  0  0  0  0
   -6.4044  -12.6139   -7.0888 C   0  0  0  0  0  0  0  0  0  0  0  0
   -6.4578  -11.1541   -7.4164 C   0  0  0  0  0  0  0  0  0  0  0  0
   -9.6770  -13.7044   -8.7404 H   0  0  0  0  0  0  0  0  0  0  0  0
   -9.4790  -13.7634  -10.5781 H   0  0  0  0  0  0  0  0  0  0  0  0
   -8.5968  -11.4982  -10.5682 H   0  0  0  0  0  0  0  0  0  0  0  0
   -9.5233  -10.3247   -8.4389 H   0  0  0  0  0  0  0  0  0  0  0  0
   -9.0526  -11.7229   -7.5120 H   0  0  0  0  0  0  0  0  0  0  0  0
   -6.6416   -9.1671   -9.4974 H   0  0  0  0  0  0  0  0  0  0  0  0
   -8.1808   -8.6623   -8.8523 H   0  0  0  0  0  0  0  0  0  0  0  0
   -8.3835   -7.9003   -6.7557 H   0  0  0  0  0  0  0  0  0  0  0  0
   -7.3179   -8.7615   -5.6885 H   0  0  0  0  0  0  0  0  0  0  0  0
   -4.9177   -6.8524   -5.0909 H   0  0  0  0  0  0  0  0  0  0  0  0
   -4.9725   -4.4311   -4.3307 H   0  0  0  0  0  0  0  0  0  0  0  0
   -7.3011   -3.2769   -4.7199 H   0  0  0  0  0  0  0  0  0  0  0  0
   -4.5872   -8.8627   -8.0153 H   0  0  0  0  0  0  0  0  0  0  0  0
   -4.7933   -8.5465   -6.2947 H   0  0  0  0  0  0  0  0  0  0  0  0
   -3.5071  -11.3420   -6.6163 H   0  0  0  0  0  0  0  0  0  0  0  0
   -4.3804  -10.9246   -5.1283 H   0  0  0  0  0  0  0  0  0  0  0  0
   -4.4750  -13.4980   -6.4457 H   0  0  0  0  0  0  0  0  0  0  0  0
   -5.5028  -12.9756   -5.1350 H   0  0  0  0  0  0  0  0  0  0  0  0
   -6.2324  -13.1691   -8.0086 H   0  0  0  0  0  0  0  0  0  0  0  0
   -7.3220  -12.9657   -6.6208 H   0  0  0  0  0  0  0  0  0  0  0  0
  1  2  2  0
  1 19  1  0
  1 20  1  0
  2  3  1  0
  2 21  1  0
  3  4  1  0
  3 22  1  0
  3 23  1  0
  4 18  1  0
  4  5  1  0
  5  6  1  0
  5 24  1  0
  5 25  1  0
  6  7  1  0
  6 13  1  0
  7  8  1  0
  7 26  1  0
  7 27  1  0
  8 12  1  0
  8  9  2  0
  9 10  1  0
  9 28  1  0
 10 11  2  0
 10 29  1  0
 11 12  1  0
 11 30  1  0
 13 14  1  0
 13 31  1  0
 13 32  1  0
 14 18  2  0
 14 15  1  0
 15 16  1  0
 15 33  1  0
 15 34  1  0
 16 17  1  0
 16 35  1  0
 16 36  1  0
 17 18  1  0
 17 37  1  0
 17 38  1  0
M  END
>  <i_m_ct_stereo_status>  (50) 
1

>  <s_m_source_file>  (50) 
/var/tmp/pbs.5076255.sched01/tmp0du1nuht/0914ajmtz.sdf

>  <i_m_source_file_index>  (50) 
23

>  <i_lp_mmshare_version>  (50) 
48012

>  <i_f3d_flags>  (50) 
0

>  <s_epik_input>  (50) 
W0NIMl0xW0NIMl1bQ0hdPUMoW0NAQEhdMTIpTihbQ0gyXVtDSF09W0NIMl0pW0NIMl1OKFtDSDJdMilbQ0gyXWMzW2NIXVtjSF1bY0hdczM=

>  <s_epik_cmdline>  (50) 
J2VwaWtfcHl0aG9uJywgJy1waHQnLCAnMi4wJywgJy1waCcsICc3LjAnLCAnLXRuJywgJzgnLCAnLW1hJywgJzIwMCcsICctaW1hZScsICc8aW5maWxlLm1hZT4nLCAnLW9tYWUnLCAnPG91dGZpbGUubWFlPic=

>  <r_lp_tautomer_probability>  (50) 
1

>  <r_epik_Ionization_Penalty>  (50) 
0.000616376

>  <r_epik_Ionization_Penalty_Charging>  (50) 
4.79214e-11

>  <r_epik_Ionization_Penalty_Neutral>  (50) 
0.000616376

>  <r_epik_State_Penalty>  (50) 
0.000762602

>  <r_epik_Charging_Adjusted_Penalty>  (50) 
0.000762602

>  <i_epik_Tot_Q>  (50) 
0

>  <i_epik_Tot_abs_Q>  (50) 
0

>  <s_epik_Chemistry_Notes>  (50) 
This compound has an imine and may undergo hydrolysis. This compound contains an acetal/aminal-like group ( X-CH(R)-Y where X, Y are N, S, or O) that may be acid/base labile, releasing an aldehyde.

>  <s_lp_Force_Field>  (50) 
OPLS3e

>  <r_lp_Energy>  (50) 
1.73386

>  <b_lp_Chiralities_Consistent>  (50) 
1

>  <s_lp_Variant>  (50) 
19:0-1

>  <s_i_glide_gridfile>  (50) 
pfpi4k_grid

>  <i_i_glide_lignum>  (50) 
23

>  <i_i_glide_rotatable_bonds>  (50) 
4

>  <r_i_docking_score>  (50) 
-3.59924

>  <r_i_glide_ligand_efficiency>  (50) 
-0.199958

>  <r_i_glide_ligand_efficiency_sa>  (50) 
-0.524038

>  <r_i_glide_ligand_efficiency_ln>  (50) 
-0.925167

>  <r_i_glide_gscore>  (50) 
-3.59924

>  <r_i_glide_lipo>  (50) 
-2.188

>  <r_i_glide_hbond>  (50) 
0

>  <r_i_glide_metal>  (50) 
-0

>  <r_i_glide_rewards>  (50) 
-1.1264

>  <r_i_glide_evdw>  (50) 
-25.4507

>  <r_i_glide_ecoul>  (50) 
-0.377081

>  <r_i_glide_erotb>  (50) 
1.04425

>  <r_i_glide_esite>  (50) 
0

>  <r_i_glide_emodel>  (50) 
-29.9612

>  <r_i_glide_energy>  (50) 
-25.8278

>  <r_i_glide_einternal>  (50) 
3.94356

>  <r_i_glide_intrahb_reward>  (50) 
-0

>  <i_i_glide_confnum>  (50) 
5

>  <i_i_glide_posenum>  (50) 
11

>  <r_i_glide_eff_state_penalty>  (50) 
0

>  <ligand_id>  (50) 
19

>  <original_smiles>  (50) 
C=CCN1CN(Cc2cccs2)CC2CCC=C21

>  <smiles>  (50) 
[H]C([H])=C([H])C([H])([H])N1C2=C(C([H])([H])N(C([H])([H])c3sc([H])c([H])c3[H])C1([H])[H])C([H])([H])C([H])([H])C2([H])[H]

$$$$
19:0:2
     RDKit          3D

 38 40  0  0  1  0  0  0  0  0999 V2000
    3.5714   -0.2070    7.0138 C   0  0  0  0  0  0  0  0  0  0  0  0
    2.8772   -0.0616    5.8770 C   0  0  0  0  0  0  0  0  0  0  0  0
    1.9771   -1.1188    5.2808 C   0  0  0  0  0  0  0  0  0  0  0  0
    0.6440   -0.5986    5.0334 N   0  0  0  0  0  0  0  0  0  0  0  0
   -0.3886   -0.8741    6.0377 C   0  0  0  0  0  0  0  0  0  0  0  0
   -1.2921    0.2719    6.2814 N   0  0  0  0  0  0  0  0  0  0  0  0
   -0.6343    1.3308    7.0547 C   0  0  0  0  0  0  0  0  0  0  0  0
   -1.5542    2.0416    8.0055 C   0  0  0  0  0  0  0  0  0  0  0  0
   -2.7560    2.6629    7.7550 C   0  0  0  0  0  0  0  0  0  0  0  0
   -3.3680    3.2092    8.9199 C   0  0  0  0  0  0  0  0  0  0  0  0
   -2.6326    2.9983   10.0564 C   0  0  0  0  0  0  0  0  0  0  0  0
   -1.1515    2.1466    9.7067 S   0  0  0  0  0  0  0  0  0  0  0  0
   -1.8553    0.7932    5.0190 C   0  0  0  0  0  0  0  0  0  0  0  0
   -0.8205    0.8774    3.9146 C   0  0  0  0  0  0  0  0  0  0  0  0
   -0.9696    1.6817    2.6535 C   0  0  0  0  0  0  0  0  0  0  0  0
    0.3803    1.4460    1.9202 C   0  0  0  0  0  0  0  0  0  0  0  0
    1.1529    0.3642    2.7198 C   0  0  0  0  0  0  0  0  0  0  0  0
    0.3118    0.2015    3.9583 C   0  0  0  0  0  0  0  0  0  0  0  0
    3.5242   -1.1263    7.5872 H   0  0  0  0  0  0  0  0  0  0  0  0
    4.1944    0.5957    7.3855 H   0  0  0  0  0  0  0  0  0  0  0  0
    2.9417    0.8665    5.3267 H   0  0  0  0  0  0  0  0  0  0  0  0
    2.4143   -1.4715    4.3466 H   0  0  0  0  0  0  0  0  0  0  0  0
    1.9300   -1.9856    5.9397 H   0  0  0  0  0  0  0  0  0  0  0  0
   -0.9878   -1.6987    5.6560 H   0  0  0  0  0  0  0  0  0  0  0  0
    0.0591   -1.2189    6.9710 H   0  0  0  0  0  0  0  0  0  0  0  0
    0.1928    0.9147    7.6345 H   0  0  0  0  0  0  0  0  0  0  0  0
   -0.1696    2.0504    6.3800 H   0  0  0  0  0  0  0  0  0  0  0  0
   -3.2290    2.7395    6.7896 H   0  0  0  0  0  0  0  0  0  0  0  0
   -4.3207    3.7145    8.8871 H   0  0  0  0  0  0  0  0  0  0  0  0
   -2.8724    3.2768   11.0749 H   0  0  0  0  0  0  0  0  0  0  0  0
   -2.6142    0.0957    4.6754 H   0  0  0  0  0  0  0  0  0  0  0  0
   -2.3213    1.7669    5.1403 H   0  0  0  0  0  0  0  0  0  0  0  0
   -1.8157    1.3292    2.0630 H   0  0  0  0  0  0  0  0  0  0  0  0
   -1.1153    2.7371    2.8865 H   0  0  0  0  0  0  0  0  0  0  0  0
    0.2201    1.1549    0.8805 H   0  0  0  0  0  0  0  0  0  0  0  0
    0.9645    2.3680    1.9009 H   0  0  0  0  0  0  0  0  0  0  0  0
    1.1718   -0.5702    2.1605 H   0  0  0  0  0  0  0  0  0  0  0  0
    2.1731    0.6653    2.9485 H   0  0  0  0  0  0  0  0  0  0  0  0
  1  2  2  0
  1 19  1  0
  1 20  1  0
  2  3  1  0
  2 21  1  0
  3  4  1  0
  3 22  1  0
  3 23  1  0
  4 18  1  0
  4  5  1  0
  5  6  1  0
  5 24  1  0
  5 25  1  0
  6  7  1  0
  6 13  1  0
  7  8  1  0
  7 26  1  0
  7 27  1  0
  8 12  1  0
  8  9  2  0
  9 10  1  0
  9 28  1  0
 10 11  2  0
 10 29  1  0
 11 12  1  0
 11 30  1  0
 13 14  1  0
 13 31  1  0
 13 32  1  0
 14 18  2  0
 14 15  1  0
 15 16  1  0
 15 33  1  0
 15 34  1  0
 16 17  1  0
 16 35  1  0
 16 36  1  0
 17 18  1  0
 17 37  1  0
 17 38  1  0
M  END
>  <i_m_ct_stereo_status>  (51) 
1

>  <s_m_source_file>  (51) 
/var/tmp/pbs.5076255.sched01/tmp0du1nuht/0914ajmtz.sdf

>  <i_m_source_file_index>  (51) 
23

>  <i_lp_mmshare_version>  (51) 
48012

>  <i_f3d_flags>  (51) 
0

>  <s_epik_input>  (51) 
W0NIMl0xW0NIMl1bQ0hdPUMoW0NAQEhdMTIpTihbQ0gyXVtDSF09W0NIMl0pW0NIMl1OKFtDSDJdMilbQ0gyXWMzW2NIXVtjSF1bY0hdczM=

>  <s_epik_cmdline>  (51) 
J2VwaWtfcHl0aG9uJywgJy1waHQnLCAnMi4wJywgJy1waCcsICc3LjAnLCAnLXRuJywgJzgnLCAnLW1hJywgJzIwMCcsICctaW1hZScsICc8aW5maWxlLm1hZT4nLCAnLW9tYWUnLCAnPG91dGZpbGUubWFlPic=

>  <r_lp_tautomer_probability>  (51) 
1

>  <r_epik_Ionization_Penalty>  (51) 
0.000616376

>  <r_epik_Ionization_Penalty_Charging>  (51) 
4.79214e-11

>  <r_epik_Ionization_Penalty_Neutral>  (51) 
0.000616376

>  <r_epik_State_Penalty>  (51) 
0.000762602

>  <r_epik_Charging_Adjusted_Penalty>  (51) 
0.000762602

>  <i_epik_Tot_Q>  (51) 
0

>  <i_epik_Tot_abs_Q>  (51) 
0

>  <s_epik_Chemistry_Notes>  (51) 
This compound has an imine and may undergo hydrolysis. This compound contains an acetal/aminal-like group ( X-CH(R)-Y where X, Y are N, S, or O) that may be acid/base labile, releasing an aldehyde.

>  <s_lp_Force_Field>  (51) 
OPLS3e

>  <r_lp_Energy>  (51) 
1.73386

>  <b_lp_Chiralities_Consistent>  (51) 
1

>  <s_lp_Variant>  (51) 
19:0-1

>  <s_i_glide_gridfile>  (51) 
pfpi4k_grid

>  <i_i_glide_lignum>  (51) 
23

>  <i_i_glide_rotatable_bonds>  (51) 
4

>  <r_i_docking_score>  (51) 
-2.26986

>  <r_i_glide_ligand_efficiency>  (51) 
-0.126103

>  <r_i_glide_ligand_efficiency_sa>  (51) 
-0.330485

>  <r_i_glide_ligand_efficiency_ln>  (51) 
-0.583456

>  <r_i_glide_gscore>  (51) 
-2.26986

>  <r_i_glide_lipo>  (51) 
-0.1512

>  <r_i_glide_hbond>  (51) 
-0.0940205

>  <r_i_glide_metal>  (51) 
-0

>  <r_i_glide_rewards>  (51) 
-1.63365

>  <r_i_glide_evdw>  (51) 
-17.8164

>  <r_i_glide_ecoul>  (51) 
-3.32183

>  <r_i_glide_erotb>  (51) 
1.04425

>  <r_i_glide_esite>  (51) 
-0.0461528

>  <r_i_glide_emodel>  (51) 
-23.2968

>  <r_i_glide_energy>  (51) 
-21.1382

>  <r_i_glide_einternal>  (51) 
3.56529

>  <r_i_glide_intrahb_reward>  (51) 
-0

>  <i_i_glide_confnum>  (51) 
5

>  <i_i_glide_posenum>  (51) 
12

>  <r_i_glide_eff_state_penalty>  (51) 
0

>  <ligand_id>  (51) 
19

>  <original_smiles>  (51) 
C=CCN1CN(Cc2cccs2)CC2CCC=C21

>  <smiles>  (51) 
[H]C([H])=C([H])C([H])([H])N1C2=C(C([H])([H])N(C([H])([H])c3sc([H])c([H])c3[H])C1([H])[H])C([H])([H])C([H])([H])C2([H])[H]

$$$$
20:0:0
     RDKit          3D

 50 54  0  0  1  0  0  0  0  0999 V2000
    1.4076  -10.5593    4.8060 C   0  0  0  0  0  0  0  0  0  0  0  0
    1.2116   -9.6554    3.5708 C   0  0  2  0  0  0  0  0  0  0  0  0
    2.5600   -9.3708    2.8766 C   0  0  0  0  0  0  0  0  0  0  0  0
    2.4173   -8.4181    1.6822 C   0  0  0  0  0  0  0  0  0  0  0  0
    1.7555   -7.0853    2.0926 C   0  0  0  0  0  0  0  0  0  0  0  0
    0.3843   -7.3810    2.7469 C   0  0  0  0  0  0  0  0  0  0  0  0
    0.5118   -8.3341    3.9499 C   0  0  0  0  0  0  0  0  0  0  0  0
    1.5213   -6.2496    0.9621 O   0  0  0  0  0  0  0  0  0  0  0  0
    2.8547   -5.8766    0.3405 O   0  0  0  0  0  0  0  0  0  0  0  0
    3.6710   -5.2076    1.3110 C   0  0  2  0  0  0  0  0  0  0  0  0
    3.8850   -6.0665    2.4319 O   0  0  0  0  0  0  0  0  0  0  0  0
    2.5512   -6.3900    3.0484 O   0  0  0  0  0  0  0  0  0  0  0  0
    3.0396   -3.8508    1.7267 C   0  0  1  0  0  0  0  0  0  0  0  0
    3.9534   -3.1423    2.7486 C   0  0  0  0  0  0  0  0  0  0  0  0
    5.3189   -2.8400    2.1004 C   0  0  1  0  0  0  0  0  0  0  0  0
    5.9816   -4.1665    1.6793 C   0  0  0  0  0  0  0  0  0  0  0  0
    5.0604   -4.8992    0.6692 C   0  0  2  0  0  0  0  0  0  0  0  0
    4.9036   -3.9854   -0.5689 C   0  0  0  0  0  0  0  0  0  0  0  0
    4.2424   -2.6439   -0.1704 C   0  0  2  0  0  0  0  0  0  0  0  0
    4.0643   -1.7525   -1.4143 C   0  0  0  0  0  0  0  0  0  0  0  0
    5.1451   -1.9319    0.8657 C   0  0  0  0  0  0  0  0  0  0  0  0
    2.8745   -2.9450    0.4891 C   0  0  0  0  0  0  0  0  0  0  0  0
    2.0406  -10.0776    5.5561 H   0  0  0  0  0  0  0  0  0  0  0  0
    1.8856  -11.5069    4.5439 H   0  0  0  0  0  0  0  0  0  0  0  0
    0.4597  -10.8031    5.2926 H   0  0  0  0  0  0  0  0  0  0  0  0
    0.5670  -10.1941    2.8679 H   0  0  0  0  0  0  0  0  0  0  0  0
    3.2498   -8.9383    3.6013 H   0  0  0  0  0  0  0  0  0  0  0  0
    3.0041  -10.3095    2.5422 H   0  0  0  0  0  0  0  0  0  0  0  0
    3.3959   -8.2621    1.2312 H   0  0  0  0  0  0  0  0  0  0  0  0
    1.8158   -8.9005    0.9110 H   0  0  0  0  0  0  0  0  0  0  0  0
   -0.0964   -6.4555    3.0699 H   0  0  0  0  0  0  0  0  0  0  0  0
   -0.2807   -7.8331    2.0042 H   0  0  0  0  0  0  0  0  0  0  0  0
   -0.4768   -8.5515    4.3628 H   0  0  0  0  0  0  0  0  0  0  0  0
    1.0780   -7.8438    4.7432 H   0  0  0  0  0  0  0  0  0  0  0  0
    2.0574   -4.0093    2.1729 H   0  0  0  0  0  0  0  0  0  0  0  0
    3.4950   -2.2157    3.0910 H   0  0  0  0  0  0  0  0  0  0  0  0
    4.1018   -3.7638    3.6327 H   0  0  0  0  0  0  0  0  0  0  0  0
    5.9547   -2.3263    2.8218 H   0  0  0  0  0  0  0  0  0  0  0  0
    6.9591   -3.9633    1.2340 H   0  0  0  0  0  0  0  0  0  0  0  0
    6.1738   -4.7840    2.5559 H   0  0  0  0  0  0  0  0  0  0  0  0
    5.5464   -5.8261    0.3620 H   0  0  0  0  0  0  0  0  0  0  0  0
    5.8799   -3.8036   -1.0270 H   0  0  0  0  0  0  0  0  0  0  0  0
    4.3071   -4.4849   -1.3327 H   0  0  0  0  0  0  0  0  0  0  0  0
    3.6057   -0.7948   -1.1638 H   0  0  0  0  0  0  0  0  0  0  0  0
    3.4191   -2.2304   -2.1525 H   0  0  0  0  0  0  0  0  0  0  0  0
    5.0137   -1.5369   -1.9073 H   0  0  0  0  0  0  0  0  0  0  0  0
    4.7095   -0.9761    1.1618 H   0  0  0  0  0  0  0  0  0  0  0  0
    6.1208   -1.6959    0.4365 H   0  0  0  0  0  0  0  0  0  0  0  0
    2.2134   -3.4150   -0.2400 H   0  0  0  0  0  0  0  0  0  0  0  0
    2.3923   -2.0128    0.7830 H   0  0  0  0  0  0  0  0  0  0  0  0
  1  2  1  0
  1 23  1  0
  1 24  1  0
  1 25  1  0
  2  7  1  0
  2  3  1  0
  2 26  1  6
  3  4  1  0
  3 27  1  0
  3 28  1  0
  4  5  1  0
  4 29  1  0
  4 30  1  0
  5 12  1  0
  5  6  1  0
  5  8  1  0
  6  7  1  0
  6 31  1  0
  6 32  1  0
  7 33  1  0
  7 34  1  0
  8  9  1  0
 10  9  1  6
 10 17  1  0
 10 11  1  0
 10 13  1  0
 11 12  1  0
 13 22  1  0
 13 14  1  0
 13 35  1  1
 14 15  1  0
 14 36  1  0
 14 37  1  0
 15 21  1  0
 15 16  1  0
 15 38  1  1
 16 17  1  0
 16 39  1  0
 16 40  1  0
 17 18  1  0
 17 41  1  6
 18 19  1  0
 18 42  1  0
 18 43  1  0
 19 20  1  6
 19 21  1  0
 19 22  1  0
 20 44  1  0
 20 45  1  0
 20 46  1  0
 21 47  1  0
 21 48  1  0
 22 49  1  0
 22 50  1  0
M  END
>  <i_m_ct_stereo_status>  (52) 
1

>  <s_m_source_file>  (52) 
/var/tmp/pbs.5076255.sched01/tmp0du1nuht/0914ajmtz.sdf

>  <i_m_source_file_index>  (52) 
24

>  <i_lp_mmshare_version>  (52) 
48012

>  <i_f3d_flags>  (52) 
0

>  <s_epik_input>  (52) 
W0NIMl0xW0NIMl1bQ0hdKFtDSDNdKVtDSDJdW0NIMl1DMTJPT0MzKE9PMilbQ0BIXTRbQ0gyXVtDQEhdNVtDSDJdW0NAQEhdM1tDSDJdW0NAXShbQ0gzXSkoW0NIMl01KVtDSDJdNA==

>  <s_epik_cmdline>  (52) 
J2VwaWtfcHl0aG9uJywgJy1waHQnLCAnMi4wJywgJy1waCcsICc3LjAnLCAnLXRuJywgJzgnLCAnLW1hJywgJzIwMCcsICctaW1hZScsICc8aW5maWxlLm1hZT4nLCAnLW9tYWUnLCAnPG91dGZpbGUubWFlPic=

>  <r_lp_tautomer_probability>  (52) 
1

>  <r_epik_Ionization_Penalty>  (52) 
0

>  <r_epik_Ionization_Penalty_Charging>  (52) 
0

>  <r_epik_Ionization_Penalty_Neutral>  (52) 
0

>  <r_epik_State_Penalty>  (52) 
-0

>  <r_epik_Charging_Adjusted_Penalty>  (52) 
0

>  <i_epik_Tot_Q>  (52) 
0

>  <i_epik_Tot_abs_Q>  (52) 
0

>  <s_lp_Force_Field>  (52) 
OPLS3e

>  <r_lp_Energy>  (52) 
11.3566

>  <b_lp_Chiralities_Consistent>  (52) 
1

>  <s_lp_Variant>  (52) 
20:0-1

>  <s_i_glide_gridfile>  (52) 
pfpi4k_grid

>  <i_i_glide_lignum>  (52) 
24

>  <i_i_glide_rotatable_bonds>  (52) 
0

>  <r_i_docking_score>  (52) 
-3.05768

>  <r_i_glide_ligand_efficiency>  (52) 
-0.138985

>  <r_i_glide_ligand_efficiency_sa>  (52) 
-0.389443

>  <r_i_glide_ligand_efficiency_ln>  (52) 
-0.747409

>  <r_i_glide_gscore>  (52) 
-3.05768

>  <r_i_glide_lipo>  (52) 
-0.267834

>  <r_i_glide_hbond>  (52) 
-0.0640824

>  <r_i_glide_metal>  (52) 
-0

>  <r_i_glide_rewards>  (52) 
-1.32345

>  <r_i_glide_evdw>  (52) 
-24.7297

>  <r_i_glide_ecoul>  (52) 
-0.944421

>  <r_i_glide_erotb>  (52) 
0

>  <r_i_glide_esite>  (52) 
-0.0241667

>  <r_i_glide_emodel>  (52) 
-30.7489

>  <r_i_glide_energy>  (52) 
-25.6741

>  <r_i_glide_einternal>  (52) 
0

>  <r_i_glide_intrahb_reward>  (52) 
-0

>  <i_i_glide_confnum>  (52) 
2

>  <i_i_glide_posenum>  (52) 
15

>  <r_i_glide_eff_state_penalty>  (52) 
0

>  <ligand_id>  (52) 
20

>  <original_smiles>  (52) 
CC1CCC2(CC1)OOC1(OO2)C2CC3CC1CC(C)(C3)C2

>  <smiles>  (52) 
[H]C([H])([H])C1([H])C([H])([H])C([H])([H])C2(OOC3(OO2)C2([H])C([H])([H])C4([H])C([H])([H])C3([H])C([H])([H])C(C([H])([H])[H])(C4([H])[H])C2([H])[H])C([H])([H])C1([H])[H]

$$$$
20:0:1
     RDKit          3D

 50 54  0  0  1  0  0  0  0  0999 V2000
    0.0827   -9.8671    2.8778 C   0  0  0  0  0  0  0  0  0  0  0  0
   -0.0918   -8.3830    3.2802 C   0  0  2  0  0  0  0  0  0  0  0  0
   -0.1229   -7.4460    2.0538 C   0  0  0  0  0  0  0  0  0  0  0  0
    1.2519   -7.3379    1.3700 C   0  0  0  0  0  0  0  0  0  0  0  0
    2.3689   -6.8930    2.3337 C   0  0  0  0  0  0  0  0  0  0  0  0
    2.3745   -7.7809    3.5959 C   0  0  0  0  0  0  0  0  0  0  0  0
    0.9864   -7.9060    4.2735 C   0  0  0  0  0  0  0  0  0  0  0  0
    2.1947   -5.5506    2.7296 O   0  0  0  0  0  0  0  0  0  0  0  0
    2.2805   -4.6684    1.5099 O   0  0  0  0  0  0  0  0  0  0  0  0
    3.5539   -4.8184    0.9067 C   0  0  2  0  0  0  0  0  0  0  0  0
    3.7073   -6.1657    0.5044 O   0  0  0  0  0  0  0  0  0  0  0  0
    3.6288   -7.0667    1.7166 O   0  0  0  0  0  0  0  0  0  0  0  0
    4.6975   -4.3601    1.8484 C   0  0  1  0  0  0  0  0  0  0  0  0
    6.0649   -4.5033    1.1317 C   0  0  0  0  0  0  0  0  0  0  0  0
    6.0961   -3.6037   -0.1203 C   0  0  1  0  0  0  0  0  0  0  0  0
    4.9737   -4.0403   -1.0790 C   0  0  0  0  0  0  0  0  0  0  0  0
    3.6048   -3.9193   -0.3603 C   0  0  2  0  0  0  0  0  0  0  0  0
    3.4118   -2.4287    0.0162 C   0  0  0  0  0  0  0  0  0  0  0  0
    4.5264   -1.9600    0.9791 C   0  0  2  0  0  0  0  0  0  0  0  0
    4.3054   -0.4858    1.3660 C   0  0  0  0  0  0  0  0  0  0  0  0
    5.8933   -2.1256    0.2726 C   0  0  0  0  0  0  0  0  0  0  0  0
    4.5039   -2.8694    2.2348 C   0  0  0  0  0  0  0  0  0  0  0  0
    1.0281  -10.0542    2.3761 H   0  0  0  0  0  0  0  0  0  0  0  0
   -0.7054  -10.1920    2.2015 H   0  0  0  0  0  0  0  0  0  0  0  0
    0.0503  -10.5209    3.7528 H   0  0  0  0  0  0  0  0  0  0  0  0
   -1.0607   -8.3087    3.7817 H   0  0  0  0  0  0  0  0  0  0  0  0
   -0.8741   -7.7975    1.3440 H   0  0  0  0  0  0  0  0  0  0  0  0
   -0.4381   -6.4571    2.3799 H   0  0  0  0  0  0  0  0  0  0  0  0
    1.5148   -8.3148    0.9631 H   0  0  0  0  0  0  0  0  0  0  0  0
    1.1727   -6.6957    0.5007 H   0  0  0  0  0  0  0  0  0  0  0  0
    2.6992   -8.7930    3.3218 H   0  0  0  0  0  0  0  0  0  0  0  0
    3.1061   -7.4381    4.3337 H   0  0  0  0  0  0  0  0  0  0  0  0
    0.6926   -6.9425    4.6918 H   0  0  0  0  0  0  0  0  0  0  0  0
    1.0289   -8.5995    5.1186 H   0  0  0  0  0  0  0  0  0  0  0  0
    4.7096   -4.9482    2.7665 H   0  0  0  0  0  0  0  0  0  0  0  0
    6.8809   -4.2340    1.8017 H   0  0  0  0  0  0  0  0  0  0  0  0
    6.2313   -5.5397    0.8386 H   0  0  0  0  0  0  0  0  0  0  0  0
    7.0601   -3.7069   -0.6177 H   0  0  0  0  0  0  0  0  0  0  0  0
    4.9949   -3.4239   -1.9807 H   0  0  0  0  0  0  0  0  0  0  0  0
    5.1361   -5.0633   -1.4149 H   0  0  0  0  0  0  0  0  0  0  0  0
    2.8205   -4.2073   -1.0609 H   0  0  0  0  0  0  0  0  0  0  0  0
    3.4055   -1.8101   -0.8864 H   0  0  0  0  0  0  0  0  0  0  0  0
    2.4335   -2.2791    0.4756 H   0  0  0  0  0  0  0  0  0  0  0  0
    5.0817   -0.1229    2.0397 H   0  0  0  0  0  0  0  0  0  0  0  0
    3.3473   -0.3511    1.8699 H   0  0  0  0  0  0  0  0  0  0  0  0
    4.3002    0.1684    0.4929 H   0  0  0  0  0  0  0  0  0  0  0  0
    6.7049   -1.7926    0.9221 H   0  0  0  0  0  0  0  0  0  0  0  0
    5.9402   -1.4954   -0.6173 H   0  0  0  0  0  0  0  0  0  0  0  0
    3.5577   -2.7441    2.7620 H   0  0  0  0  0  0  0  0  0  0  0  0
    5.2869   -2.5623    2.9308 H   0  0  0  0  0  0  0  0  0  0  0  0
  1  2  1  0
  1 23  1  0
  1 24  1  0
  1 25  1  0
  2  7  1  0
  2  3  1  0
  2 26  1  1
  3  4  1  0
  3 27  1  0
  3 28  1  0
  4  5  1  0
  4 29  1  0
  4 30  1  0
  5 12  1  0
  5  6  1  0
  5  8  1  0
  6  7  1  0
  6 31  1  0
  6 32  1  0
  7 33  1  0
  7 34  1  0
  8  9  1  0
 10  9  1  1
 10 17  1  0
 10 11  1  0
 10 13  1  0
 11 12  1  0
 13 22  1  0
 13 14  1  0
 13 35  1  1
 14 15  1  0
 14 36  1  0
 14 37  1  0
 15 21  1  0
 15 16  1  0
 15 38  1  6
 16 17  1  0
 16 39  1  0
 16 40  1  0
 17 18  1  0
 17 41  1  6
 18 19  1  0
 18 42  1  0
 18 43  1  0
 19 20  1  1
 19 21  1  0
 19 22  1  0
 20 44  1  0
 20 45  1  0
 20 46  1  0
 21 47  1  0
 21 48  1  0
 22 49  1  0
 22 50  1  0
M  END
>  <i_m_ct_stereo_status>  (53) 
1

>  <s_m_source_file>  (53) 
/var/tmp/pbs.5076255.sched01/tmp0du1nuht/0914ajmtz.sdf

>  <i_m_source_file_index>  (53) 
24

>  <i_lp_mmshare_version>  (53) 
48012

>  <i_f3d_flags>  (53) 
0

>  <s_epik_input>  (53) 
W0NIMl0xW0NIMl1bQ0hdKFtDSDNdKVtDSDJdW0NIMl1DMTJPT0MzKE9PMilbQ0BIXTRbQ0gyXVtDQEhdNVtDSDJdW0NAQEhdM1tDSDJdW0NAXShbQ0gzXSkoW0NIMl01KVtDSDJdNA==

>  <s_epik_cmdline>  (53) 
J2VwaWtfcHl0aG9uJywgJy1waHQnLCAnMi4wJywgJy1waCcsICc3LjAnLCAnLXRuJywgJzgnLCAnLW1hJywgJzIwMCcsICctaW1hZScsICc8aW5maWxlLm1hZT4nLCAnLW9tYWUnLCAnPG91dGZpbGUubWFlPic=

>  <r_lp_tautomer_probability>  (53) 
1

>  <r_epik_Ionization_Penalty>  (53) 
0

>  <r_epik_Ionization_Penalty_Charging>  (53) 
0

>  <r_epik_Ionization_Penalty_Neutral>  (53) 
0

>  <r_epik_State_Penalty>  (53) 
-0

>  <r_epik_Charging_Adjusted_Penalty>  (53) 
0

>  <i_epik_Tot_Q>  (53) 
0

>  <i_epik_Tot_abs_Q>  (53) 
0

>  <s_lp_Force_Field>  (53) 
OPLS3e

>  <r_lp_Energy>  (53) 
11.3566

>  <b_lp_Chiralities_Consistent>  (53) 
1

>  <s_lp_Variant>  (53) 
20:0-1

>  <s_i_glide_gridfile>  (53) 
pfpi4k_grid

>  <i_i_glide_lignum>  (53) 
24

>  <i_i_glide_rotatable_bonds>  (53) 
0

>  <r_i_docking_score>  (53) 
-2.9737

>  <r_i_glide_ligand_efficiency>  (53) 
-0.135168

>  <r_i_glide_ligand_efficiency_sa>  (53) 
-0.378746

>  <r_i_glide_ligand_efficiency_ln>  (53) 
-0.726881

>  <r_i_glide_gscore>  (53) 
-2.9737

>  <r_i_glide_lipo>  (53) 
-0.359029

>  <r_i_glide_hbond>  (53) 
0

>  <r_i_glide_metal>  (53) 
-0

>  <r_i_glide_rewards>  (53) 
-1.30628

>  <r_i_glide_evdw>  (53) 
-26.3271

>  <r_i_glide_ecoul>  (53) 
0.11905

>  <r_i_glide_erotb>  (53) 
0

>  <r_i_glide_esite>  (53) 
-0.00989559

>  <r_i_glide_emodel>  (53) 
-31.1212

>  <r_i_glide_energy>  (53) 
-26.208

>  <r_i_glide_einternal>  (53) 
0

>  <r_i_glide_intrahb_reward>  (53) 
-0

>  <i_i_glide_confnum>  (53) 
4

>  <i_i_glide_posenum>  (53) 
13

>  <r_i_glide_eff_state_penalty>  (53) 
0

>  <ligand_id>  (53) 
20

>  <original_smiles>  (53) 
CC1CCC2(CC1)OOC1(OO2)C2CC3CC1CC(C)(C3)C2

>  <smiles>  (53) 
[H]C([H])([H])C1([H])C([H])([H])C([H])([H])C2(OOC3(OO2)C2([H])C([H])([H])C4([H])C([H])([H])C3([H])C([H])([H])C(C([H])([H])[H])(C4([H])[H])C2([H])[H])C([H])([H])C1([H])[H]

$$$$
20:0:2
     RDKit          3D

 50 54  0  0  1  0  0  0  0  0999 V2000
    1.0349   -8.7190    4.5974 C   0  0  0  0  0  0  0  0  0  0  0  0
    0.6130   -8.0662    3.2583 C   0  0  2  0  0  0  0  0  0  0  0  0
    1.4796   -8.5379    2.0785 C   0  0  0  0  0  0  0  0  0  0  0  0
    2.9124   -7.9722    2.1465 C   0  0  0  0  0  0  0  0  0  0  0  0
    2.9493   -6.4304    2.2499 C   0  0  0  0  0  0  0  0  0  0  0  0
    2.0426   -5.9509    3.4088 C   0  0  0  0  0  0  0  0  0  0  0  0
    0.6171   -6.5261    3.3273 C   0  0  0  0  0  0  0  0  0  0  0  0
    2.5363   -5.8944    0.9971 O   0  0  0  0  0  0  0  0  0  0  0  0
    2.6683   -4.3885    1.0476 O   0  0  0  0  0  0  0  0  0  0  0  0
    4.0314   -4.0383    1.3059 C   0  0  2  0  0  0  0  0  0  0  0  0
    4.4234   -4.5775    2.5688 O   0  0  0  0  0  0  0  0  0  0  0  0
    4.3048   -6.0801    2.5099 O   0  0  0  0  0  0  0  0  0  0  0  0
    4.1115   -2.4866    1.3954 C   0  0  1  0  0  0  0  0  0  0  0  0
    5.5615   -2.0340    1.6986 C   0  0  0  0  0  0  0  0  0  0  0  0
    6.4935   -2.5006    0.5627 C   0  0  1  0  0  0  0  0  0  0  0  0
    6.4393   -4.0348    0.4657 C   0  0  0  0  0  0  0  0  0  0  0  0
    4.9903   -4.4843    0.1633 C   0  0  2  0  0  0  0  0  0  0  0  0
    4.5526   -3.8532   -1.1758 C   0  0  0  0  0  0  0  0  0  0  0  0
    4.6041   -2.3109   -1.1002 C   0  0  2  0  0  0  0  0  0  0  0  0
    4.1539   -1.6939   -2.4399 C   0  0  0  0  0  0  0  0  0  0  0  0
    6.0515   -1.8779   -0.7780 C   0  0  0  0  0  0  0  0  0  0  0  0
    3.6831   -1.8407    0.0539 C   0  0  0  0  0  0  0  0  0  0  0  0
    2.0548   -8.4590    4.8772 H   0  0  0  0  0  0  0  0  0  0  0  0
    0.9860   -9.8069    4.5434 H   0  0  0  0  0  0  0  0  0  0  0  0
    0.3869   -8.4053    5.4166 H   0  0  0  0  0  0  0  0  0  0  0  0
   -0.4126   -8.3910    3.0647 H   0  0  0  0  0  0  0  0  0  0  0  0
    1.4997   -9.6305    2.0480 H   0  0  0  0  0  0  0  0  0  0  0  0
    1.0106   -8.2243    1.1442 H   0  0  0  0  0  0  0  0  0  0  0  0
    3.4075   -8.3999    3.0230 H   0  0  0  0  0  0  0  0  0  0  0  0
    3.4869   -8.3220    1.2855 H   0  0  0  0  0  0  0  0  0  0  0  0
    2.4914   -6.2588    4.3530 H   0  0  0  0  0  0  0  0  0  0  0  0
    1.9923   -4.8646    3.4674 H   0  0  0  0  0  0  0  0  0  0  0  0
    0.1275   -6.1383    2.4354 H   0  0  0  0  0  0  0  0  0  0  0  0
    0.0195   -6.1936    4.1781 H   0  0  0  0  0  0  0  0  0  0  0  0
    3.4455   -2.1278    2.1861 H   0  0  0  0  0  0  0  0  0  0  0  0
    5.6137   -0.9453    1.7960 H   0  0  0  0  0  0  0  0  0  0  0  0
    5.9045   -2.4461    2.6495 H   0  0  0  0  0  0  0  0  0  0  0  0
    7.5120   -2.1789    0.7783 H   0  0  0  0  0  0  0  0  0  0  0  0
    7.1195   -4.3716   -0.3129 H   0  0  0  0  0  0  0  0  0  0  0  0
    6.7997   -4.4763    1.3936 H   0  0  0  0  0  0  0  0  0  0  0  0
    4.9777   -5.5665    0.0488 H   0  0  0  0  0  0  0  0  0  0  0  0
    5.1869   -4.2119   -1.9848 H   0  0  0  0  0  0  0  0  0  0  0  0
    3.5423   -4.1712   -1.4261 H   0  0  0  0  0  0  0  0  0  0  0  0
    4.1934   -0.6024   -2.4310 H   0  0  0  0  0  0  0  0  0  0  0  0
    3.1259   -1.9737   -2.6744 H   0  0  0  0  0  0  0  0  0  0  0  0
    4.7752   -2.0333   -3.2698 H   0  0  0  0  0  0  0  0  0  0  0  0
    6.1202   -0.7900   -0.7216 H   0  0  0  0  0  0  0  0  0  0  0  0
    6.7278   -2.1964   -1.5739 H   0  0  0  0  0  0  0  0  0  0  0  0
    2.6458   -2.0961   -0.1690 H   0  0  0  0  0  0  0  0  0  0  0  0
    3.7148   -0.7486    0.1400 H   0  0  0  0  0  0  0  0  0  0  0  0
  1  2  1  0
  1 23  1  0
  1 24  1  0
  1 25  1  0
  2  7  1  0
  2  3  1  0
  2 26  1  6
  3  4  1  0
  3 27  1  0
  3 28  1  0
  4  5  1  0
  4 29  1  0
  4 30  1  0
  5 12  1  0
  5  6  1  0
  5  8  1  0
  6  7  1  0
  6 31  1  0
  6 32  1  0
  7 33  1  0
  7 34  1  0
  8  9  1  0
 10  9  1  6
 10 17  1  0
 10 11  1  0
 10 13  1  0
 11 12  1  0
 13 22  1  0
 13 14  1  0
 13 35  1  1
 14 15  1  0
 14 36  1  0
 14 37  1  0
 15 21  1  0
 15 16  1  0
 15 38  1  1
 16 17  1  0
 16 39  1  0
 16 40  1  0
 17 18  1  0
 17 41  1  6
 18 19  1  0
 18 42  1  0
 18 43  1  0
 19 20  1  6
 19 21  1  0
 19 22  1  0
 20 44  1  0
 20 45  1  0
 20 46  1  0
 21 47  1  0
 21 48  1  0
 22 49  1  0
 22 50  1  0
M  END
>  <i_m_ct_stereo_status>  (54) 
1

>  <s_m_source_file>  (54) 
/var/tmp/pbs.5076255.sched01/tmp0du1nuht/0914ajmtz.sdf

>  <i_m_source_file_index>  (54) 
24

>  <i_lp_mmshare_version>  (54) 
48012

>  <i_f3d_flags>  (54) 
0

>  <s_epik_input>  (54) 
W0NIMl0xW0NIMl1bQ0hdKFtDSDNdKVtDSDJdW0NIMl1DMTJPT0MzKE9PMilbQ0BIXTRbQ0gyXVtDQEhdNVtDSDJdW0NAQEhdM1tDSDJdW0NAXShbQ0gzXSkoW0NIMl01KVtDSDJdNA==

>  <s_epik_cmdline>  (54) 
J2VwaWtfcHl0aG9uJywgJy1waHQnLCAnMi4wJywgJy1waCcsICc3LjAnLCAnLXRuJywgJzgnLCAnLW1hJywgJzIwMCcsICctaW1hZScsICc8aW5maWxlLm1hZT4nLCAnLW9tYWUnLCAnPG91dGZpbGUubWFlPic=

>  <r_lp_tautomer_probability>  (54) 
1

>  <r_epik_Ionization_Penalty>  (54) 
0

>  <r_epik_Ionization_Penalty_Charging>  (54) 
0

>  <r_epik_Ionization_Penalty_Neutral>  (54) 
0

>  <r_epik_State_Penalty>  (54) 
-0

>  <r_epik_Charging_Adjusted_Penalty>  (54) 
0

>  <i_epik_Tot_Q>  (54) 
0

>  <i_epik_Tot_abs_Q>  (54) 
0

>  <s_lp_Force_Field>  (54) 
OPLS3e

>  <r_lp_Energy>  (54) 
11.3566

>  <b_lp_Chiralities_Consistent>  (54) 
1

>  <s_lp_Variant>  (54) 
20:0-1

>  <s_i_glide_gridfile>  (54) 
pfpi4k_grid

>  <i_i_glide_lignum>  (54) 
24

>  <i_i_glide_rotatable_bonds>  (54) 
0

>  <r_i_docking_score>  (54) 
-2.93192

>  <r_i_glide_ligand_efficiency>  (54) 
-0.133269

>  <r_i_glide_ligand_efficiency_sa>  (54) 
-0.373425

>  <r_i_glide_ligand_efficiency_ln>  (54) 
-0.716668

>  <r_i_glide_gscore>  (54) 
-2.93192

>  <r_i_glide_lipo>  (54) 
-0.330851

>  <r_i_glide_hbond>  (54) 
0

>  <r_i_glide_metal>  (54) 
-0

>  <r_i_glide_rewards>  (54) 
-1.32495

>  <r_i_glide_evdw>  (54) 
-24.9505

>  <r_i_glide_ecoul>  (54) 
-0.188086

>  <r_i_glide_erotb>  (54) 
0

>  <r_i_glide_esite>  (54) 
-0.000385721

>  <r_i_glide_emodel>  (54) 
-30.0011

>  <r_i_glide_energy>  (54) 
-25.1386

>  <r_i_glide_einternal>  (54) 
0

>  <r_i_glide_intrahb_reward>  (54) 
-0

>  <i_i_glide_confnum>  (54) 
3

>  <i_i_glide_posenum>  (54) 
25

>  <r_i_glide_eff_state_penalty>  (54) 
0

>  <ligand_id>  (54) 
20

>  <original_smiles>  (54) 
CC1CCC2(CC1)OOC1(OO2)C2CC3CC1CC(C)(C3)C2

>  <smiles>  (54) 
[H]C([H])([H])C1([H])C([H])([H])C([H])([H])C2(OOC3(OO2)C2([H])C([H])([H])C4([H])C([H])([H])C3([H])C([H])([H])C(C([H])([H])[H])(C4([H])[H])C2([H])[H])C([H])([H])C1([H])[H]

$$$$
21:0:0
     RDKit          3D

 57 61  0  0  1  0  0  0  0  0999 V2000
    0.5473   -1.5356    4.0411 C   0  0  0  0  0  0  0  0  0  0  0  0
    0.2411   -0.0545    4.2343 C   0  0  0  0  0  0  0  0  0  0  0  0
   -1.0490    0.3172    4.4176 C   0  0  0  0  0  0  0  0  0  0  0  0
   -1.4853    1.7196    4.7913 C   0  0  2  0  0  0  0  0  0  0  0  0
   -1.8039    1.8111    6.2861 C   0  0  0  0  0  0  0  0  0  0  0  0
   -2.3912    2.5636    3.8282 C   0  0  0  0  0  0  0  0  0  0  0  0
   -1.3031    3.6666    3.8787 C   0  0  0  0  0  0  0  0  0  0  0  0
   -1.2220    4.8858    3.7071 O   0  0  0  0  0  0  0  0  0  0  0  0
   -0.3774    2.6500    4.3358 C   0  0  0  0  0  0  0  0  0  0  0  0
    0.9237    2.4049    4.0847 C   0  0  0  0  0  0  0  0  0  0  0  0
    1.8374    3.4878    3.5113 C   0  0  0  0  0  0  0  0  0  0  0  0
    1.4561    0.9464    4.2448 C   0  0  1  0  0  0  0  0  0  0  0  0
    2.1429    0.8281    5.6331 C   0  0  0  0  0  0  0  0  0  0  0  0
    1.4627    0.8450    6.6593 O   0  0  0  0  0  0  0  0  0  0  0  0
    3.6931    0.7334    5.7116 C   0  0  0  0  0  0  0  0  0  0  0  0
    4.2961    2.1364    5.4510 C   0  0  0  0  0  0  0  0  0  0  0  0
    4.1286    0.3241    7.1423 C   0  0  0  0  0  0  0  0  0  0  0  0
    4.2633   -0.2520    4.6410 C   0  0  2  0  0  0  0  0  0  0  0  0
    3.6359    0.0020    3.2572 C   0  0  0  0  0  0  0  0  0  0  0  0
    2.4030    0.5412    3.0815 C   0  0  0  0  0  0  0  0  0  0  0  0
    1.7999    0.6625    1.6861 C   0  0  0  0  0  0  0  0  0  0  0  0
    4.4846   -0.5976    2.1316 C   0  0  0  0  0  0  0  0  0  0  0  0
    4.6105   -2.0686    2.4080 C   0  0  0  0  0  0  0  0  0  0  0  0
    4.7964   -3.1959    1.5650 C   0  0  0  0  0  0  0  0  0  0  0  0
    4.7920   -4.2895    2.3885 C   0  0  0  0  0  0  0  0  0  0  0  0
    4.6069   -3.9225    3.6912 O   0  0  0  0  0  0  0  0  0  0  0  0
    4.5074   -2.5685    3.6775 C   0  0  0  0  0  0  0  0  0  0  0  0
    4.2743   -1.7999    4.9435 C   0  0  1  0  0  0  0  0  0  0  0  0
    5.2508   -2.1474    5.9014 O   0  0  0  0  0  0  0  0  0  0  0  0
    1.1533   -1.9008    4.8648 H   0  0  0  0  0  0  0  0  0  0  0  0
    1.0692   -1.7442    3.1100 H   0  0  0  0  0  0  0  0  0  0  0  0
   -0.3648   -2.1297    4.0435 H   0  0  0  0  0  0  0  0  0  0  0  0
   -1.8461   -0.4160    4.3948 H   0  0  0  0  0  0  0  0  0  0  0  0
   -0.9858    1.4355    6.9016 H   0  0  0  0  0  0  0  0  0  0  0  0
   -2.6943    1.2250    6.5243 H   0  0  0  0  0  0  0  0  0  0  0  0
   -2.0008    2.8410    6.6000 H   0  0  0  0  0  0  0  0  0  0  0  0
   -2.5788    2.1288    2.8451 H   0  0  0  0  0  0  0  0  0  0  0  0
   -3.3347    2.8558    4.2914 H   0  0  0  0  0  0  0  0  0  0  0  0
    2.5208    3.1305    2.7484 H   0  0  0  0  0  0  0  0  0  0  0  0
    2.4333    3.8999    4.3172 H   0  0  0  0  0  0  0  0  0  0  0  0
    1.2917    4.3207    3.0720 H   0  0  0  0  0  0  0  0  0  0  0  0
    5.3611    2.1644    5.6976 H   0  0  0  0  0  0  0  0  0  0  0  0
    3.8028    2.9039    6.0493 H   0  0  0  0  0  0  0  0  0  0  0  0
    4.2134    2.4224    4.4040 H   0  0  0  0  0  0  0  0  0  0  0  0
    5.2109    0.2120    7.2085 H   0  0  0  0  0  0  0  0  0  0  0  0
    3.6831   -0.6235    7.4440 H   0  0  0  0  0  0  0  0  0  0  0  0
    3.8395    1.0673    7.8847 H   0  0  0  0  0  0  0  0  0  0  0  0
    5.3178    0.0159    4.5226 H   0  0  0  0  0  0  0  0  0  0  0  0
    0.7440    0.9289    1.7081 H   0  0  0  0  0  0  0  0  0  0  0  0
    1.8821   -0.2829    1.1483 H   0  0  0  0  0  0  0  0  0  0  0  0
    2.3374    1.4260    1.1266 H   0  0  0  0  0  0  0  0  0  0  0  0
    4.0875   -0.4309    1.1331 H   0  0  0  0  0  0  0  0  0  0  0  0
    5.4847   -0.1631    2.1645 H   0  0  0  0  0  0  0  0  0  0  0  0
    4.9116   -3.2123    0.4892 H   0  0  0  0  0  0  0  0  0  0  0  0
    4.8849   -5.3484    2.2178 H   0  0  0  0  0  0  0  0  0  0  0  0
    3.3096   -2.0993    5.3453 H   0  0  0  0  0  0  0  0  0  0  0  0
    5.1633   -3.0731    6.0849 H   0  0  0  0  0  0  0  0  0  0  0  0
  1  2  1  0
  1 30  1  0
  1 31  1  0
  1 32  1  0
 12  2  1  1
  2  3  2  0
  3  4  1  0
  3 33  1  0
  4  9  1  0
  4  5  1  1
  4  6  1  0
  5 34  1  0
  5 35  1  0
  5 36  1  0
  6  7  1  0
  6 37  1  0
  6 38  1  0
  7  8  2  0
  7  9  1  0
  9 10  2  0
 10 11  1  0
 10 12  1  0
 11 39  1  0
 11 40  1  0
 11 41  1  0
 12 20  1  0
 12 13  1  0
 13 14  2  0
 13 15  1  0
 15 16  1  0
 15 17  1  0
 15 18  1  0
 16 42  1  0
 16 43  1  0
 16 44  1  0
 17 45  1  0
 17 46  1  0
 17 47  1  0
 18 28  1  0
 18 19  1  0
 18 48  1  6
 19 20  2  0
 19 22  1  0
 20 21  1  0
 21 49  1  0
 21 50  1  0
 21 51  1  0
 22 23  1  0
 22 52  1  0
 22 53  1  0
 23 27  2  0
 23 24  1  0
 24 25  2  0
 24 54  1  0
 25 26  1  0
 25 55  1  0
 26 27  1  0
 27 28  1  0
 28 29  1  0
 28 56  1  1
 29 57  1  0
M  END
>  <i_m_ct_stereo_status>  (55) 
1

>  <s_m_source_file>  (55) 
/var/tmp/pbs.5076255.sched01/tmp0du1nuht/0914ajmtz.sdf

>  <i_m_source_file_index>  (55) 
25

>  <i_lp_mmshare_version>  (55) 
48012

>  <i_f3d_flags>  (55) 
0

>  <s_epik_input>  (55) 
W0NIMl0xQyg9TylDKD1DMltDSDNdKVtDQF0xKFtDSDNdKVtDSF09QyhbQ0gzXSlbQ0BdMjNDKD1PKUMoW0NIM10pKFtDSDNdKVtDQEBIXTRDKD1DM1tDSDNdKVtDSDJdYzVjKFtDQEhdNFtPSF0pb1tjSF1bY0hdNQ==

>  <s_epik_cmdline>  (55) 
J2VwaWtfcHl0aG9uJywgJy1waHQnLCAnMi4wJywgJy1waCcsICc3LjAnLCAnLXRuJywgJzgnLCAnLW1hJywgJzIwMCcsICctaW1hZScsICc8aW5maWxlLm1hZT4nLCAnLW9tYWUnLCAnPG91dGZpbGUubWFlPic=

>  <r_lp_tautomer_probability>  (55) 
1

>  <r_epik_Ionization_Penalty>  (55) 
4.51417e-08

>  <r_epik_Ionization_Penalty_Charging>  (55) 
0

>  <r_epik_Ionization_Penalty_Neutral>  (55) 
4.51417e-08

>  <r_epik_State_Penalty>  (55) 
-0

>  <r_epik_Charging_Adjusted_Penalty>  (55) 
0

>  <i_epik_Tot_Q>  (55) 
0

>  <i_epik_Tot_abs_Q>  (55) 
0

>  <s_lp_Force_Field>  (55) 
OPLS3e

>  <r_lp_Energy>  (55) 
49.5989

>  <b_lp_Chiralities_Consistent>  (55) 
1

>  <s_lp_Variant>  (55) 
21:0-1

>  <s_i_glide_gridfile>  (55) 
pfpi4k_grid

>  <i_i_glide_lignum>  (55) 
25

>  <i_i_glide_rotatable_bonds>  (55) 
1

>  <r_i_docking_score>  (55) 
-2.77608

>  <r_i_glide_ligand_efficiency>  (55) 
-0.095727

>  <r_i_glide_ligand_efficiency_sa>  (55) 
-0.294104

>  <r_i_glide_ligand_efficiency_ln>  (55) 
-0.635652

>  <r_i_glide_gscore>  (55) 
-2.77608

>  <r_i_glide_lipo>  (55) 
-0.216201

>  <r_i_glide_hbond>  (55) 
-0.152658

>  <r_i_glide_metal>  (55) 
-0

>  <r_i_glide_rewards>  (55) 
-0.73304

>  <r_i_glide_evdw>  (55) 
-22.4068

>  <r_i_glide_ecoul>  (55) 
-3.23946

>  <r_i_glide_erotb>  (55) 
0

>  <r_i_glide_esite>  (55) 
-0.0679262

>  <r_i_glide_emodel>  (55) 
-29.3387

>  <r_i_glide_energy>  (55) 
-25.6462

>  <r_i_glide_einternal>  (55) 
0.607951

>  <r_i_glide_intrahb_reward>  (55) 
-0

>  <i_i_glide_confnum>  (55) 
2

>  <i_i_glide_posenum>  (55) 
1

>  <r_i_glide_eff_state_penalty>  (55) 
0

>  <ligand_id>  (55) 
21

>  <original_smiles>  (55) 
CC1=CC2(C)CC(=O)C2=C(C)C12C(=O)C(C)(C)C1C(=C2C)Cc2ccoc2C1O

>  <smiles>  (55) 
[H]OC1([H])c2oc([H])c([H])c2C([H])([H])C2=C(C([H])([H])[H])C3(C(=O)C(C([H])([H])[H])(C([H])([H])[H])C21[H])C(C([H])([H])[H])=C([H])C1(C([H])([H])[H])C(=C3C([H])([H])[H])C(=O)C1([H])[H]

$$$$
21:0:1
     RDKit          3D

 57 61  0  0  1  0  0  0  0  0999 V2000
    5.6712   -6.1137    2.0316 C   0  0  0  0  0  0  0  0  0  0  0  0
    4.5691   -6.3485    3.0662 C   0  0  0  0  0  0  0  0  0  0  0  0
    4.6704   -7.4203    3.8877 C   0  0  0  0  0  0  0  0  0  0  0  0
    3.7601   -7.6663    5.0736 C   0  0  2  0  0  0  0  0  0  0  0  0
    4.4402   -7.2756    6.3789 C   0  0  0  0  0  0  0  0  0  0  0  0
    2.8299   -8.9326    5.1078 C   0  0  0  0  0  0  0  0  0  0  0  0
    1.6379   -7.9497    5.3159 C   0  0  0  0  0  0  0  0  0  0  0  0
    0.4805   -7.9434    5.7500 O   0  0  0  0  0  0  0  0  0  0  0  0
    2.4885   -6.9023    4.8000 C   0  0  0  0  0  0  0  0  0  0  0  0
    2.2458   -5.8601    3.9881 C   0  0  0  0  0  0  0  0  0  0  0  0
    0.8192   -5.3484    3.7557 C   0  0  0  0  0  0  0  0  0  0  0  0
    3.4128   -5.2802    3.1323 C   0  0  1  0  0  0  0  0  0  0  0  0
    3.9596   -4.0316    3.8733 C   0  0  0  0  0  0  0  0  0  0  0  0
    4.5817   -4.1697    4.9252 O   0  0  0  0  0  0  0  0  0  0  0  0
    3.6796   -2.6159    3.2972 C   0  0  0  0  0  0  0  0  0  0  0  0
    2.2126   -2.2312    3.6000 C   0  0  0  0  0  0  0  0  0  0  0  0
    4.5650   -1.5632    4.0219 C   0  0  0  0  0  0  0  0  0  0  0  0
    3.8923   -2.5730    1.7554 C   0  0  2  0  0  0  0  0  0  0  0  0
    3.2166   -3.7727    1.0628 C   0  0  0  0  0  0  0  0  0  0  0  0
    2.9765   -4.9537    1.6825 C   0  0  0  0  0  0  0  0  0  0  0  0
    2.4052   -6.1279    0.8924 C   0  0  0  0  0  0  0  0  0  0  0  0
    3.0013   -3.5147   -0.4242 C   0  0  0  0  0  0  0  0  0  0  0  0
    4.3484   -3.2388   -1.0298 C   0  0  0  0  0  0  0  0  0  0  0  0
    4.8807   -3.4252   -2.3337 C   0  0  0  0  0  0  0  0  0  0  0  0
    6.1882   -3.0327   -2.2589 C   0  0  0  0  0  0  0  0  0  0  0  0
    6.5149   -2.6004   -1.0130 O   0  0  0  0  0  0  0  0  0  0  0  0
    5.3762   -2.7293   -0.2802 C   0  0  0  0  0  0  0  0  0  0  0  0
    5.3474   -2.3743    1.1776 C   0  0  1  0  0  0  0  0  0  0  0  0
    5.8059   -1.0514    1.3582 O   0  0  0  0  0  0  0  0  0  0  0  0
    6.2029   -5.1919    2.2445 H   0  0  0  0  0  0  0  0  0  0  0  0
    5.2965   -6.0654    1.0098 H   0  0  0  0  0  0  0  0  0  0  0  0
    6.4082   -6.9080    2.0683 H   0  0  0  0  0  0  0  0  0  0  0  0
    5.5004   -8.1154    3.7870 H   0  0  0  0  0  0  0  0  0  0  0  0
    4.8295   -6.2526    6.3422 H   0  0  0  0  0  0  0  0  0  0  0  0
    5.2730   -7.9429    6.5961 H   0  0  0  0  0  0  0  0  0  0  0  0
    3.7497   -7.3318    7.2248 H   0  0  0  0  0  0  0  0  0  0  0  0
    2.8064   -9.5506    4.1959 H   0  0  0  0  0  0  0  0  0  0  0  0
    3.0378   -9.5741    5.9661 H   0  0  0  0  0  0  0  0  0  0  0  0
    0.6218   -5.0753    2.7190 H   0  0  0  0  0  0  0  0  0  0  0  0
    0.6762   -4.4544    4.3536 H   0  0  0  0  0  0  0  0  0  0  0  0
    0.0390   -6.0508    4.0554 H   0  0  0  0  0  0  0  0  0  0  0  0
    2.0287   -1.1694    3.4069 H   0  0  0  0  0  0  0  0  0  0  0  0
    1.9544   -2.4219    4.6399 H   0  0  0  0  0  0  0  0  0  0  0  0
    1.5147   -2.7787    2.9772 H   0  0  0  0  0  0  0  0  0  0  0  0
    4.4066   -0.5657    3.6112 H   0  0  0  0  0  0  0  0  0  0  0  0
    5.6236   -1.8021    3.9362 H   0  0  0  0  0  0  0  0  0  0  0  0
    4.3385   -1.5059    5.0859 H   0  0  0  0  0  0  0  0  0  0  0  0
    3.3374   -1.6983    1.4060 H   0  0  0  0  0  0  0  0  0  0  0  0
    2.4733   -7.0642    1.4409 H   0  0  0  0  0  0  0  0  0  0  0  0
    2.9612   -6.2531   -0.0346 H   0  0  0  0  0  0  0  0  0  0  0  0
    1.3576   -5.9465    0.6461 H   0  0  0  0  0  0  0  0  0  0  0  0
    2.5213   -4.3196   -0.9660 H   0  0  0  0  0  0  0  0  0  0  0  0
    2.3897   -2.6304   -0.5608 H   0  0  0  0  0  0  0  0  0  0  0  0
    4.3778   -3.8167   -3.2060 H   0  0  0  0  0  0  0  0  0  0  0  0
    6.9956   -3.0154   -2.9733 H   0  0  0  0  0  0  0  0  0  0  0  0
    6.0397   -3.0359    1.6877 H   0  0  0  0  0  0  0  0  0  0  0  0
    5.8634   -0.8802    2.2782 H   0  0  0  0  0  0  0  0  0  0  0  0
  1  2  1  0
  1 30  1  0
  1 31  1  0
  1 32  1  0
 12  2  1  6
  2  3  2  0
  3  4  1  0
  3 33  1  0
  4  9  1  0
  4  5  1  1
  4  6  1  0
  5 34  1  0
  5 35  1  0
  5 36  1  0
  6  7  1  0
  6 37  1  0
  6 38  1  0
  7  8  2  0
  7  9  1  0
  9 10  2  0
 10 11  1  0
 10 12  1  0
 11 39  1  0
 11 40  1  0
 11 41  1  0
 12 20  1  0
 12 13  1  0
 13 14  2  0
 13 15  1  0
 15 16  1  0
 15 17  1  0
 15 18  1  0
 16 42  1  0
 16 43  1  0
 16 44  1  0
 17 45  1  0
 17 46  1  0
 17 47  1  0
 18 28  1  0
 18 19  1  0
 18 48  1  6
 19 20  2  0
 19 22  1  0
 20 21  1  0
 21 49  1  0
 21 50  1  0
 21 51  1  0
 22 23  1  0
 22 52  1  0
 22 53  1  0
 23 27  2  0
 23 24  1  0
 24 25  2  0
 24 54  1  0
 25 26  1  0
 25 55  1  0
 26 27  1  0
 27 28  1  0
 28 29  1  0
 28 56  1  1
 29 57  1  0
M  END
>  <i_m_ct_stereo_status>  (56) 
1

>  <s_m_source_file>  (56) 
/var/tmp/pbs.5076255.sched01/tmp0du1nuht/0914ajmtz.sdf

>  <i_m_source_file_index>  (56) 
25

>  <i_lp_mmshare_version>  (56) 
48012

>  <i_f3d_flags>  (56) 
0

>  <s_epik_input>  (56) 
W0NIMl0xQyg9TylDKD1DMltDSDNdKVtDQF0xKFtDSDNdKVtDSF09QyhbQ0gzXSlbQ0BdMjNDKD1PKUMoW0NIM10pKFtDSDNdKVtDQEBIXTRDKD1DM1tDSDNdKVtDSDJdYzVjKFtDQEhdNFtPSF0pb1tjSF1bY0hdNQ==

>  <s_epik_cmdline>  (56) 
J2VwaWtfcHl0aG9uJywgJy1waHQnLCAnMi4wJywgJy1waCcsICc3LjAnLCAnLXRuJywgJzgnLCAnLW1hJywgJzIwMCcsICctaW1hZScsICc8aW5maWxlLm1hZT4nLCAnLW9tYWUnLCAnPG91dGZpbGUubWFlPic=

>  <r_lp_tautomer_probability>  (56) 
1

>  <r_epik_Ionization_Penalty>  (56) 
4.51417e-08

>  <r_epik_Ionization_Penalty_Charging>  (56) 
0

>  <r_epik_Ionization_Penalty_Neutral>  (56) 
4.51417e-08

>  <r_epik_State_Penalty>  (56) 
-0

>  <r_epik_Charging_Adjusted_Penalty>  (56) 
0

>  <i_epik_Tot_Q>  (56) 
0

>  <i_epik_Tot_abs_Q>  (56) 
0

>  <s_lp_Force_Field>  (56) 
OPLS3e

>  <r_lp_Energy>  (56) 
49.5989

>  <b_lp_Chiralities_Consistent>  (56) 
1

>  <s_lp_Variant>  (56) 
21:0-1

>  <s_i_glide_gridfile>  (56) 
pfpi4k_grid

>  <i_i_glide_lignum>  (56) 
25

>  <i_i_glide_rotatable_bonds>  (56) 
1

>  <r_i_docking_score>  (56) 
-2.48725

>  <r_i_glide_ligand_efficiency>  (56) 
-0.0857673

>  <r_i_glide_ligand_efficiency_sa>  (56) 
-0.263504

>  <r_i_glide_ligand_efficiency_ln>  (56) 
-0.569518

>  <r_i_glide_gscore>  (56) 
-2.48725

>  <r_i_glide_lipo>  (56) 
-0.360199

>  <r_i_glide_hbond>  (56) 
0

>  <r_i_glide_metal>  (56) 
-0

>  <r_i_glide_rewards>  (56) 
-0.73304

>  <r_i_glide_evdw>  (56) 
-21.9389

>  <r_i_glide_ecoul>  (56) 
-1.91935

>  <r_i_glide_erotb>  (56) 
0

>  <r_i_glide_esite>  (56) 
-0.00916397

>  <r_i_glide_emodel>  (56) 
-27.4571

>  <r_i_glide_energy>  (56) 
-23.8583

>  <r_i_glide_einternal>  (56) 
0.0012909

>  <r_i_glide_intrahb_reward>  (56) 
-0

>  <i_i_glide_confnum>  (56) 
2

>  <i_i_glide_posenum>  (56) 
33

>  <r_i_glide_eff_state_penalty>  (56) 
0

>  <ligand_id>  (56) 
21

>  <original_smiles>  (56) 
CC1=CC2(C)CC(=O)C2=C(C)C12C(=O)C(C)(C)C1C(=C2C)Cc2ccoc2C1O

>  <smiles>  (56) 
[H]OC1([H])c2oc([H])c([H])c2C([H])([H])C2=C(C([H])([H])[H])C3(C(=O)C(C([H])([H])[H])(C([H])([H])[H])C21[H])C(C([H])([H])[H])=C([H])C1(C([H])([H])[H])C(=C3C([H])([H])[H])C(=O)C1([H])[H]

$$$$
21:0:2
     RDKit          3D

 57 61  0  0  1  0  0  0  0  0999 V2000
    4.7825   -7.3013    0.7847 C   0  0  0  0  0  0  0  0  0  0  0  0
    3.8156   -7.5470    1.9442 C   0  0  0  0  0  0  0  0  0  0  0  0
    3.7246   -8.7952    2.4553 C   0  0  0  0  0  0  0  0  0  0  0  0
    2.9518   -9.1394    3.7144 C   0  0  2  0  0  0  0  0  0  0  0  0
    3.8855   -9.2887    4.9113 C   0  0  0  0  0  0  0  0  0  0  0  0
    1.7155  -10.1093    3.6566 C   0  0  0  0  0  0  0  0  0  0  0  0
    0.8919   -8.9649    4.3229 C   0  0  0  0  0  0  0  0  0  0  0  0
   -0.1490   -8.7977    4.9724 O   0  0  0  0  0  0  0  0  0  0  0  0
    1.9166   -8.0505    3.8845 C   0  0  0  0  0  0  0  0  0  0  0  0
    1.8612   -6.8012    3.4010 C   0  0  0  0  0  0  0  0  0  0  0  0
    0.6179   -5.9262    3.5946 C   0  0  0  0  0  0  0  0  0  0  0  0
    3.0179   -6.2988    2.4845 C   0  0  1  0  0  0  0  0  0  0  0  0
    3.9849   -5.4646    3.3676 C   0  0  0  0  0  0  0  0  0  0  0  0
    4.6819   -6.0229    4.2135 O   0  0  0  0  0  0  0  0  0  0  0  0
    4.0253   -3.9204    3.1989 C   0  0  0  0  0  0  0  0  0  0  0  0
    2.7809   -3.3002    3.8745 C   0  0  0  0  0  0  0  0  0  0  0  0
    5.2550   -3.3467    3.9451 C   0  0  0  0  0  0  0  0  0  0  0  0
    4.0341   -3.5093    1.6968 C   0  0  2  0  0  0  0  0  0  0  0  0
    2.9647   -4.2837    0.8965 C   0  0  0  0  0  0  0  0  0  0  0  0
    2.4951   -5.5036    1.2649 C   0  0  0  0  0  0  0  0  0  0  0  0
    1.5073   -6.2657    0.3757 C   0  0  0  0  0  0  0  0  0  0  0  0
    2.6315   -3.5814   -0.4143 C   0  0  0  0  0  0  0  0  0  0  0  0
    3.9055   -3.4549   -1.1964 C   0  0  0  0  0  0  0  0  0  0  0  0
    4.1850   -3.3919   -2.5897 C   0  0  0  0  0  0  0  0  0  0  0  0
    5.5468   -3.3484   -2.6920 C   0  0  0  0  0  0  0  0  0  0  0  0
    6.1440   -3.3790   -1.4717 O   0  0  0  0  0  0  0  0  0  0  0  0
    5.1242   -3.4347   -0.5741 C   0  0  0  0  0  0  0  0  0  0  0  0
    5.3949   -3.5016    0.8954 C   0  0  1  0  0  0  0  0  0  0  0  0
    6.2131   -2.4156    1.2799 O   0  0  0  0  0  0  0  0  0  0  0  0
    5.5715   -6.6246    1.0934 H   0  0  0  0  0  0  0  0  0  0  0  0
    4.2987   -6.8891   -0.0989 H   0  0  0  0  0  0  0  0  0  0  0  0
    5.2633   -8.2286    0.4926 H   0  0  0  0  0  0  0  0  0  0  0  0
    4.3014   -9.6158    2.0318 H   0  0  0  0  0  0  0  0  0  0  0  0
    4.5346   -8.4149    5.0338 H   0  0  0  0  0  0  0  0  0  0  0  0
    4.5250  -10.1662    4.7996 H   0  0  0  0  0  0  0  0  0  0  0  0
    3.3294   -9.4120    5.8455 H   0  0  0  0  0  0  0  0  0  0  0  0
    1.4044  -10.4288    2.6541 H   0  0  0  0  0  0  0  0  0  0  0  0
    1.8585  -10.9914    4.2824 H   0  0  0  0  0  0  0  0  0  0  0  0
    0.3589   -5.3416    2.7165 H   0  0  0  0  0  0  0  0  0  0  0  0
    0.8116   -5.2270    4.3987 H   0  0  0  0  0  0  0  0  0  0  0  0
   -0.2740   -6.4837    3.8784 H   0  0  0  0  0  0  0  0  0  0  0  0
    2.8783   -2.2137    3.9702 H   0  0  0  0  0  0  0  0  0  0  0  0
    2.6287   -3.7036    4.8751 H   0  0  0  0  0  0  0  0  0  0  0  0
    1.8798   -3.4794    3.2961 H   0  0  0  0  0  0  0  0  0  0  0  0
    5.3411   -2.2682    3.8116 H   0  0  0  0  0  0  0  0  0  0  0  0
    6.1569   -3.8241    3.5721 H   0  0  0  0  0  0  0  0  0  0  0  0
    5.2108   -3.5297    5.0179 H   0  0  0  0  0  0  0  0  0  0  0  0
    3.7021   -2.4672    1.6755 H   0  0  0  0  0  0  0  0  0  0  0  0
    1.4155   -7.3073    0.6770 H   0  0  0  0  0  0  0  0  0  0  0  0
    1.8292   -6.2422   -0.6624 H   0  0  0  0  0  0  0  0  0  0  0  0
    0.5028   -5.8514    0.4058 H   0  0  0  0  0  0  0  0  0  0  0  0
    1.8775   -4.0783   -1.0170 H   0  0  0  0  0  0  0  0  0  0  0  0
    2.2776   -2.5766   -0.2023 H   0  0  0  0  0  0  0  0  0  0  0  0
    3.4777   -3.4098   -3.4058 H   0  0  0  0  0  0  0  0  0  0  0  0
    6.2330   -3.3290   -3.5217 H   0  0  0  0  0  0  0  0  0  0  0  0
    5.9427   -4.4193    1.0916 H   0  0  0  0  0  0  0  0  0  0  0  0
    6.4141   -2.5010    2.1892 H   0  0  0  0  0  0  0  0  0  0  0  0
  1  2  1  0
  1 30  1  0
  1 31  1  0
  1 32  1  0
 12  2  1  6
  2  3  2  0
  3  4  1  0
  3 33  1  0
  4  9  1  0
  4  5  1  1
  4  6  1  0
  5 34  1  0
  5 35  1  0
  5 36  1  0
  6  7  1  0
  6 37  1  0
  6 38  1  0
  7  8  2  0
  7  9  1  0
  9 10  2  0
 10 11  1  0
 10 12  1  0
 11 39  1  0
 11 40  1  0
 11 41  1  0
 12 20  1  0
 12 13  1  0
 13 14  2  0
 13 15  1  0
 15 16  1  0
 15 17  1  0
 15 18  1  0
 16 42  1  0
 16 43  1  0
 16 44  1  0
 17 45  1  0
 17 46  1  0
 17 47  1  0
 18 28  1  0
 18 19  1  0
 18 48  1  1
 19 20  2  0
 19 22  1  0
 20 21  1  0
 21 49  1  0
 21 50  1  0
 21 51  1  0
 22 23  1  0
 22 52  1  0
 22 53  1  0
 23 27  2  0
 23 24  1  0
 24 25  2  0
 24 54  1  0
 25 26  1  0
 25 55  1  0
 26 27  1  0
 27 28  1  0
 28 29  1  0
 28 56  1  6
 29 57  1  0
M  END
>  <i_m_ct_stereo_status>  (57) 
1

>  <s_m_source_file>  (57) 
/var/tmp/pbs.5076255.sched01/tmp0du1nuht/0914ajmtz.sdf

>  <i_m_source_file_index>  (57) 
25

>  <i_lp_mmshare_version>  (57) 
48012

>  <i_f3d_flags>  (57) 
0

>  <s_epik_input>  (57) 
W0NIMl0xQyg9TylDKD1DMltDSDNdKVtDQF0xKFtDSDNdKVtDSF09QyhbQ0gzXSlbQ0BdMjNDKD1PKUMoW0NIM10pKFtDSDNdKVtDQEBIXTRDKD1DM1tDSDNdKVtDSDJdYzVjKFtDQEhdNFtPSF0pb1tjSF1bY0hdNQ==

>  <s_epik_cmdline>  (57) 
J2VwaWtfcHl0aG9uJywgJy1waHQnLCAnMi4wJywgJy1waCcsICc3LjAnLCAnLXRuJywgJzgnLCAnLW1hJywgJzIwMCcsICctaW1hZScsICc8aW5maWxlLm1hZT4nLCAnLW9tYWUnLCAnPG91dGZpbGUubWFlPic=

>  <r_lp_tautomer_probability>  (57) 
1

>  <r_epik_Ionization_Penalty>  (57) 
4.51417e-08

>  <r_epik_Ionization_Penalty_Charging>  (57) 
0

>  <r_epik_Ionization_Penalty_Neutral>  (57) 
4.51417e-08

>  <r_epik_State_Penalty>  (57) 
-0

>  <r_epik_Charging_Adjusted_Penalty>  (57) 
0

>  <i_epik_Tot_Q>  (57) 
0

>  <i_epik_Tot_abs_Q>  (57) 
0

>  <s_lp_Force_Field>  (57) 
OPLS3e

>  <r_lp_Energy>  (57) 
49.5989

>  <b_lp_Chiralities_Consistent>  (57) 
1

>  <s_lp_Variant>  (57) 
21:0-1

>  <s_i_glide_gridfile>  (57) 
pfpi4k_grid

>  <i_i_glide_lignum>  (57) 
25

>  <i_i_glide_rotatable_bonds>  (57) 
1

>  <r_i_docking_score>  (57) 
-2.46261

>  <r_i_glide_ligand_efficiency>  (57) 
-0.0849176

>  <r_i_glide_ligand_efficiency_sa>  (57) 
-0.260894

>  <r_i_glide_ligand_efficiency_ln>  (57) 
-0.563876

>  <r_i_glide_gscore>  (57) 
-2.46261

>  <r_i_glide_lipo>  (57) 
-0.527345

>  <r_i_glide_hbond>  (57) 
0

>  <r_i_glide_metal>  (57) 
-0

>  <r_i_glide_rewards>  (57) 
-0.73304

>  <r_i_glide_evdw>  (57) 
-24.0685

>  <r_i_glide_ecoul>  (57) 
0.185072

>  <r_i_glide_erotb>  (57) 
0

>  <r_i_glide_esite>  (57) 
-0.0265622

>  <r_i_glide_emodel>  (57) 
-27.4492

>  <r_i_glide_energy>  (57) 
-23.8834

>  <r_i_glide_einternal>  (57) 
0.00318154

>  <r_i_glide_intrahb_reward>  (57) 
-0

>  <i_i_glide_confnum>  (57) 
2

>  <i_i_glide_posenum>  (57) 
10

>  <r_i_glide_eff_state_penalty>  (57) 
0

>  <ligand_id>  (57) 
21

>  <original_smiles>  (57) 
CC1=CC2(C)CC(=O)C2=C(C)C12C(=O)C(C)(C)C1C(=C2C)Cc2ccoc2C1O

>  <smiles>  (57) 
[H]OC1([H])c2oc([H])c([H])c2C([H])([H])C2=C(C([H])([H])[H])C3(C(=O)C(C([H])([H])[H])(C([H])([H])[H])C21[H])C(C([H])([H])[H])=C([H])C1(C([H])([H])[H])C(=C3C([H])([H])[H])C(=O)C1([H])[H]

$$$$
22:0:0
     RDKit          3D

 26 29  0  0  1  0  0  0  0  0999 V2000
    2.8124   -3.5959    1.3009 C   0  0  0  0  0  0  0  0  0  0  0  0
    3.6691   -3.3719    0.1360 N   0  0  0  0  0  0  0  0  0  0  0  0
    5.1209   -3.4274    0.2809 C   0  0  0  0  0  0  0  0  0  0  0  0
    5.7668   -3.6946    1.2909 O   0  0  0  0  0  0  0  0  0  0  0  0
    5.8309   -3.0635   -1.2334 C   0  0  2  0  0  0  0  0  0  0  0  0
    7.6028   -2.6892   -1.0727 Cl  0  0  0  0  0  0  0  0  0  0  0  0
    4.9170   -2.0228   -1.3891 C   0  0  1  0  0  0  0  0  0  0  0  0
    4.6860   -0.8333   -2.2809 C   0  0  0  0  0  0  0  0  0  0  0  0
    3.4258   -0.8831   -2.7141 C   0  0  0  0  0  0  0  0  0  0  0  0
    2.8033   -2.2803   -2.6648 C   0  0  1  0  0  0  0  0  0  0  0  0
    3.8560   -2.9690   -3.6549 C   0  0  0  0  0  0  0  0  0  0  0  0
    5.1183   -3.3702   -2.7980 C   0  0  1  0  0  0  0  0  0  0  0  0
    4.1303   -3.5540   -1.8421 C   0  0  2  0  0  0  0  0  0  0  0  0
    2.8859   -3.2078   -1.2964 C   0  0  1  0  0  0  0  0  0  0  0  0
    3.3920   -3.7296    2.2133 H   0  0  0  0  0  0  0  0  0  0  0  0
    2.2261   -4.5029    1.1568 H   0  0  0  0  0  0  0  0  0  0  0  0
    2.1387   -2.7530    1.4543 H   0  0  0  0  0  0  0  0  0  0  0  0
    4.7136   -1.4022   -0.4960 H   0  0  0  0  0  0  0  0  0  0  0  0
    5.3396    0.0246   -2.3102 H   0  0  0  0  0  0  0  0  0  0  0  0
    2.9587   -0.0834   -3.2730 H   0  0  0  0  0  0  0  0  0  0  0  0
    1.8002   -2.2546   -3.0933 H   0  0  0  0  0  0  0  0  0  0  0  0
    3.3935   -3.8640   -4.0804 H   0  0  0  0  0  0  0  0  0  0  0  0
    4.1206   -2.3537   -4.5179 H   0  0  0  0  0  0  0  0  0  0  0  0
    5.5706   -4.2787   -3.1838 H   0  0  0  0  0  0  0  0  0  0  0  0
    4.3240   -4.6342   -1.6248 H   0  0  0  0  0  0  0  0  0  0  0  0
    2.1330   -3.9983   -1.3728 H   0  0  0  0  0  0  0  0  0  0  0  0
  1  2  1  0
  1 15  1  0
  1 16  1  0
  1 17  1  0
  2 14  1  0
  2  3  1  0
  3  4  2  0
  3  5  1  0
  5 12  1  0
  5  6  1  6
  5  7  1  0
  7 13  1  0
  7  8  1  0
  7 18  1  1
  8  9  2  0
  8 19  1  0
  9 10  1  0
  9 20  1  0
 10 14  1  0
 10 11  1  0
 10 21  1  6
 11 12  1  0
 11 22  1  0
 11 23  1  0
 12 13  1  0
 12 24  1  6
 13 14  1  0
 13 25  1  1
 14 26  1  1
M  END
>  <i_m_ct_stereo_status>  (58) 
1

>  <s_m_source_file>  (58) 
/var/tmp/pbs.5076255.sched01/tmp0du1nuht/0914ajmtz.sdf

>  <i_m_source_file_index>  (58) 
26

>  <i_lp_mmshare_version>  (58) 
48012

>  <i_f3d_flags>  (58) 
0

>  <s_epik_input>  (58) 
Tz1DMU4oW0NIM10pW0NASF0yW0NAQEhdKFtDSF09W0NIXTMpW0NIMl1bQ0BASF00W0NASF0yW0NAQEhdM1tDQEBdMTRDbA==

>  <s_epik_cmdline>  (58) 
J2VwaWtfcHl0aG9uJywgJy1waHQnLCAnMi4wJywgJy1waCcsICc3LjAnLCAnLXRuJywgJzgnLCAnLW1hJywgJzIwMCcsICctaW1hZScsICc8aW5maWxlLm1hZT4nLCAnLW9tYWUnLCAnPG91dGZpbGUubWFlPic=

>  <r_lp_tautomer_probability>  (58) 
1

>  <r_epik_Ionization_Penalty>  (58) 
2.82458e-11

>  <r_epik_Ionization_Penalty_Charging>  (58) 
0

>  <r_epik_Ionization_Penalty_Neutral>  (58) 
2.82458e-11

>  <r_epik_State_Penalty>  (58) 
-0

>  <r_epik_Charging_Adjusted_Penalty>  (58) 
0

>  <i_epik_Tot_Q>  (58) 
0

>  <i_epik_Tot_abs_Q>  (58) 
0

>  <s_lp_Force_Field>  (58) 
OPLS3e

>  <r_lp_Energy>  (58) 
407.503

>  <b_lp_Chiralities_Consistent>  (58) 
1

>  <s_lp_Variant>  (58) 
22:0-1

>  <s_i_glide_gridfile>  (58) 
pfpi4k_grid

>  <i_i_glide_lignum>  (58) 
26

>  <i_i_glide_rotatable_bonds>  (58) 
0

>  <r_i_docking_score>  (58) 
-3.80861

>  <r_i_glide_ligand_efficiency>  (58) 
-0.272043

>  <r_i_glide_ligand_efficiency_sa>  (58) 
-0.655663

>  <r_i_glide_ligand_efficiency_ln>  (58) 
-1.04659

>  <r_i_glide_gscore>  (58) 
-3.80861

>  <r_i_glide_lipo>  (58) 
-0.52968

>  <r_i_glide_hbond>  (58) 
0

>  <r_i_glide_metal>  (58) 
-0

>  <r_i_glide_rewards>  (58) 
-2.04651

>  <r_i_glide_evdw>  (58) 
-19.3711

>  <r_i_glide_ecoul>  (58) 
-1.75908

>  <r_i_glide_erotb>  (58) 
0

>  <r_i_glide_esite>  (58) 
0

>  <r_i_glide_emodel>  (58) 
-25.7016

>  <r_i_glide_energy>  (58) 
-21.1302

>  <r_i_glide_einternal>  (58) 
0

>  <r_i_glide_intrahb_reward>  (58) 
-0

>  <i_i_glide_confnum>  (58) 
1

>  <i_i_glide_posenum>  (58) 
12

>  <r_i_glide_eff_state_penalty>  (58) 
0

>  <ligand_id>  (58) 
22

>  <original_smiles>  (58) 
CN1C(=O)C2(Cl)C3C=CC4CC2C3C41

>  <smiles>  (58) 
[H]C1=C([H])C2([H])C3(Cl)C(=O)N(C([H])([H])[H])C4([H])C1([H])C([H])([H])C3([H])C24[H]

$$$$
22:0:1
     RDKit          3D

 26 29  0  0  1  0  0  0  0  0999 V2000
    3.0932   -2.7202   -3.1341 C   0  0  0  0  0  0  0  0  0  0  0  0
    4.0200   -2.3924   -2.0509 N   0  0  0  0  0  0  0  0  0  0  0  0
    5.4142   -2.8028   -2.1332 C   0  0  0  0  0  0  0  0  0  0  0  0
    5.9462   -3.3974   -3.0632 O   0  0  0  0  0  0  0  0  0  0  0  0
    6.2281   -2.3065   -0.7123 C   0  0  2  0  0  0  0  0  0  0  0  0
    7.8195   -3.1583   -0.4931 Cl  0  0  0  0  0  0  0  0  0  0  0  0
    5.1294   -2.7134    0.0276 C   0  0  1  0  0  0  0  0  0  0  0  0
    4.7705   -2.9848    1.4666 C   0  0  0  0  0  0  0  0  0  0  0  0
    3.6211   -2.3583    1.7157 C   0  0  0  0  0  0  0  0  0  0  0  0
    3.3228   -1.2095    0.7560 C   0  0  1  0  0  0  0  0  0  0  0  0
    4.6240   -0.3443    1.1173 C   0  0  0  0  0  0  0  0  0  0  0  0
    5.8249   -0.9142    0.2610 C   0  0  1  0  0  0  0  0  0  0  0  0
    4.7749   -1.1062   -0.6394 C   0  0  2  0  0  0  0  0  0  0  0  0
    3.4233   -1.4261   -0.8897 C   0  0  1  0  0  0  0  0  0  0  0  0
    3.5549   -3.3460   -3.8949 H   0  0  0  0  0  0  0  0  0  0  0  0
    2.7494   -1.8116   -3.6311 H   0  0  0  0  0  0  0  0  0  0  0  0
    2.2294   -3.2585   -2.7463 H   0  0  0  0  0  0  0  0  0  0  0  0
    4.6771   -3.6884   -0.2591 H   0  0  0  0  0  0  0  0  0  0  0  0
    5.2219   -3.7686    2.0565 H   0  0  0  0  0  0  0  0  0  0  0  0
    3.0644   -2.4624    2.6358 H   0  0  0  0  0  0  0  0  0  0  0  0
    2.4017   -0.6990    1.0555 H   0  0  0  0  0  0  0  0  0  0  0  0
    4.4329    0.7005    0.8428 H   0  0  0  0  0  0  0  0  0  0  0  0
    4.8638   -0.3051    2.1868 H   0  0  0  0  0  0  0  0  0  0  0  0
    6.5200   -0.1155    0.0127 H   0  0  0  0  0  0  0  0  0  0  0  0
    5.1801   -0.5036   -1.4955 H   0  0  0  0  0  0  0  0  0  0  0  0
    2.8705   -0.6570   -1.4151 H   0  0  0  0  0  0  0  0  0  0  0  0
  1  2  1  0
  1 15  1  0
  1 16  1  0
  1 17  1  0
  2 14  1  0
  2  3  1  0
  3  4  2  0
  3  5  1  0
  5 12  1  0
  5  6  1  1
  5  7  1  0
  7 13  1  0
  7  8  1  0
  7 18  1  6
  8  9  2  0
  8 19  1  0
  9 10  1  0
  9 20  1  0
 10 14  1  0
 10 11  1  0
 10 21  1  6
 11 12  1  0
 11 22  1  0
 11 23  1  0
 12 13  1  0
 12 24  1  6
 13 14  1  0
 13 25  1  6
 14 26  1  6
M  END
>  <i_m_ct_stereo_status>  (59) 
1

>  <s_m_source_file>  (59) 
/var/tmp/pbs.5076255.sched01/tmp0du1nuht/0914ajmtz.sdf

>  <i_m_source_file_index>  (59) 
26

>  <i_lp_mmshare_version>  (59) 
48012

>  <i_f3d_flags>  (59) 
0

>  <s_epik_input>  (59) 
Tz1DMU4oW0NIM10pW0NASF0yW0NAQEhdKFtDSF09W0NIXTMpW0NIMl1bQ0BASF00W0NASF0yW0NAQEhdM1tDQEBdMTRDbA==

>  <s_epik_cmdline>  (59) 
J2VwaWtfcHl0aG9uJywgJy1waHQnLCAnMi4wJywgJy1waCcsICc3LjAnLCAnLXRuJywgJzgnLCAnLW1hJywgJzIwMCcsICctaW1hZScsICc8aW5maWxlLm1hZT4nLCAnLW9tYWUnLCAnPG91dGZpbGUubWFlPic=

>  <r_lp_tautomer_probability>  (59) 
1

>  <r_epik_Ionization_Penalty>  (59) 
2.82458e-11

>  <r_epik_Ionization_Penalty_Charging>  (59) 
0

>  <r_epik_Ionization_Penalty_Neutral>  (59) 
2.82458e-11

>  <r_epik_State_Penalty>  (59) 
-0

>  <r_epik_Charging_Adjusted_Penalty>  (59) 
0

>  <i_epik_Tot_Q>  (59) 
0

>  <i_epik_Tot_abs_Q>  (59) 
0

>  <s_lp_Force_Field>  (59) 
OPLS3e

>  <r_lp_Energy>  (59) 
407.503

>  <b_lp_Chiralities_Consistent>  (59) 
1

>  <s_lp_Variant>  (59) 
22:0-1

>  <s_i_glide_gridfile>  (59) 
pfpi4k_grid

>  <i_i_glide_lignum>  (59) 
26

>  <i_i_glide_rotatable_bonds>  (59) 
0

>  <r_i_docking_score>  (59) 
-3.66408

>  <r_i_glide_ligand_efficiency>  (59) 
-0.26172

>  <r_i_glide_ligand_efficiency_sa>  (59) 
-0.630783

>  <r_i_glide_ligand_efficiency_ln>  (59) 
-1.00688

>  <r_i_glide_gscore>  (59) 
-3.66408

>  <r_i_glide_lipo>  (59) 
-0.477794

>  <r_i_glide_hbond>  (59) 
0

>  <r_i_glide_metal>  (59) 
-0

>  <r_i_glide_rewards>  (59) 
-2.0977

>  <r_i_glide_evdw>  (59) 
-19.5371

>  <r_i_glide_ecoul>  (59) 
-0.712703

>  <r_i_glide_erotb>  (59) 
0

>  <r_i_glide_esite>  (59) 
-0.00482736

>  <r_i_glide_emodel>  (59) 
-24.3846

>  <r_i_glide_energy>  (59) 
-20.2498

>  <r_i_glide_einternal>  (59) 
0

>  <r_i_glide_intrahb_reward>  (59) 
-0

>  <i_i_glide_confnum>  (59) 
1

>  <i_i_glide_posenum>  (59) 
1

>  <r_i_glide_eff_state_penalty>  (59) 
0

>  <ligand_id>  (59) 
22

>  <original_smiles>  (59) 
CN1C(=O)C2(Cl)C3C=CC4CC2C3C41

>  <smiles>  (59) 
[H]C1=C([H])C2([H])C3(Cl)C(=O)N(C([H])([H])[H])C4([H])C1([H])C([H])([H])C3([H])C24[H]

$$$$
22:0:2
     RDKit          3D

 26 29  0  0  1  0  0  0  0  0999 V2000
    2.0873   -4.7845   -0.3628 C   0  0  0  0  0  0  0  0  0  0  0  0
    3.1577   -3.9867   -0.9350 N   0  0  0  0  0  0  0  0  0  0  0  0
    4.4258   -3.8987   -0.2089 C   0  0  0  0  0  0  0  0  0  0  0  0
    4.7099   -4.4228    0.8456 O   0  0  0  0  0  0  0  0  0  0  0  0
    5.5099   -2.9571   -1.1348 C   0  0  2  0  0  0  0  0  0  0  0  0
    6.9068   -2.3466   -0.1332 Cl  0  0  0  0  0  0  0  0  0  0  0  0
    4.4725   -2.0878   -1.4280 C   0  0  1  0  0  0  0  0  0  0  0  0
    4.2788   -0.7205   -2.0027 C   0  0  0  0  0  0  0  0  0  0  0  0
    3.3272   -0.7802   -2.9279 C   0  0  0  0  0  0  0  0  0  0  0  0
    3.1053   -2.1760   -3.4831 C   0  0  1  0  0  0  0  0  0  0  0  0
    4.5917   -2.3503   -4.0420 C   0  0  0  0  0  0  0  0  0  0  0  0
    5.5135   -2.8421   -2.8685 C   0  0  1  0  0  0  0  0  0  0  0  0
    4.3162   -3.4697   -2.5248 C   0  0  2  0  0  0  0  0  0  0  0  0
    2.9108   -3.4689   -2.4739 C   0  0  1  0  0  0  0  0  0  0  0  0
    2.2407   -5.0965    0.6691 H   0  0  0  0  0  0  0  0  0  0  0  0
    1.8131   -5.6608   -0.9355 H   0  0  0  0  0  0  0  0  0  0  0  0
    1.2443   -4.1460   -0.4676 H   0  0  0  0  0  0  0  0  0  0  0  0
    3.8021   -1.8207   -0.5889 H   0  0  0  0  0  0  0  0  0  0  0  0
    4.6522    0.1423   -1.5021 H   0  0  0  0  0  0  0  0  0  0  0  0
    2.8873    0.0798   -3.4197 H   0  0  0  0  0  0  0  0  0  0  0  0
    2.3662   -2.1612   -4.2851 H   0  0  0  0  0  0  0  0  0  0  0  0
    4.5611   -3.1623   -4.7611 H   0  0  0  0  0  0  0  0  0  0  0  0
    4.9597   -1.4495   -4.5386 H   0  0  0  0  0  0  0  0  0  0  0  0
    6.3104   -3.4890   -3.2353 H   0  0  0  0  0  0  0  0  0  0  0  0
    4.7094   -4.5241   -2.5084 H   0  0  0  0  0  0  0  0  0  0  0  0
    2.4397   -4.2516   -3.0768 H   0  0  0  0  0  0  0  0  0  0  0  0
  1  2  1  0
  1 15  1  0
  1 16  1  0
  1 17  1  0
  2 14  1  0
  2  3  1  0
  3  4  2  0
  3  5  1  0
  5 12  1  0
  5  6  1  1
  5  7  1  0
  7 13  1  0
  7  8  1  0
  7 18  1  1
  8  9  2  0
  8 19  1  0
  9 10  1  0
  9 20  1  0
 10 14  1  0
 10 11  1  0
 10 21  1  6
 11 12  1  0
 11 22  1  0
 11 23  1  0
 12 13  1  0
 12 24  1  6
 13 14  1  0
 13 25  1  1
 14 26  1  6
M  END
>  <i_m_ct_stereo_status>  (60) 
1

>  <s_m_source_file>  (60) 
/var/tmp/pbs.5076255.sched01/tmp0du1nuht/0914ajmtz.sdf

>  <i_m_source_file_index>  (60) 
26

>  <i_lp_mmshare_version>  (60) 
48012

>  <i_f3d_flags>  (60) 
0

>  <s_epik_input>  (60) 
Tz1DMU4oW0NIM10pW0NASF0yW0NAQEhdKFtDSF09W0NIXTMpW0NIMl1bQ0BASF00W0NASF0yW0NAQEhdM1tDQEBdMTRDbA==

>  <s_epik_cmdline>  (60) 
J2VwaWtfcHl0aG9uJywgJy1waHQnLCAnMi4wJywgJy1waCcsICc3LjAnLCAnLXRuJywgJzgnLCAnLW1hJywgJzIwMCcsICctaW1hZScsICc8aW5maWxlLm1hZT4nLCAnLW9tYWUnLCAnPG91dGZpbGUubWFlPic=

>  <r_lp_tautomer_probability>  (60) 
1

>  <r_epik_Ionization_Penalty>  (60) 
2.82458e-11

>  <r_epik_Ionization_Penalty_Charging>  (60) 
0

>  <r_epik_Ionization_Penalty_Neutral>  (60) 
2.82458e-11

>  <r_epik_State_Penalty>  (60) 
-0

>  <r_epik_Charging_Adjusted_Penalty>  (60) 
0

>  <i_epik_Tot_Q>  (60) 
0

>  <i_epik_Tot_abs_Q>  (60) 
0

>  <s_lp_Force_Field>  (60) 
OPLS3e

>  <r_lp_Energy>  (60) 
407.503

>  <b_lp_Chiralities_Consistent>  (60) 
1

>  <s_lp_Variant>  (60) 
22:0-1

>  <s_i_glide_gridfile>  (60) 
pfpi4k_grid

>  <i_i_glide_lignum>  (60) 
26

>  <i_i_glide_rotatable_bonds>  (60) 
0

>  <r_i_docking_score>  (60) 
-3.07998

>  <r_i_glide_ligand_efficiency>  (60) 
-0.219999

>  <r_i_glide_ligand_efficiency_sa>  (60) 
-0.530228

>  <r_i_glide_ligand_efficiency_ln>  (60) 
-0.846368

>  <r_i_glide_gscore>  (60) 
-3.07998

>  <r_i_glide_lipo>  (60) 
-0.35974

>  <r_i_glide_hbond>  (60) 
0

>  <r_i_glide_metal>  (60) 
-0

>  <r_i_glide_rewards>  (60) 
-1.99368

>  <r_i_glide_evdw>  (60) 
-8.39082

>  <r_i_glide_ecoul>  (60) 
-1.94235

>  <r_i_glide_erotb>  (60) 
0

>  <r_i_glide_esite>  (60) 
-0.015663

>  <r_i_glide_emodel>  (60) 
-13.4378

>  <r_i_glide_energy>  (60) 
-10.3332

>  <r_i_glide_einternal>  (60) 
0

>  <r_i_glide_intrahb_reward>  (60) 
-0

>  <i_i_glide_confnum>  (60) 
1

>  <i_i_glide_posenum>  (60) 
18

>  <r_i_glide_eff_state_penalty>  (60) 
0

>  <ligand_id>  (60) 
22

>  <original_smiles>  (60) 
CN1C(=O)C2(Cl)C3C=CC4CC2C3C41

>  <smiles>  (60) 
[H]C1=C([H])C2([H])C3(Cl)C(=O)N(C([H])([H])[H])C4([H])C1([H])C([H])([H])C3([H])C24[H]

$$$$
23:0:0
     RDKit          3D

 54 58  0  0  1  0  0  0  0  0999 V2000
   -2.4020    3.7103    2.9998 C   0  0  0  0  0  0  0  0  0  0  0  0
   -2.2304    2.6834    4.1616 C   0  0  0  0  0  0  0  0  0  0  0  0
   -3.0888    3.1256    5.3715 C   0  0  0  0  0  0  0  0  0  0  0  0
   -0.7435    2.3429    4.5106 C   0  0  2  0  0  0  0  0  0  0  0  0
   -0.3287    1.3010    3.3159 O   0  0  0  0  0  0  0  0  0  0  0  0
    0.7800    0.0985    3.2513 C   0  0  1  0  0  0  0  0  0  0  0  0
    2.5486   -0.1392    3.2957 C   0  0  0  0  0  0  0  0  0  0  0  0
    3.4270    0.7437    4.5445 C   0  0  1  0  0  0  0  0  0  0  0  0
    4.7787    0.9188    4.1304 O   0  0  0  0  0  0  0  0  0  0  0  0
    2.6753    2.2680    5.0716 C   0  0  2  0  0  0  0  0  0  0  0  0
    3.7275    3.4005    5.1942 C   0  0  0  0  0  0  0  0  0  0  0  0
    1.1865    2.8122    5.9108 C   0  0  2  0  0  0  0  0  0  0  0  0
   -0.3052    2.0895    6.0555 C   0  0  2  0  0  0  0  0  0  0  0  0
   -0.4979    0.6751    6.6068 C   0  0  1  0  0  0  0  0  0  0  0  0
    0.5337    0.3362    7.7000 C   0  0  0  0  0  0  0  0  0  0  0  0
   -1.7691    0.6271    7.2138 O   0  0  0  0  0  0  0  0  0  0  0  0
   -0.5543   -0.3659    5.4634 C   0  0  0  0  0  0  0  0  0  0  0  0
    0.7131   -0.2573    4.6049 C   0  0  2  0  0  0  0  0  0  0  0  0
    1.2947    1.0445    4.6574 O   0  0  0  0  0  0  0  0  0  0  0  0
    1.8967    2.2936    3.8774 C   0  0  2  0  0  0  0  0  0  0  0  0
    2.6216    2.3046    2.6370 O   0  0  0  0  0  0  0  0  0  0  0  0
    1.1085    3.5795    3.7186 C   0  0  0  0  0  0  0  0  0  0  0  0
    0.2804    3.5498    4.8376 C   0  0  1  0  0  0  0  0  0  0  0  0
   -0.1624    4.9864    5.2340 C   0  0  0  0  0  0  0  0  0  0  0  0
   -2.0094    4.6793    3.1598 H   0  0  0  0  0  0  0  0  0  0  0  0
   -3.4700    3.8410    2.7707 H   0  0  0  0  0  0  0  0  0  0  0  0
   -1.9254    3.3212    2.1041 H   0  0  0  0  0  0  0  0  0  0  0  0
   -2.6528    1.7494    3.8006 H   0  0  0  0  0  0  0  0  0  0  0  0
   -2.7422    4.0439    5.8179 H   0  0  0  0  0  0  0  0  0  0  0  0
   -3.0896    2.3493    6.1394 H   0  0  0  0  0  0  0  0  0  0  0  0
   -4.1338    3.2669    5.0818 H   0  0  0  0  0  0  0  0  0  0  0  0
    0.3641   -0.6986    2.6425 H   0  0  0  0  0  0  0  0  0  0  0  0
    2.7932   -1.2034    3.4282 H   0  0  0  0  0  0  0  0  0  0  0  0
    2.9538    0.0369    2.2895 H   0  0  0  0  0  0  0  0  0  0  0  0
    3.4937    0.0988    5.4306 H   0  0  0  0  0  0  0  0  0  0  0  0
    4.7329    1.5716    3.4416 H   0  0  0  0  0  0  0  0  0  0  0  0
    3.2729    4.3624    5.4261 H   0  0  0  0  0  0  0  0  0  0  0  0
    4.2690    3.5242    4.2669 H   0  0  0  0  0  0  0  0  0  0  0  0
    4.4367    3.1762    5.9932 H   0  0  0  0  0  0  0  0  0  0  0  0
    1.3616    3.4567    6.7811 H   0  0  0  0  0  0  0  0  0  0  0  0
   -0.8261    2.7738    6.7394 H   0  0  0  0  0  0  0  0  0  0  0  0
    1.5465    0.3498    7.2932 H   0  0  0  0  0  0  0  0  0  0  0  0
    0.3627   -0.6463    8.1430 H   0  0  0  0  0  0  0  0  0  0  0  0
    0.5008    1.0802    8.4979 H   0  0  0  0  0  0  0  0  0  0  0  0
   -1.8175    1.3728    7.7882 H   0  0  0  0  0  0  0  0  0  0  0  0
   -0.6126   -1.3695    5.8878 H   0  0  0  0  0  0  0  0  0  0  0  0
   -1.4542   -0.2547    4.8640 H   0  0  0  0  0  0  0  0  0  0  0  0
    1.3770   -1.0574    4.9551 H   0  0  0  0  0  0  0  0  0  0  0  0
    1.9994    2.3542    1.9212 H   0  0  0  0  0  0  0  0  0  0  0  0
    1.7861    4.4445    3.7199 H   0  0  0  0  0  0  0  0  0  0  0  0
    0.5464    3.5676    2.7907 H   0  0  0  0  0  0  0  0  0  0  0  0
    0.7089    5.5833    5.5537 H   0  0  0  0  0  0  0  0  0  0  0  0
   -0.8414    4.9881    6.0886 H   0  0  0  0  0  0  0  0  0  0  0  0
   -0.5919    5.5355    4.4110 H   0  0  0  0  0  0  0  0  0  0  0  0
  1  2  1  0
  1 25  1  0
  1 26  1  0
  1 27  1  0
  2  3  1  0
  4  2  1  1
  2 28  1  0
  3 29  1  0
  3 30  1  0
  3 31  1  0
  4 13  1  0
  4 23  1  0
  4  5  1  0
  5  6  1  0
  6 18  1  0
  6  7  1  0
  6 32  1  6
  7  8  1  0
  7 33  1  0
  7 34  1  0
  8  9  1  0
  8 10  1  0
  8 35  1  1
  9 36  1  0
 10 20  1  0
 10 11  1  6
 10 12  1  0
 11 37  1  0
 11 38  1  0
 11 39  1  0
 12 23  1  0
 12 13  1  0
 12 40  1  1
 13 14  1  0
 13 41  1  1
 14 15  1  0
 14 16  1  1
 14 17  1  0
 15 42  1  0
 15 43  1  0
 15 44  1  0
 16 45  1  0
 17 18  1  0
 17 46  1  0
 17 47  1  0
 18 19  1  0
 18 48  1  6
 19 20  1  0
 20 21  1  6
 20 22  1  0
 21 49  1  0
 22 23  1  0
 22 50  1  0
 22 51  1  0
 23 24  1  1
 24 52  1  0
 24 53  1  0
 24 54  1  0
M  END
>  <i_m_ct_stereo_status>  (61) 
1

>  <s_m_source_file>  (61) 
/var/tmp/pbs.5076255.sched01/tmp0du1nuht/0914ajmtz.sdf

>  <i_m_source_file_index>  (61) 
27

>  <i_lp_mmshare_version>  (61) 
48012

>  <i_f3d_flags>  (61) 
0

>  <s_epik_input>  (61) 
W0NIM11bQ0hdKFtDSDNdKVtDQEBdMTJbQ0BASF0zW0NASF00W0NAXTUoW0NIM10pW0NAXShbT0hdKShbQ0gyXVtDQEBdMjRbQ0gzXSlPW0NAQEhdKFtDSDJdW0NAXTMoW0NIM10pW09IXSlbQ0BASF0oTzEpW0NIMl1bQ0BIXTVbT0hd

>  <s_epik_cmdline>  (61) 
J2VwaWtfcHl0aG9uJywgJy1waHQnLCAnMi4wJywgJy1waCcsICc3LjAnLCAnLXRuJywgJzgnLCAnLW1hJywgJzIwMCcsICctaW1hZScsICc8aW5maWxlLm1hZT4nLCAnLW9tYWUnLCAnPG91dGZpbGUubWFlPic=

>  <r_lp_tautomer_probability>  (61) 
1

>  <r_epik_Ionization_Penalty>  (61) 
4.96205e-07

>  <r_epik_Ionization_Penalty_Charging>  (61) 
0

>  <r_epik_Ionization_Penalty_Neutral>  (61) 
4.96205e-07

>  <r_epik_State_Penalty>  (61) 
-0

>  <r_epik_Charging_Adjusted_Penalty>  (61) 
0

>  <i_epik_Tot_Q>  (61) 
0

>  <i_epik_Tot_abs_Q>  (61) 
0

>  <s_lp_Force_Field>  (61) 
OPLS3e

>  <r_lp_Energy>  (61) 
511.019

>  <b_lp_Chiralities_Consistent>  (61) 
1

>  <s_lp_Variant>  (61) 
23:0-1

>  <s_i_glide_gridfile>  (61) 
pfpi4k_grid

>  <i_i_glide_lignum>  (61) 
27

>  <i_i_glide_rotatable_bonds>  (61) 
4

>  <r_i_docking_score>  (61) 
-3.16625

>  <r_i_glide_ligand_efficiency>  (61) 
-0.131927

>  <r_i_glide_ligand_efficiency_sa>  (61) 
-0.380544

>  <r_i_glide_ligand_efficiency_ln>  (61) 
-0.75783

>  <r_i_glide_gscore>  (61) 
-3.16625

>  <r_i_glide_lipo>  (61) 
-0.000263567

>  <r_i_glide_hbond>  (61) 
-0.16

>  <r_i_glide_metal>  (61) 
-0

>  <r_i_glide_rewards>  (61) 
-1.60156

>  <r_i_glide_evdw>  (61) 
-8.65842

>  <r_i_glide_ecoul>  (61) 
-6.37548

>  <r_i_glide_erotb>  (61) 
0

>  <r_i_glide_esite>  (61) 
-0.0151915

>  <r_i_glide_emodel>  (61) 
-20.6711

>  <r_i_glide_energy>  (61) 
-15.0339

>  <r_i_glide_einternal>  (61) 
5.06553

>  <r_i_glide_intrahb_reward>  (61) 
-0.5

>  <i_i_glide_confnum>  (61) 
1

>  <i_i_glide_posenum>  (61) 
8

>  <r_i_glide_eff_state_penalty>  (61) 
0

>  <ligand_id>  (61) 
23

>  <original_smiles>  (61) 
CC(C)C12OC3CC(O)C4(C)C5C1C(C)(O)CC3OC4(O)CC52C

>  <smiles>  (61) 
[H]OC1([H])C([H])([H])C2([H])OC3(C([H])(C([H])([H])[H])C([H])([H])[H])C4([H])C5([H])C1(C([H])([H])[H])C(O[H])(OC2([H])C([H])([H])C4(O[H])C([H])([H])[H])C([H])([H])C53C([H])([H])[H]

$$$$
23:0:1
     RDKit          3D

 54 58  0  0  1  0  0  0  0  0999 V2000
   -2.0667    4.2557    3.2648 C   0  0  0  0  0  0  0  0  0  0  0  0
   -2.1414    2.9032    4.0393 C   0  0  0  0  0  0  0  0  0  0  0  0
   -2.9093    3.0992    5.3780 C   0  0  0  0  0  0  0  0  0  0  0  0
   -0.7483    2.2267    4.2290 C   0  0  2  0  0  0  0  0  0  0  0  0
   -0.4393    1.6604    2.7238 O   0  0  0  0  0  0  0  0  0  0  0  0
    0.4597    0.4097    2.1660 C   0  0  1  0  0  0  0  0  0  0  0  0
    2.1652   -0.1038    2.0837 C   0  0  0  0  0  0  0  0  0  0  0  0
    3.1075    0.0656    3.5722 C   0  0  1  0  0  0  0  0  0  0  0  0
    4.4805    0.1539    3.2374 O   0  0  0  0  0  0  0  0  0  0  0  0
    2.5768    1.3817    4.6638 C   0  0  2  0  0  0  0  0  0  0  0  0
    3.8021    2.1863    5.1833 C   0  0  0  0  0  0  0  0  0  0  0  0
    1.1600    1.8025    5.6660 C   0  0  2  0  0  0  0  0  0  0  0  0
   -0.4338    1.3338    5.5577 C   0  0  2  0  0  0  0  0  0  0  0  0
   -0.8850   -0.1366    5.5249 C   0  0  1  0  0  0  0  0  0  0  0  0
    0.0335   -1.0420    6.3645 C   0  0  0  0  0  0  0  0  0  0  0  0
   -2.1799   -0.2369    6.0713 O   0  0  0  0  0  0  0  0  0  0  0  0
   -1.0252   -0.6384    4.0713 C   0  0  0  0  0  0  0  0  0  0  0  0
    0.2795   -0.4162    3.2808 C   0  0  2  0  0  0  0  0  0  0  0  0
    1.0541    0.6478    3.8323 O   0  0  0  0  0  0  0  0  0  0  0  0
    1.8733    1.9876    3.5826 C   0  0  2  0  0  0  0  0  0  0  0  0
    2.6307    2.3499    2.4365 O   0  0  0  0  0  0  0  0  0  0  0  0
    1.2970    3.3583    3.9348 C   0  0  0  0  0  0  0  0  0  0  0  0
    0.4360    3.0242    4.9786 C   0  0  1  0  0  0  0  0  0  0  0  0
    0.2064    4.2498    5.8976 C   0  0  0  0  0  0  0  0  0  0  0  0
   -1.4321    5.0021    3.7181 H   0  0  0  0  0  0  0  0  0  0  0  0
   -3.0691    4.6731    3.1581 H   0  0  0  0  0  0  0  0  0  0  0  0
   -1.7175    4.1063    2.2330 H   0  0  0  0  0  0  0  0  0  0  0  0
   -2.7156    2.2304    3.4298 H   0  0  0  0  0  0  0  0  0  0  0  0
   -2.4553    3.8034    6.0499 H   0  0  0  0  0  0  0  0  0  0  0  0
   -2.9757    2.1481    5.9197 H   0  0  0  0  0  0  0  0  0  0  0  0
   -3.9680    3.3334    5.1946 H   0  0  0  0  0  0  0  0  0  0  0  0
   -0.0542   -0.0031    1.2980 H   0  0  0  0  0  0  0  0  0  0  0  0
    2.2340   -1.1573    1.7908 H   0  0  0  0  0  0  0  0  0  0  0  0
    2.6494    0.3791    1.2220 H   0  0  0  0  0  0  0  0  0  0  0  0
    3.0254   -0.8757    4.1336 H   0  0  0  0  0  0  0  0  0  0  0  0
    4.5788    1.0283    2.8829 H   0  0  0  0  0  0  0  0  0  0  0  0
    3.4912    3.0448    5.7755 H   0  0  0  0  0  0  0  0  0  0  0  0
    4.4338    2.5481    4.3771 H   0  0  0  0  0  0  0  0  0  0  0  0
    4.4135    1.5555    5.8330 H   0  0  0  0  0  0  0  0  0  0  0  0
    1.3953    2.0096    6.7142 H   0  0  0  0  0  0  0  0  0  0  0  0
   -0.8704    1.7661    6.4654 H   0  0  0  0  0  0  0  0  0  0  0  0
    1.0528   -1.0312    5.9695 H   0  0  0  0  0  0  0  0  0  0  0  0
   -0.3109   -2.0753    6.3856 H   0  0  0  0  0  0  0  0  0  0  0  0
    0.0784   -0.6603    7.3827 H   0  0  0  0  0  0  0  0  0  0  0  0
   -2.7678    0.1982    5.4741 H   0  0  0  0  0  0  0  0  0  0  0  0
   -1.2638   -1.7035    4.0874 H   0  0  0  0  0  0  0  0  0  0  0  0
   -1.8437   -0.1410    3.5583 H   0  0  0  0  0  0  0  0  0  0  0  0
    0.7909   -1.3866    3.2805 H   0  0  0  0  0  0  0  0  0  0  0  0
    2.0415    2.7391    1.8034 H   0  0  0  0  0  0  0  0  0  0  0  0
    2.1152    4.0200    4.2542 H   0  0  0  0  0  0  0  0  0  0  0  0
    0.7978    3.8055    3.0670 H   0  0  0  0  0  0  0  0  0  0  0  0
    1.1765    4.5841    6.3269 H   0  0  0  0  0  0  0  0  0  0  0  0
   -0.4487    4.0070    6.7349 H   0  0  0  0  0  0  0  0  0  0  0  0
   -0.1963    5.1047    5.3722 H   0  0  0  0  0  0  0  0  0  0  0  0
  1  2  1  0
  1 25  1  0
  1 26  1  0
  1 27  1  0
  2  3  1  0
  4  2  1  6
  2 28  1  0
  3 29  1  0
  3 30  1  0
  3 31  1  0
  4 13  1  0
  4 23  1  0
  4  5  1  0
  5  6  1  0
  6 18  1  0
  6  7  1  0
  6 32  1  6
  7  8  1  0
  7 33  1  0
  7 34  1  0
  8  9  1  0
  8 10  1  0
  8 35  1  1
  9 36  1  0
 10 20  1  0
 10 11  1  1
 10 12  1  0
 11 37  1  0
 11 38  1  0
 11 39  1  0
 12 23  1  0
 12 13  1  0
 12 40  1  1
 13 14  1  0
 13 41  1  1
 14 15  1  0
 14 16  1  1
 14 17  1  0
 15 42  1  0
 15 43  1  0
 15 44  1  0
 16 45  1  0
 17 18  1  0
 17 46  1  0
 17 47  1  0
 18 19  1  0
 18 48  1  6
 19 20  1  0
 20 21  1  6
 20 22  1  0
 21 49  1  0
 22 23  1  0
 22 50  1  0
 22 51  1  0
 23 24  1  1
 24 52  1  0
 24 53  1  0
 24 54  1  0
M  END
>  <i_m_ct_stereo_status>  (62) 
1

>  <s_m_source_file>  (62) 
/var/tmp/pbs.5076255.sched01/tmp0du1nuht/0914ajmtz.sdf

>  <i_m_source_file_index>  (62) 
27

>  <i_lp_mmshare_version>  (62) 
48012

>  <i_f3d_flags>  (62) 
0

>  <s_epik_input>  (62) 
W0NIM11bQ0hdKFtDSDNdKVtDQEBdMTJbQ0BASF0zW0NASF00W0NAXTUoW0NIM10pW0NAXShbT0hdKShbQ0gyXVtDQEBdMjRbQ0gzXSlPW0NAQEhdKFtDSDJdW0NAXTMoW0NIM10pW09IXSlbQ0BASF0oTzEpW0NIMl1bQ0BIXTVbT0hd

>  <s_epik_cmdline>  (62) 
J2VwaWtfcHl0aG9uJywgJy1waHQnLCAnMi4wJywgJy1waCcsICc3LjAnLCAnLXRuJywgJzgnLCAnLW1hJywgJzIwMCcsICctaW1hZScsICc8aW5maWxlLm1hZT4nLCAnLW9tYWUnLCAnPG91dGZpbGUubWFlPic=

>  <r_lp_tautomer_probability>  (62) 
1

>  <r_epik_Ionization_Penalty>  (62) 
4.96205e-07

>  <r_epik_Ionization_Penalty_Charging>  (62) 
0

>  <r_epik_Ionization_Penalty_Neutral>  (62) 
4.96205e-07

>  <r_epik_State_Penalty>  (62) 
-0

>  <r_epik_Charging_Adjusted_Penalty>  (62) 
0

>  <i_epik_Tot_Q>  (62) 
0

>  <i_epik_Tot_abs_Q>  (62) 
0

>  <s_lp_Force_Field>  (62) 
OPLS3e

>  <r_lp_Energy>  (62) 
511.019

>  <b_lp_Chiralities_Consistent>  (62) 
1

>  <s_lp_Variant>  (62) 
23:0-1

>  <s_i_glide_gridfile>  (62) 
pfpi4k_grid

>  <i_i_glide_lignum>  (62) 
27

>  <i_i_glide_rotatable_bonds>  (62) 
4

>  <r_i_docking_score>  (62) 
-2.83032

>  <r_i_glide_ligand_efficiency>  (62) 
-0.11793

>  <r_i_glide_ligand_efficiency_sa>  (62) 
-0.340169

>  <r_i_glide_ligand_efficiency_ln>  (62) 
-0.677425

>  <r_i_glide_gscore>  (62) 
-2.83032

>  <r_i_glide_lipo>  (62) 
0

>  <r_i_glide_hbond>  (62) 
-0.148915

>  <r_i_glide_metal>  (62) 
-0

>  <r_i_glide_rewards>  (62) 
-1.10156

>  <r_i_glide_evdw>  (62) 
-15.73

>  <r_i_glide_ecoul>  (62) 
-5.17936

>  <r_i_glide_erotb>  (62) 
0

>  <r_i_glide_esite>  (62) 
-0.0164394

>  <r_i_glide_emodel>  (62) 
-21.2251

>  <r_i_glide_energy>  (62) 
-20.9094

>  <r_i_glide_einternal>  (62) 
5.08967

>  <r_i_glide_intrahb_reward>  (62) 
-0

>  <i_i_glide_confnum>  (62) 
2

>  <i_i_glide_posenum>  (62) 
22

>  <r_i_glide_eff_state_penalty>  (62) 
0

>  <ligand_id>  (62) 
23

>  <original_smiles>  (62) 
CC(C)C12OC3CC(O)C4(C)C5C1C(C)(O)CC3OC4(O)CC52C

>  <smiles>  (62) 
[H]OC1([H])C([H])([H])C2([H])OC3(C([H])(C([H])([H])[H])C([H])([H])[H])C4([H])C5([H])C1(C([H])([H])[H])C(O[H])(OC2([H])C([H])([H])C4(O[H])C([H])([H])[H])C([H])([H])C53C([H])([H])[H]

$$$$
23:0:2
     RDKit          3D

 54 58  0  0  1  0  0  0  0  0999 V2000
   -2.5854    3.1958    2.9461 C   0  0  0  0  0  0  0  0  0  0  0  0
   -2.3361    2.4469    4.2824 C   0  0  0  0  0  0  0  0  0  0  0  0
   -3.0994    3.1534    5.4309 C   0  0  0  0  0  0  0  0  0  0  0  0
   -0.8313    2.1464    4.5763 C   0  0  2  0  0  0  0  0  0  0  0  0
   -0.5115    0.8807    3.5945 O   0  0  0  0  0  0  0  0  0  0  0  0
    0.5931   -0.3300    3.6710 C   0  0  1  0  0  0  0  0  0  0  0  0
    2.3626   -0.5848    3.6330 C   0  0  0  0  0  0  0  0  0  0  0  0
    3.3277    0.5109    4.6360 C   0  0  1  0  0  0  0  0  0  0  0  0
    4.6609    0.5664    4.1109 O   0  0  0  0  0  0  0  0  0  0  0  0
    2.6112    2.1249    4.8937 C   0  0  2  0  0  0  0  0  0  0  0  0
    3.6735    3.2453    4.7231 C   0  0  0  0  0  0  0  0  0  0  0  0
    1.1836    2.8501    5.7092 C   0  0  2  0  0  0  0  0  0  0  0  0
   -0.2976    2.1972    6.1065 C   0  0  2  0  0  0  0  0  0  0  0  0
   -0.4439    0.9075    6.9389 C   0  0  1  0  0  0  0  0  0  0  0  0
    0.6688    0.7679    7.9978 C   0  0  0  0  0  0  0  0  0  0  0  0
   -1.6542    0.9473    7.6765 O   0  0  0  0  0  0  0  0  0  0  0  0
   -0.5779   -0.3319    6.0222 C   0  0  0  0  0  0  0  0  0  0  0  0
    0.6289   -0.4048    5.0684 C   0  0  2  0  0  0  0  0  0  0  0  0
    1.2215    0.8768    4.8085 O   0  0  0  0  0  0  0  0  0  0  0  0
    1.7739    1.9399    3.7551 C   0  0  2  0  0  0  0  0  0  0  0  0
    2.5387    1.7061    2.5224 O   0  0  0  0  0  0  0  0  0  0  0  0
    0.9527    3.1652    3.3853 C   0  0  0  0  0  0  0  0  0  0  0  0
    0.2144    3.3712    4.5733 C   0  0  1  0  0  0  0  0  0  0  0  0
   -0.1960    4.8533    4.7229 C   0  0  0  0  0  0  0  0  0  0  0  0
   -2.1498    4.1741    2.8624 H   0  0  0  0  0  0  0  0  0  0  0  0
   -3.6663    3.2938    2.7689 H   0  0  0  0  0  0  0  0  0  0  0  0
   -2.2132    2.5822    2.1218 H   0  0  0  0  0  0  0  0  0  0  0  0
   -2.7741    1.4728    4.1611 H   0  0  0  0  0  0  0  0  0  0  0  0
   -2.7073    4.1297    5.6379 H   0  0  0  0  0  0  0  0  0  0  0  0
   -3.0657    2.5399    6.3404 H   0  0  0  0  0  0  0  0  0  0  0  0
   -4.1695    3.2311    5.1920 H   0  0  0  0  0  0  0  0  0  0  0  0
    0.1284   -1.2304    3.2672 H   0  0  0  0  0  0  0  0  0  0  0  0
    2.6138   -1.6094    3.9572 H   0  0  0  0  0  0  0  0  0  0  0  0
    2.6916   -0.6143    2.5821 H   0  0  0  0  0  0  0  0  0  0  0  0
    3.4521    0.0509    5.6270 H   0  0  0  0  0  0  0  0  0  0  0  0
    4.6047    1.0793    3.3179 H   0  0  0  0  0  0  0  0  0  0  0  0
    3.2357    4.2360    4.7932 H   0  0  0  0  0  0  0  0  0  0  0  0
    4.1879    3.1848    3.7702 H   0  0  0  0  0  0  0  0  0  0  0  0
    4.4230    3.1650    5.5087 H   0  0  0  0  0  0  0  0  0  0  0  0
    1.4427    3.6350    6.4333 H   0  0  0  0  0  0  0  0  0  0  0  0
   -0.7704    2.9988    6.6972 H   0  0  0  0  0  0  0  0  0  0  0  0
    1.6490    0.6911    7.5217 H   0  0  0  0  0  0  0  0  0  0  0  0
    0.5333   -0.1066    8.6371 H   0  0  0  0  0  0  0  0  0  0  0  0
    0.6929    1.6535    8.6327 H   0  0  0  0  0  0  0  0  0  0  0  0
   -1.6288    1.7398    8.1998 H   0  0  0  0  0  0  0  0  0  0  0  0
   -0.6039   -1.2437    6.6277 H   0  0  0  0  0  0  0  0  0  0  0  0
   -1.5157   -0.3245    5.4740 H   0  0  0  0  0  0  0  0  0  0  0  0
    1.3102   -1.1339    5.5269 H   0  0  0  0  0  0  0  0  0  0  0  0
    3.2100    2.3623    2.4357 H   0  0  0  0  0  0  0  0  0  0  0  0
    1.6289    4.0072    3.1819 H   0  0  0  0  0  0  0  0  0  0  0  0
    0.3248    2.9650    2.5144 H   0  0  0  0  0  0  0  0  0  0  0  0
    0.6975    5.4919    4.8316 H   0  0  0  0  0  0  0  0  0  0  0  0
   -0.7985    5.0403    5.6096 H   0  0  0  0  0  0  0  0  0  0  0  0
   -0.7224    5.2308    3.8583 H   0  0  0  0  0  0  0  0  0  0  0  0
  1  2  1  0
  1 25  1  0
  1 26  1  0
  1 27  1  0
  2  3  1  0
  4  2  1  1
  2 28  1  0
  3 29  1  0
  3 30  1  0
  3 31  1  0
  4 13  1  0
  4 23  1  0
  4  5  1  0
  5  6  1  0
  6 18  1  0
  6  7  1  0
  6 32  1  6
  7  8  1  0
  7 33  1  0
  7 34  1  0
  8  9  1  0
  8 10  1  0
  8 35  1  1
  9 36  1  0
 10 20  1  0
 10 11  1  6
 10 12  1  0
 11 37  1  0
 11 38  1  0
 11 39  1  0
 12 23  1  0
 12 13  1  0
 12 40  1  1
 13 14  1  0
 13 41  1  1
 14 15  1  0
 14 16  1  1
 14 17  1  0
 15 42  1  0
 15 43  1  0
 15 44  1  0
 16 45  1  0
 17 18  1  0
 17 46  1  0
 17 47  1  0
 18 19  1  0
 18 48  1  6
 19 20  1  0
 20 21  1  6
 20 22  1  0
 21 49  1  0
 22 23  1  0
 22 50  1  0
 22 51  1  0
 23 24  1  1
 24 52  1  0
 24 53  1  0
 24 54  1  0
M  END
>  <i_m_ct_stereo_status>  (63) 
1

>  <s_m_source_file>  (63) 
/var/tmp/pbs.5076255.sched01/tmp0du1nuht/0914ajmtz.sdf

>  <i_m_source_file_index>  (63) 
27

>  <i_lp_mmshare_version>  (63) 
48012

>  <i_f3d_flags>  (63) 
0

>  <s_epik_input>  (63) 
W0NIM11bQ0hdKFtDSDNdKVtDQEBdMTJbQ0BASF0zW0NASF00W0NAXTUoW0NIM10pW0NAXShbT0hdKShbQ0gyXVtDQEBdMjRbQ0gzXSlPW0NAQEhdKFtDSDJdW0NAXTMoW0NIM10pW09IXSlbQ0BASF0oTzEpW0NIMl1bQ0BIXTVbT0hd

>  <s_epik_cmdline>  (63) 
J2VwaWtfcHl0aG9uJywgJy1waHQnLCAnMi4wJywgJy1waCcsICc3LjAnLCAnLXRuJywgJzgnLCAnLW1hJywgJzIwMCcsICctaW1hZScsICc8aW5maWxlLm1hZT4nLCAnLW9tYWUnLCAnPG91dGZpbGUubWFlPic=

>  <r_lp_tautomer_probability>  (63) 
1

>  <r_epik_Ionization_Penalty>  (63) 
4.96205e-07

>  <r_epik_Ionization_Penalty_Charging>  (63) 
0

>  <r_epik_Ionization_Penalty_Neutral>  (63) 
4.96205e-07

>  <r_epik_State_Penalty>  (63) 
-0

>  <r_epik_Charging_Adjusted_Penalty>  (63) 
0

>  <i_epik_Tot_Q>  (63) 
0

>  <i_epik_Tot_abs_Q>  (63) 
0

>  <s_lp_Force_Field>  (63) 
OPLS3e

>  <r_lp_Energy>  (63) 
511.019

>  <b_lp_Chiralities_Consistent>  (63) 
1

>  <s_lp_Variant>  (63) 
23:0-1

>  <s_i_glide_gridfile>  (63) 
pfpi4k_grid

>  <i_i_glide_lignum>  (63) 
27

>  <i_i_glide_rotatable_bonds>  (63) 
4

>  <r_i_docking_score>  (63) 
-2.78655

>  <r_i_glide_ligand_efficiency>  (63) 
-0.116106

>  <r_i_glide_ligand_efficiency_sa>  (63) 
-0.334908

>  <r_i_glide_ligand_efficiency_ln>  (63) 
-0.666949

>  <r_i_glide_gscore>  (63) 
-2.78655

>  <r_i_glide_lipo>  (63) 
-0.00123784

>  <r_i_glide_hbond>  (63) 
-0.133236

>  <r_i_glide_metal>  (63) 
-0

>  <r_i_glide_rewards>  (63) 
-1.10156

>  <r_i_glide_evdw>  (63) 
-12.3716

>  <r_i_glide_ecoul>  (63) 
-6.11558

>  <r_i_glide_erotb>  (63) 
0

>  <r_i_glide_esite>  (63) 
-0.0146008

>  <r_i_glide_emodel>  (63) 
-18.0712

>  <r_i_glide_energy>  (63) 
-18.4872

>  <r_i_glide_einternal>  (63) 
6.12297

>  <r_i_glide_intrahb_reward>  (63) 
-0

>  <i_i_glide_confnum>  (63) 
2

>  <i_i_glide_posenum>  (63) 
14

>  <r_i_glide_eff_state_penalty>  (63) 
0

>  <ligand_id>  (63) 
23

>  <original_smiles>  (63) 
CC(C)C12OC3CC(O)C4(C)C5C1C(C)(O)CC3OC4(O)CC52C

>  <smiles>  (63) 
[H]OC1([H])C([H])([H])C2([H])OC3(C([H])(C([H])([H])[H])C([H])([H])[H])C4([H])C5([H])C1(C([H])([H])[H])C(O[H])(OC2([H])C([H])([H])C4(O[H])C([H])([H])[H])C([H])([H])C53C([H])([H])[H]

$$$$
24:0:0
     RDKit          3D

 62 67  0  0  1  0  0  0  0  0999 V2000
    3.7623   -0.7411    2.5798 C   0  0  0  0  0  0  0  0  0  0  0  0
    4.6828   -1.9400    2.2843 C   0  0  2  0  0  0  0  0  0  0  0  0
    5.9832   -1.4440    1.8605 O   0  0  0  0  0  0  0  0  0  0  0  0
    6.7893   -1.9835    0.8343 C   0  0  0  0  0  0  0  0  0  0  0  0
    7.7978   -1.4491    0.4126 O   0  0  0  0  0  0  0  0  0  0  0  0
    6.3789   -3.3554    0.1996 C   0  0  2  0  0  0  0  0  0  0  0  0
    6.1397   -3.1614   -1.3391 C   0  0  0  0  0  0  0  0  0  0  0  0
    5.1165   -2.1050   -1.8529 C   0  0  2  0  0  0  0  0  0  0  0  0
    3.5815   -2.0979   -1.7527 C   0  0  2  0  0  0  0  0  0  0  0  0
    2.7224   -3.1062   -0.9669 C   0  0  0  0  0  0  0  0  0  0  0  0
    2.7375   -2.9358    0.6049 C   0  0  0  0  0  0  0  0  0  0  0  0
    4.1663   -2.8638    1.1711 C   0  0  2  0  0  0  0  0  0  0  0  0
    5.1389   -4.0549    0.9661 C   0  0  1  0  0  0  0  0  0  0  0  0
    4.4148   -5.4088    0.2854 C   0  0  0  0  0  0  0  0  0  0  0  0
    4.8676   -6.8424    0.8676 C   0  0  0  0  0  0  0  0  0  0  0  0
    5.7817   -6.8852    2.1762 C   0  0  1  0  0  0  0  0  0  0  0  0
    7.2912   -6.5045    1.8802 C   0  0  0  0  0  0  0  0  0  0  0  0
    7.3176   -4.9690    1.8416 N   0  0  1  0  0  0  0  0  0  0  0  0
    7.6354   -4.2844    0.5116 C   0  0  0  0  0  0  0  0  0  0  0  0
    5.9385   -4.5125    2.2670 C   0  0  1  0  0  0  0  0  0  0  0  0
    5.3713   -5.6906    3.1125 C   0  0  0  0  0  0  0  0  0  0  0  0
    3.8588   -5.6085    3.4297 C   0  0  0  0  0  0  0  0  0  0  0  0
    6.0638   -5.7771    4.4992 C   0  0  0  0  0  0  0  0  0  0  0  0
    4.2482   -2.3455   -3.0882 C   0  0  0  0  0  0  0  0  0  0  0  0
    4.1478   -1.2638   -4.1306 C   0  0  0  0  0  0  0  0  0  0  0  0
    4.1997   -3.6962   -3.7599 C   0  0  0  0  0  0  0  0  0  0  0  0
    2.7834   -1.0677    2.9368 H   0  0  0  0  0  0  0  0  0  0  0  0
    3.6017   -0.1160    1.7005 H   0  0  0  0  0  0  0  0  0  0  0  0
    4.1917   -0.1095    3.3561 H   0  0  0  0  0  0  0  0  0  0  0  0
    4.7965   -2.5042    3.2134 H   0  0  0  0  0  0  0  0  0  0  0  0
    7.0890   -2.8846   -1.7964 H   0  0  0  0  0  0  0  0  0  0  0  0
    5.9214   -4.1260   -1.7708 H   0  0  0  0  0  0  0  0  0  0  0  0
    5.5300   -1.1004   -1.7906 H   0  0  0  0  0  0  0  0  0  0  0  0
    3.1639   -1.0990   -1.6636 H   0  0  0  0  0  0  0  0  0  0  0  0
    1.6997   -2.9932   -1.3218 H   0  0  0  0  0  0  0  0  0  0  0  0
    2.9560   -4.1100   -1.2933 H   0  0  0  0  0  0  0  0  0  0  0  0
    2.2156   -2.0121    0.8485 H   0  0  0  0  0  0  0  0  0  0  0  0
    2.1743   -3.7227    1.1005 H   0  0  0  0  0  0  0  0  0  0  0  0
    4.3796   -2.1109    0.4451 H   0  0  0  0  0  0  0  0  0  0  0  0
    3.3283   -5.3770    0.4020 H   0  0  0  0  0  0  0  0  0  0  0  0
    4.5979   -5.4342   -0.7848 H   0  0  0  0  0  0  0  0  0  0  0  0
    3.9606   -7.4286    1.0526 H   0  0  0  0  0  0  0  0  0  0  0  0
    5.3940   -7.3866    0.0826 H   0  0  0  0  0  0  0  0  0  0  0  0
    5.7150   -7.8520    2.6733 H   0  0  0  0  0  0  0  0  0  0  0  0
    7.9382   -6.8459    2.6894 H   0  0  0  0  0  0  0  0  0  0  0  0
    7.6756   -6.9647    0.9727 H   0  0  0  0  0  0  0  0  0  0  0  0
    7.7212   -5.0447   -0.2519 H   0  0  0  0  0  0  0  0  0  0  0  0
    8.6074   -3.7877    0.5642 H   0  0  0  0  0  0  0  0  0  0  0  0
    5.9630   -4.9997    1.4338 H   0  0  0  0  0  0  0  0  0  0  0  0
    3.6385   -4.7360    4.0439 H   0  0  0  0  0  0  0  0  0  0  0  0
    3.5463   -6.4890    3.9902 H   0  0  0  0  0  0  0  0  0  0  0  0
    3.2119   -5.5524    2.5607 H   0  0  0  0  0  0  0  0  0  0  0  0
    5.7422   -4.9686    5.1503 H   0  0  0  0  0  0  0  0  0  0  0  0
    7.1511   -5.7354    4.4655 H   0  0  0  0  0  0  0  0  0  0  0  0
    5.8006   -6.7094    4.9996 H   0  0  0  0  0  0  0  0  0  0  0  0
    3.2229   -1.3592   -4.7031 H   0  0  0  0  0  0  0  0  0  0  0  0
    4.9988   -1.3400   -4.7924 H   0  0  0  0  0  0  0  0  0  0  0  0
    4.1915   -0.2772   -3.6722 H   0  0  0  0  0  0  0  0  0  0  0  0
    3.2379   -3.8321   -4.2597 H   0  0  0  0  0  0  0  0  0  0  0  0
    4.2904   -4.4671   -3.0075 H   0  0  0  0  0  0  0  0  0  0  0  0
    5.0170   -3.8307   -4.4721 H   0  0  0  0  0  0  0  0  0  0  0  0
    7.9973   -4.6652    2.5406 H   0  0  0  0  0  0  0  0  0  0  0  0
  1  2  1  0
  1 27  1  0
  1 28  1  0
  1 29  1  0
  2 12  1  0
  2  3  1  0
  2 30  1  1
  3  4  1  0
  4  5  2  0
  4  6  1  0
  6 13  1  0
  6 19  1  6
  6  7  1  0
  7  8  1  0
  7 31  1  0
  7 32  1  0
  8 24  1  0
  8  9  1  0
  8 33  1  6
  9 10  1  0
  9 24  1  0
  9 34  1  6
 10 11  1  0
 10 35  1  0
 10 36  1  0
 11 12  1  0
 11 37  1  0
 11 38  1  0
 12 13  1  0
 12 39  1  6
 13 20  1  0
 13 14  1  6
 14 15  1  0
 14 40  1  0
 14 41  1  0
 15 16  1  0
 15 42  1  0
 15 43  1  0
 16 21  1  0
 16 17  1  0
 16 44  1  1
 17 18  1  0
 17 45  1  0
 17 46  1  0
 18 19  1  0
 18 20  1  0
 18 62  1  1
 19 47  1  0
 19 48  1  0
 20 21  1  0
 20 49  1  1
 21 22  1  0
 21 23  1  0
 22 50  1  0
 22 51  1  0
 22 52  1  0
 23 53  1  0
 23 54  1  0
 23 55  1  0
 24 25  1  0
 24 26  1  0
 25 56  1  0
 25 57  1  0
 25 58  1  0
 26 59  1  0
 26 60  1  0
 26 61  1  0
M  CHG  1  18   1
M  END
>  <i_m_ct_stereo_status>  (64) 
1

>  <s_m_source_file>  (64) 
/var/tmp/pbs.5076255.sched01/tmp0du1nuht/0914ajmtz.sdf

>  <i_m_source_file_index>  (64) 
28

>  <i_lp_mmshare_version>  (64) 
48012

>  <i_f3d_flags>  (64) 
0

>  <s_epik_input>  (64) 
W0NIM11DMShbQ0gzXSlbQ0BIXShbQ0gyXTIpW0NAQEhdMVtDSDJdW0NIMl1bQ0BASF0oW0NASF0oW0NIM10pT0MzPU8pW0NAQF00KFtDQEBdMjM1KVtDQEhdNk4oW0NIMl01KVtDSDJdW0NASF0oW0NIMl1bQ0gyXTQpQzYoW0NIM10pW0NIM10=

>  <s_epik_cmdline>  (64) 
J2VwaWtfcHl0aG9uJywgJy1waHQnLCAnMi4wJywgJy1waCcsICc3LjAnLCAnLXRuJywgJzgnLCAnLW1hJywgJzIwMCcsICctaW1hZScsICc8aW5maWxlLm1hZT4nLCAnLW9tYWUnLCAnPG91dGZpbGUubWFlPic=

>  <r_epik_Ionization_Penalty>  (64) 
0.000658192

>  <r_epik_Ionization_Penalty_Charging>  (64) 
0.000658192

>  <r_epik_Ionization_Penalty_Neutral>  (64) 
0

>  <r_epik_State_Penalty>  (64) 
0.000417138

>  <r_epik_Charging_Adjusted_Penalty>  (64) 
0.00107533

>  <i_epik_Tot_Q>  (64) 
1

>  <i_epik_Tot_abs_Q>  (64) 
1

>  <s_epik_Chemistry_Notes>  (64) 
This compound has an ester and may undergo hydrolysis at high or low pH.

>  <s_lp_Force_Field>  (64) 
OPLS3e

>  <r_lp_Energy>  (64) 
242.227

>  <b_lp_Chiralities_Consistent>  (64) 
1

>  <s_lp_Variant>  (64) 
24:0-1

>  <s_i_glide_gridfile>  (64) 
pfpi4k_grid

>  <i_i_glide_lignum>  (64) 
28

>  <i_i_glide_rotatable_bonds>  (64) 
0

>  <r_i_docking_score>  (64) 
-3.63069

>  <r_i_glide_ligand_efficiency>  (64) 
-0.139642

>  <r_i_glide_ligand_efficiency_sa>  (64) 
-0.413688

>  <r_i_glide_ligand_efficiency_ln>  (64) 
-0.852655

>  <r_i_glide_gscore>  (64) 
-3.63069

>  <r_i_glide_lipo>  (64) 
-0.847533

>  <r_i_glide_hbond>  (64) 
-0.038242

>  <r_i_glide_metal>  (64) 
-0

>  <r_i_glide_rewards>  (64) 
-1.0187

>  <r_i_glide_evdw>  (64) 
-27.631

>  <r_i_glide_ecoul>  (64) 
-2.29771

>  <r_i_glide_erotb>  (64) 
0

>  <r_i_glide_esite>  (64) 
0

>  <r_i_glide_emodel>  (64) 
-36.8212

>  <r_i_glide_energy>  (64) 
-29.9288

>  <r_i_glide_einternal>  (64) 
0

>  <r_i_glide_intrahb_reward>  (64) 
-0

>  <i_i_glide_confnum>  (64) 
1

>  <i_i_glide_posenum>  (64) 
32

>  <r_i_glide_eff_state_penalty>  (64) 
0

>  <ligand_id>  (64) 
24

>  <original_smiles>  (64) 
CC1OC(=O)C23CC4C(CCC1C21CCC2CN(C3)C1C2(C)C)C4(C)C

>  <smiles>  (64) 
[H]C([H])([H])C1([H])OC(=O)C23C([H])([H])C4([H])C([H])(C([H])([H])C([H])([H])C1([H])C21C([H])([H])C([H])([H])C2([H])C(C([H])([H])[H])(C([H])([H])[H])C1([H])[N+]([H])(C2([H])[H])C3([H])[H])C4(C([H])([H])[H])C([H])([H])[H]

$$$$
24:0:1
     RDKit          3D

 62 67  0  0  1  0  0  0  0  0999 V2000
    5.4061   -4.6175    5.3991 C   0  0  0  0  0  0  0  0  0  0  0  0
    4.9333   -5.7311    4.4487 C   0  0  2  0  0  0  0  0  0  0  0  0
    6.0920   -6.2755    3.7656 O   0  0  0  0  0  0  0  0  0  0  0  0
    6.1560   -6.6780    2.4271 C   0  0  0  0  0  0  0  0  0  0  0  0
    7.2135   -7.0132    1.8967 O   0  0  0  0  0  0  0  0  0  0  0  0
    4.8215   -6.7223    1.5879 C   0  0  2  0  0  0  0  0  0  0  0  0
    4.8931   -5.7255    0.3612 C   0  0  0  0  0  0  0  0  0  0  0  0
    5.2239   -4.2181    0.5810 C   0  0  2  0  0  0  0  0  0  0  0  0
    4.3923   -3.0978    1.2396 C   0  0  2  0  0  0  0  0  0  0  0  0
    3.0452   -3.2669    1.9755 C   0  0  0  0  0  0  0  0  0  0  0  0
    3.1124   -3.9551    3.3895 C   0  0  0  0  0  0  0  0  0  0  0  0
    3.9406   -5.2664    3.3776 C   0  0  2  0  0  0  0  0  0  0  0  0
    3.5101   -6.4822    2.5049 C   0  0  1  0  0  0  0  0  0  0  0  0
    2.0214   -6.2579    1.7536 C   0  0  0  0  0  0  0  0  0  0  0  0
    1.0459   -7.5472    1.6760 C   0  0  0  0  0  0  0  0  0  0  0  0
    1.4452   -8.8557    2.5142 C   0  0  1  0  0  0  0  0  0  0  0  0
    2.6276   -9.6728    1.8293 C   0  0  0  0  0  0  0  0  0  0  0  0
    3.9181   -8.9513    2.2408 N   0  0  1  0  0  0  0  0  0  0  0  0
    4.7057   -8.2524    1.1310 C   0  0  0  0  0  0  0  0  0  0  0  0
    3.5113   -7.9009    3.2388 C   0  0  1  0  0  0  0  0  0  0  0  0
    2.1640   -8.4176    3.8398 C   0  0  0  0  0  0  0  0  0  0  0  0
    1.3748   -7.3912    4.6935 C   0  0  0  0  0  0  0  0  0  0  0  0
    2.4044   -9.6210    4.7917 C   0  0  0  0  0  0  0  0  0  0  0  0
    4.5857   -3.1145   -0.2671 C   0  0  0  0  0  0  0  0  0  0  0  0
    5.4967   -2.0691   -0.8893 C   0  0  0  0  0  0  0  0  0  0  0  0
    3.4146   -3.3909   -1.1945 C   0  0  0  0  0  0  0  0  0  0  0  0
    4.5738   -4.2109    5.9759 H   0  0  0  0  0  0  0  0  0  0  0  0
    5.8760   -3.7920    4.8640 H   0  0  0  0  0  0  0  0  0  0  0  0
    6.1324   -5.0033    6.1135 H   0  0  0  0  0  0  0  0  0  0  0  0
    4.4891   -6.5152    5.0617 H   0  0  0  0  0  0  0  0  0  0  0  0
    5.6780   -6.0888   -0.3006 H   0  0  0  0  0  0  0  0  0  0  0  0
    3.9977   -5.8272   -0.2399 H   0  0  0  0  0  0  0  0  0  0  0  0
    6.2930   -4.0940    0.7500 H   0  0  0  0  0  0  0  0  0  0  0  0
    4.9959   -2.3469    1.7453 H   0  0  0  0  0  0  0  0  0  0  0  0
    2.6331   -2.2663    2.1137 H   0  0  0  0  0  0  0  0  0  0  0  0
    2.3325   -3.7529    1.3219 H   0  0  0  0  0  0  0  0  0  0  0  0
    3.5762   -3.2413    4.0677 H   0  0  0  0  0  0  0  0  0  0  0  0
    2.1156   -4.1247    3.7976 H   0  0  0  0  0  0  0  0  0  0  0  0
    4.7181   -4.7396    2.8691 H   0  0  0  0  0  0  0  0  0  0  0  0
    1.4373   -5.5095    2.2807 H   0  0  0  0  0  0  0  0  0  0  0  0
    2.1333   -5.8698    0.7435 H   0  0  0  0  0  0  0  0  0  0  0  0
    0.0490   -7.2332    1.9926 H   0  0  0  0  0  0  0  0  0  0  0  0
    0.9212   -7.8444    0.6323 H   0  0  0  0  0  0  0  0  0  0  0  0
    0.5716   -9.4857    2.6870 H   0  0  0  0  0  0  0  0  0  0  0  0
    2.6453  -10.6956    2.2116 H   0  0  0  0  0  0  0  0  0  0  0  0
    2.4942   -9.7605    0.7493 H   0  0  0  0  0  0  0  0  0  0  0  0
    4.1528   -8.3032    0.1931 H   0  0  0  0  0  0  0  0  0  0  0  0
    5.6572   -8.7597    0.9489 H   0  0  0  0  0  0  0  0  0  0  0  0
    3.1487   -7.7587    2.3544 H   0  0  0  0  0  0  0  0  0  0  0  0
    1.9483   -7.0988    5.5727 H   0  0  0  0  0  0  0  0  0  0  0  0
    0.4409   -7.8299    5.0484 H   0  0  0  0  0  0  0  0  0  0  0  0
    1.1096   -6.4765    4.1755 H   0  0  0  0  0  0  0  0  0  0  0  0
    2.8711   -9.3025    5.7226 H   0  0  0  0  0  0  0  0  0  0  0  0
    3.0475  -10.3977    4.3809 H   0  0  0  0  0  0  0  0  0  0  0  0
    1.4631  -10.1047    5.0618 H   0  0  0  0  0  0  0  0  0  0  0  0
    4.9524   -1.1409   -1.0651 H   0  0  0  0  0  0  0  0  0  0  0  0
    5.8999   -2.4246   -1.8375 H   0  0  0  0  0  0  0  0  0  0  0  0
    6.3343   -1.8469   -0.2270 H   0  0  0  0  0  0  0  0  0  0  0  0
    2.8546   -2.4732   -1.3828 H   0  0  0  0  0  0  0  0  0  0  0  0
    2.7275   -4.1212   -0.7717 H   0  0  0  0  0  0  0  0  0  0  0  0
    3.7746   -3.7879   -2.1443 H   0  0  0  0  0  0  0  0  0  0  0  0
    4.5133   -9.6358    2.6879 H   0  0  0  0  0  0  0  0  0  0  0  0
  1  2  1  0
  1 27  1  0
  1 28  1  0
  1 29  1  0
  2 12  1  0
  2  3  1  0
  2 30  1  1
  3  4  1  0
  4  5  2  0
  4  6  1  0
  6 13  1  0
  6 19  1  6
  6  7  1  0
  7  8  1  0
  7 31  1  0
  7 32  1  0
  8 24  1  0
  8  9  1  0
  8 33  1  1
  9 10  1  0
  9 24  1  0
  9 34  1  1
 10 11  1  0
 10 35  1  0
 10 36  1  0
 11 12  1  0
 11 37  1  0
 11 38  1  0
 12 13  1  0
 12 39  1  6
 13 20  1  0
 13 14  1  6
 14 15  1  0
 14 40  1  0
 14 41  1  0
 15 16  1  0
 15 42  1  0
 15 43  1  0
 16 21  1  0
 16 17  1  0
 16 44  1  1
 17 18  1  0
 17 45  1  0
 17 46  1  0
 18 19  1  0
 18 20  1  0
 18 62  1  1
 19 47  1  0
 19 48  1  0
 20 21  1  0
 20 49  1  1
 21 22  1  0
 21 23  1  0
 22 50  1  0
 22 51  1  0
 22 52  1  0
 23 53  1  0
 23 54  1  0
 23 55  1  0
 24 25  1  0
 24 26  1  0
 25 56  1  0
 25 57  1  0
 25 58  1  0
 26 59  1  0
 26 60  1  0
 26 61  1  0
M  CHG  1  18   1
M  END
>  <i_m_ct_stereo_status>  (65) 
1

>  <s_m_source_file>  (65) 
/var/tmp/pbs.5076255.sched01/tmp0du1nuht/0914ajmtz.sdf

>  <i_m_source_file_index>  (65) 
28

>  <i_lp_mmshare_version>  (65) 
48012

>  <i_f3d_flags>  (65) 
0

>  <s_epik_input>  (65) 
W0NIM11DMShbQ0gzXSlbQ0BIXShbQ0gyXTIpW0NAQEhdMVtDSDJdW0NIMl1bQ0BASF0oW0NASF0oW0NIM10pT0MzPU8pW0NAQF00KFtDQEBdMjM1KVtDQEhdNk4oW0NIMl01KVtDSDJdW0NASF0oW0NIMl1bQ0gyXTQpQzYoW0NIM10pW0NIM10=

>  <s_epik_cmdline>  (65) 
J2VwaWtfcHl0aG9uJywgJy1waHQnLCAnMi4wJywgJy1waCcsICc3LjAnLCAnLXRuJywgJzgnLCAnLW1hJywgJzIwMCcsICctaW1hZScsICc8aW5maWxlLm1hZT4nLCAnLW9tYWUnLCAnPG91dGZpbGUubWFlPic=

>  <r_epik_Ionization_Penalty>  (65) 
0.000658192

>  <r_epik_Ionization_Penalty_Charging>  (65) 
0.000658192

>  <r_epik_Ionization_Penalty_Neutral>  (65) 
0

>  <r_epik_State_Penalty>  (65) 
0.000417138

>  <r_epik_Charging_Adjusted_Penalty>  (65) 
0.00107533

>  <i_epik_Tot_Q>  (65) 
1

>  <i_epik_Tot_abs_Q>  (65) 
1

>  <s_epik_Chemistry_Notes>  (65) 
This compound has an ester and may undergo hydrolysis at high or low pH.

>  <s_lp_Force_Field>  (65) 
OPLS3e

>  <r_lp_Energy>  (65) 
242.227

>  <b_lp_Chiralities_Consistent>  (65) 
1

>  <s_lp_Variant>  (65) 
24:0-1

>  <s_i_glide_gridfile>  (65) 
pfpi4k_grid

>  <i_i_glide_lignum>  (65) 
28

>  <i_i_glide_rotatable_bonds>  (65) 
0

>  <r_i_docking_score>  (65) 
-2.93472

>  <r_i_glide_ligand_efficiency>  (65) 
-0.112874

>  <r_i_glide_ligand_efficiency_sa>  (65) 
-0.334388

>  <r_i_glide_ligand_efficiency_ln>  (65) 
-0.689209

>  <r_i_glide_gscore>  (65) 
-2.93472

>  <r_i_glide_lipo>  (65) 
-0.341376

>  <r_i_glide_hbond>  (65) 
0

>  <r_i_glide_metal>  (65) 
-0

>  <r_i_glide_rewards>  (65) 
-0.98978

>  <r_i_glide_evdw>  (65) 
-25.6009

>  <r_i_glide_ecoul>  (65) 
-1.99203

>  <r_i_glide_erotb>  (65) 
0

>  <r_i_glide_esite>  (65) 
-0.0247151

>  <r_i_glide_emodel>  (65) 
-33.3292

>  <r_i_glide_energy>  (65) 
-27.5929

>  <r_i_glide_einternal>  (65) 
0

>  <r_i_glide_intrahb_reward>  (65) 
-0

>  <i_i_glide_confnum>  (65) 
2

>  <i_i_glide_posenum>  (65) 
16

>  <r_i_glide_eff_state_penalty>  (65) 
0

>  <ligand_id>  (65) 
24

>  <original_smiles>  (65) 
CC1OC(=O)C23CC4C(CCC1C21CCC2CN(C3)C1C2(C)C)C4(C)C

>  <smiles>  (65) 
[H]C([H])([H])C1([H])OC(=O)C23C([H])([H])C4([H])C([H])(C([H])([H])C([H])([H])C1([H])C21C([H])([H])C([H])([H])C2([H])C(C([H])([H])[H])(C([H])([H])[H])C1([H])[N+]([H])(C2([H])[H])C3([H])[H])C4(C([H])([H])[H])C([H])([H])[H]

$$$$
24:0:2
     RDKit          3D

 62 67  0  0  1  0  0  0  0  0999 V2000
    6.4288   -0.7369    2.2703 C   0  0  0  0  0  0  0  0  0  0  0  0
    6.1216   -2.2082    2.1066 C   0  0  2  0  0  0  0  0  0  0  0  0
    7.1247   -2.8061    1.2569 O   0  0  0  0  0  0  0  0  0  0  0  0
    6.9063   -3.8362    0.3424 C   0  0  0  0  0  0  0  0  0  0  0  0
    7.8428   -4.2719   -0.2958 O   0  0  0  0  0  0  0  0  0  0  0  0
    5.4554   -4.3964    0.1968 C   0  0  2  0  0  0  0  0  0  0  0  0
    4.8755   -4.0826   -1.2392 C   0  0  0  0  0  0  0  0  0  0  0  0
    4.8696   -2.6338   -1.7981 C   0  0  2  0  0  0  0  0  0  0  0  0
    4.0528   -1.4295   -1.3257 C   0  0  2  0  0  0  0  0  0  0  0  0
    3.1421   -1.3786   -0.0838 C   0  0  0  0  0  0  0  0  0  0  0  0
    3.7473   -1.3172    1.3326 C   0  0  0  0  0  0  0  0  0  0  0  0
    4.7902   -2.4115    1.4747 C   0  0  2  0  0  0  0  0  0  0  0  0
    4.4607   -3.9098    1.3901 C   0  0  1  0  0  0  0  0  0  0  0  0
    2.8062   -4.2078    1.2581 C   0  0  0  0  0  0  0  0  0  0  0  0
    2.2454   -5.4730    2.0869 C   0  0  0  0  0  0  0  0  0  0  0  0
    3.2180   -6.1882    3.1452 C   0  0  1  0  0  0  0  0  0  0  0  0
    4.3048   -7.1078    2.4271 C   0  0  0  0  0  0  0  0  0  0  0  0
    5.4228   -6.1449    1.9859 N   0  0  1  0  0  0  0  0  0  0  0  0
    5.6049   -5.9604    0.4686 C   0  0  0  0  0  0  0  0  0  0  0  0
    5.0771   -4.7943    2.5612 C   0  0  1  0  0  0  0  0  0  0  0  0
    4.1683   -5.1117    3.7905 C   0  0  0  0  0  0  0  0  0  0  0  0
    3.4420   -3.8884    4.4040 C   0  0  0  0  0  0  0  0  0  0  0  0
    5.0100   -5.7013    4.9515 C   0  0  0  0  0  0  0  0  0  0  0  0
    3.7071   -2.1066   -2.6424 C   0  0  0  0  0  0  0  0  0  0  0  0
    4.0414   -1.3766   -3.9198 C   0  0  0  0  0  0  0  0  0  0  0  0
    2.4349   -2.9191   -2.8467 C   0  0  0  0  0  0  0  0  0  0  0  0
    5.7582   -0.1975    2.9464 H   0  0  0  0  0  0  0  0  0  0  0  0
    6.5659   -0.2511    1.3024 H   0  0  0  0  0  0  0  0  0  0  0  0
    7.4035   -0.6354    2.7091 H   0  0  0  0  0  0  0  0  0  0  0  0
    6.1434   -2.6851    3.1007 H   0  0  0  0  0  0  0  0  0  0  0  0
    5.4561   -4.6511   -1.9633 H   0  0  0  0  0  0  0  0  0  0  0  0
    3.8855   -4.5161   -1.3177 H   0  0  0  0  0  0  0  0  0  0  0  0
    5.8642   -2.3340   -2.1261 H   0  0  0  0  0  0  0  0  0  0  0  0
    4.5194   -0.4574   -1.4613 H   0  0  0  0  0  0  0  0  0  0  0  0
    2.6338   -0.4344   -0.1544 H   0  0  0  0  0  0  0  0  0  0  0  0
    2.3846   -2.1441   -0.1443 H   0  0  0  0  0  0  0  0  0  0  0  0
    4.1747   -0.3206    1.4189 H   0  0  0  0  0  0  0  0  0  0  0  0
    2.9802   -1.3748    2.1066 H   0  0  0  0  0  0  0  0  0  0  0  0
    5.2032   -2.1001    0.5408 H   0  0  0  0  0  0  0  0  0  0  0  0
    2.2399   -3.3571    1.6408 H   0  0  0  0  0  0  0  0  0  0  0  0
    2.4959   -4.3153    0.2219 H   0  0  0  0  0  0  0  0  0  0  0  0
    1.3516   -5.1426    2.6249 H   0  0  0  0  0  0  0  0  0  0  0  0
    1.8907   -6.2310    1.3819 H   0  0  0  0  0  0  0  0  0  0  0  0
    2.6457   -6.7514    3.8871 H   0  0  0  0  0  0  0  0  0  0  0  0
    4.7178   -7.8271    3.1434 H   0  0  0  0  0  0  0  0  0  0  0  0
    3.8738   -7.6878    1.6070 H   0  0  0  0  0  0  0  0  0  0  0  0
    4.8125   -6.4992   -0.0678 H   0  0  0  0  0  0  0  0  0  0  0  0
    6.5741   -6.3642    0.1595 H   0  0  0  0  0  0  0  0  0  0  0  0
    4.4427   -5.1121    1.9236 H   0  0  0  0  0  0  0  0  0  0  0  0
    4.1614   -3.1652    4.7894 H   0  0  0  0  0  0  0  0  0  0  0  0
    2.8181   -4.2042    5.2398 H   0  0  0  0  0  0  0  0  0  0  0  0
    2.7967   -3.3521    3.7186 H   0  0  0  0  0  0  0  0  0  0  0  0
    5.6397   -4.9393    5.4113 H   0  0  0  0  0  0  0  0  0  0  0  0
    5.6783   -6.5104    4.6582 H   0  0  0  0  0  0  0  0  0  0  0  0
    4.3627   -6.0949    5.7351 H   0  0  0  0  0  0  0  0  0  0  0  0
    3.2359   -0.7067   -4.2254 H   0  0  0  0  0  0  0  0  0  0  0  0
    4.2102   -2.1115   -4.7069 H   0  0  0  0  0  0  0  0  0  0  0  0
    4.9490   -0.7917   -3.7961 H   0  0  0  0  0  0  0  0  0  0  0  0
    1.6176   -2.2703   -3.1654 H   0  0  0  0  0  0  0  0  0  0  0  0
    2.1106   -3.4182   -1.9396 H   0  0  0  0  0  0  0  0  0  0  0  0
    2.5709   -3.6595   -3.6334 H   0  0  0  0  0  0  0  0  0  0  0  0
    6.2886   -6.4636    2.3793 H   0  0  0  0  0  0  0  0  0  0  0  0
  1  2  1  0
  1 27  1  0
  1 28  1  0
  1 29  1  0
  2 12  1  0
  2  3  1  0
  2 30  1  1
  3  4  1  0
  4  5  2  0
  4  6  1  0
  6 13  1  0
  6 19  1  6
  6  7  1  0
  7  8  1  0
  7 31  1  0
  7 32  1  0
  8 24  1  0
  8  9  1  0
  8 33  1  6
  9 10  1  0
  9 24  1  0
  9 34  1  6
 10 11  1  0
 10 35  1  0
 10 36  1  0
 11 12  1  0
 11 37  1  0
 11 38  1  0
 12 13  1  0
 12 39  1  6
 13 20  1  0
 13 14  1  6
 14 15  1  0
 14 40  1  0
 14 41  1  0
 15 16  1  0
 15 42  1  0
 15 43  1  0
 16 21  1  0
 16 17  1  0
 16 44  1  1
 17 18  1  0
 17 45  1  0
 17 46  1  0
 18 19  1  0
 18 20  1  0
 18 62  1  1
 19 47  1  0
 19 48  1  0
 20 21  1  0
 20 49  1  1
 21 22  1  0
 21 23  1  0
 22 50  1  0
 22 51  1  0
 22 52  1  0
 23 53  1  0
 23 54  1  0
 23 55  1  0
 24 25  1  0
 24 26  1  0
 25 56  1  0
 25 57  1  0
 25 58  1  0
 26 59  1  0
 26 60  1  0
 26 61  1  0
M  CHG  1  18   1
M  END
>  <i_m_ct_stereo_status>  (66) 
1

>  <s_m_source_file>  (66) 
/var/tmp/pbs.5076255.sched01/tmp0du1nuht/0914ajmtz.sdf

>  <i_m_source_file_index>  (66) 
28

>  <i_lp_mmshare_version>  (66) 
48012

>  <i_f3d_flags>  (66) 
0

>  <s_epik_input>  (66) 
W0NIM11DMShbQ0gzXSlbQ0BIXShbQ0gyXTIpW0NAQEhdMVtDSDJdW0NIMl1bQ0BASF0oW0NASF0oW0NIM10pT0MzPU8pW0NAQF00KFtDQEBdMjM1KVtDQEhdNk4oW0NIMl01KVtDSDJdW0NASF0oW0NIMl1bQ0gyXTQpQzYoW0NIM10pW0NIM10=

>  <s_epik_cmdline>  (66) 
J2VwaWtfcHl0aG9uJywgJy1waHQnLCAnMi4wJywgJy1waCcsICc3LjAnLCAnLXRuJywgJzgnLCAnLW1hJywgJzIwMCcsICctaW1hZScsICc8aW5maWxlLm1hZT4nLCAnLW9tYWUnLCAnPG91dGZpbGUubWFlPic=

>  <r_epik_Ionization_Penalty>  (66) 
0.000658192

>  <r_epik_Ionization_Penalty_Charging>  (66) 
0.000658192

>  <r_epik_Ionization_Penalty_Neutral>  (66) 
0

>  <r_epik_State_Penalty>  (66) 
0.000417138

>  <r_epik_Charging_Adjusted_Penalty>  (66) 
0.00107533

>  <i_epik_Tot_Q>  (66) 
1

>  <i_epik_Tot_abs_Q>  (66) 
1

>  <s_epik_Chemistry_Notes>  (66) 
This compound has an ester and may undergo hydrolysis at high or low pH.

>  <s_lp_Force_Field>  (66) 
OPLS3e

>  <r_lp_Energy>  (66) 
242.227

>  <b_lp_Chiralities_Consistent>  (66) 
1

>  <s_lp_Variant>  (66) 
24:0-1

>  <s_i_glide_gridfile>  (66) 
pfpi4k_grid

>  <i_i_glide_lignum>  (66) 
28

>  <i_i_glide_rotatable_bonds>  (66) 
0

>  <r_i_docking_score>  (66) 
-2.25107

>  <r_i_glide_ligand_efficiency>  (66) 
-0.0865795

>  <r_i_glide_ligand_efficiency_sa>  (66) 
-0.256491

>  <r_i_glide_ligand_efficiency_ln>  (66) 
-0.528656

>  <r_i_glide_gscore>  (66) 
-2.25107

>  <r_i_glide_lipo>  (66) 
-0.445707

>  <r_i_glide_hbond>  (66) 
0

>  <r_i_glide_metal>  (66) 
-0

>  <r_i_glide_rewards>  (66) 
-1.13846

>  <r_i_glide_evdw>  (66) 
-6.38296

>  <r_i_glide_ecoul>  (66) 
-2.31836

>  <r_i_glide_erotb>  (66) 
0

>  <r_i_glide_esite>  (66) 
0

>  <r_i_glide_emodel>  (66) 
-11.8602

>  <r_i_glide_energy>  (66) 
-8.70132

>  <r_i_glide_einternal>  (66) 
0

>  <r_i_glide_intrahb_reward>  (66) 
-0

>  <i_i_glide_confnum>  (66) 
2

>  <i_i_glide_posenum>  (66) 
21

>  <r_i_glide_eff_state_penalty>  (66) 
0

>  <ligand_id>  (66) 
24

>  <original_smiles>  (66) 
CC1OC(=O)C23CC4C(CCC1C21CCC2CN(C3)C1C2(C)C)C4(C)C

>  <smiles>  (66) 
[H]C([H])([H])C1([H])OC(=O)C23C([H])([H])C4([H])C([H])(C([H])([H])C([H])([H])C1([H])C21C([H])([H])C([H])([H])C2([H])C(C([H])([H])[H])(C([H])([H])[H])C1([H])[N+]([H])(C2([H])[H])C3([H])[H])C4(C([H])([H])[H])C([H])([H])[H]

$$$$
26:0:0
     RDKit          3D

 81 86  0  0  1  0  0  0  0  0999 V2000
    1.9588  -11.2828    3.3301 C   0  0  0  0  0  0  0  0  0  0  0  0
    1.9976  -10.1368    4.3614 C   0  0  2  0  0  0  0  0  0  0  0  0
    0.6068  -10.0703    5.0457 C   0  0  0  0  0  0  0  0  0  0  0  0
    0.2221   -8.7505    5.7566 C   0  0  0  0  0  0  0  0  0  0  0  0
    0.5922   -7.5208    4.8912 C   0  0  1  0  0  0  0  0  0  0  0  0
   -0.2821   -7.6916    3.6077 C   0  0  0  0  0  0  0  0  0  0  0  0
   -1.3259   -7.0568    3.4347 O   0  0  0  0  0  0  0  0  0  0  0  0
    0.4757   -6.0077    5.3763 C   0  0  2  0  0  0  0  0  0  0  0  0
    1.3172   -5.3374    4.2500 C   0  0  1  0  0  0  0  0  0  0  0  0
    1.4263   -3.7871    4.1602 C   0  0  0  0  0  0  0  0  0  0  0  0
    0.5012   -2.9043    5.0228 C   0  0  1  0  0  0  0  0  0  0  0  0
    0.9920   -2.8708    6.4912 C   0  0  1  0  0  0  0  0  0  0  0  0
    0.2298   -1.8165    7.3337 C   0  0  0  0  0  0  0  0  0  0  0  0
    0.1026   -0.4333    6.6825 C   0  0  0  0  0  0  0  0  0  0  0  0
   -0.5108   -0.5071    5.2666 C   0  0  1  0  0  0  0  0  0  0  0  0
   -1.9732   -1.0032    5.3383 C   0  0  0  0  0  0  0  0  0  0  0  0
   -0.5808    0.9098    4.6350 C   0  0  0  0  0  0  0  0  0  0  0  0
    0.7819    1.5065    4.2595 C   0  0  0  0  0  0  0  0  0  0  0  0
    1.5967    0.5742    3.3447 C   0  0  0  0  0  0  0  0  0  0  0  0
    0.9365    0.4550    1.9543 C   0  0  0  0  0  0  0  0  0  0  0  0
    3.0041    1.1690    3.1480 C   0  0  0  0  0  0  0  0  0  0  0  0
    1.7238   -0.8075    4.0309 C   0  0  0  0  0  0  0  0  0  0  0  0
    0.3620   -1.4689    4.4001 C   0  0  1  0  0  0  0  0  0  0  0  0
    0.8492   -4.2163    7.2495 C   0  0  0  0  0  0  0  0  0  0  0  0
    1.2997   -5.5873    6.6459 C   0  0  1  0  0  0  0  0  0  0  0  0
    1.1525   -6.5673    7.8278 C   0  0  0  0  0  0  0  0  0  0  0  0
    0.0678   -6.7323    8.3916 O   0  0  0  0  0  0  0  0  0  0  0  0
    2.7562   -5.6060    6.0910 C   0  0  0  0  0  0  0  0  0  0  0  0
    2.5953   -6.1068    4.6254 C   0  0  2  0  0  0  0  0  0  0  0  0
    3.8260   -5.8066    3.7505 C   0  0  0  0  0  0  0  0  0  0  0  0
    2.1332   -7.6139    4.7000 C   0  0  2  0  0  0  0  0  0  0  0  0
    2.5501   -8.7927    3.7584 C   0  0  1  0  0  0  0  0  0  0  0  0
    4.0748   -8.9309    3.5616 C   0  0  0  0  0  0  0  0  0  0  0  0
    1.2771  -11.0408    2.5121 H   0  0  0  0  0  0  0  0  0  0  0  0
    1.5996  -12.2035    3.7897 H   0  0  0  0  0  0  0  0  0  0  0  0
    2.9310  -11.5072    2.8950 H   0  0  0  0  0  0  0  0  0  0  0  0
    2.6912  -10.4359    5.1525 H   0  0  0  0  0  0  0  0  0  0  0  0
   -0.1703  -10.3168    4.3199 H   0  0  0  0  0  0  0  0  0  0  0  0
    0.5421  -10.8689    5.7832 H   0  0  0  0  0  0  0  0  0  0  0  0
   -0.8455   -8.7664    5.9697 H   0  0  0  0  0  0  0  0  0  0  0  0
    0.7169   -8.7882    6.7191 H   0  0  0  0  0  0  0  0  0  0  0  0
    0.0618   -8.4097    2.8719 H   0  0  0  0  0  0  0  0  0  0  0  0
   -0.5534   -5.6531    5.4198 H   0  0  0  0  0  0  0  0  0  0  0  0
    1.0282   -5.6195    3.2397 H   0  0  0  0  0  0  0  0  0  0  0  0
    2.4506   -3.4677    4.3331 H   0  0  0  0  0  0  0  0  0  0  0  0
    1.2392   -3.5319    3.1171 H   0  0  0  0  0  0  0  0  0  0  0  0
   -0.4894   -3.3546    5.0007 H   0  0  0  0  0  0  0  0  0  0  0  0
    2.0449   -2.5818    6.4912 H   0  0  0  0  0  0  0  0  0  0  0  0
   -0.7641   -2.1998    7.5477 H   0  0  0  0  0  0  0  0  0  0  0  0
    0.7203   -1.6992    8.3018 H   0  0  0  0  0  0  0  0  0  0  0  0
   -0.4864    0.2277    7.3188 H   0  0  0  0  0  0  0  0  0  0  0  0
    1.0946    0.0144    6.6526 H   0  0  0  0  0  0  0  0  0  0  0  0
   -2.4261   -1.0416    4.3496 H   0  0  0  0  0  0  0  0  0  0  0  0
   -2.5818   -0.3291    5.9414 H   0  0  0  0  0  0  0  0  0  0  0  0
   -2.0713   -1.9986    5.7656 H   0  0  0  0  0  0  0  0  0  0  0  0
   -1.2063    0.8828    3.7437 H   0  0  0  0  0  0  0  0  0  0  0  0
   -1.0888    1.5960    5.3129 H   0  0  0  0  0  0  0  0  0  0  0  0
    0.6392    2.4729    3.7736 H   0  0  0  0  0  0  0  0  0  0  0  0
    1.3484    1.7138    5.1658 H   0  0  0  0  0  0  0  0  0  0  0  0
    1.5007   -0.2211    1.3056 H   0  0  0  0  0  0  0  0  0  0  0  0
    0.8770    1.4217    1.4466 H   0  0  0  0  0  0  0  0  0  0  0  0
   -0.0820    0.0667    2.0010 H   0  0  0  0  0  0  0  0  0  0  0  0
    3.6188    0.5313    2.5096 H   0  0  0  0  0  0  0  0  0  0  0  0
    3.5253    1.2865    4.0984 H   0  0  0  0  0  0  0  0  0  0  0  0
    2.9568    2.1526    2.6754 H   0  0  0  0  0  0  0  0  0  0  0  0
    2.3031   -1.4468    3.3677 H   0  0  0  0  0  0  0  0  0  0  0  0
    2.3297   -0.6959    4.9292 H   0  0  0  0  0  0  0  0  0  0  0  0
   -0.1686   -1.6158    3.4623 H   0  0  0  0  0  0  0  0  0  0  0  0
    1.3739   -4.0739    8.1983 H   0  0  0  0  0  0  0  0  0  0  0  0
   -0.2030   -4.3242    7.5230 H   0  0  0  0  0  0  0  0  0  0  0  0
    2.0527   -7.1016    8.1315 H   0  0  0  0  0  0  0  0  0  0  0  0
    3.1969   -4.6102    6.1224 H   0  0  0  0  0  0  0  0  0  0  0  0
    3.4371   -6.2396    6.6630 H   0  0  0  0  0  0  0  0  0  0  0  0
    4.7051   -6.3343    4.1188 H   0  0  0  0  0  0  0  0  0  0  0  0
    4.0896   -4.7511    3.7509 H   0  0  0  0  0  0  0  0  0  0  0  0
    3.6488   -6.0918    2.7132 H   0  0  0  0  0  0  0  0  0  0  0  0
    2.5548   -7.9699    5.6410 H   0  0  0  0  0  0  0  0  0  0  0  0
    2.1300   -8.6472    2.7655 H   0  0  0  0  0  0  0  0  0  0  0  0
    4.6052   -8.8501    4.5116 H   0  0  0  0  0  0  0  0  0  0  0  0
    4.4668   -8.1896    2.8713 H   0  0  0  0  0  0  0  0  0  0  0  0
    4.3418   -9.8924    3.1255 H   0  0  0  0  0  0  0  0  0  0  0  0
  1  2  1  0
  1 34  1  0
  1 35  1  0
  1 36  1  0
  2 32  1  0
  2  3  1  0
  2 37  1  1
  3  4  1  0
  3 38  1  0
  3 39  1  0
  4  5  1  0
  4 40  1  0
  4 41  1  0
  5 31  1  0
  5  6  1  6
  5  8  1  0
  6  7  2  0
  6 42  1  0
  8 25  1  0
  8  9  1  0
  8 43  1  1
  9 29  1  0
  9 10  1  0
  9 44  1  6
 10 11  1  0
 10 45  1  0
 10 46  1  0
 11 23  1  0
 11 12  1  0
 11 47  1  1
 12 13  1  0
 12 24  1  0
 12 48  1  6
 13 14  1  0
 13 49  1  0
 13 50  1  0
 14 15  1  0
 14 51  1  0
 14 52  1  0
 15 23  1  0
 15 16  1  1
 15 17  1  0
 16 53  1  0
 16 54  1  0
 16 55  1  0
 17 18  1  0
 17 56  1  0
 17 57  1  0
 18 19  1  0
 18 58  1  0
 18 59  1  0
 19 20  1  0
 19 21  1  0
 19 22  1  0
 20 60  1  0
 20 61  1  0
 20 62  1  0
 21 63  1  0
 21 64  1  0
 21 65  1  0
 22 23  1  0
 22 66  1  0
 22 67  1  0
 23 68  1  6
 24 25  1  0
 24 69  1  0
 24 70  1  0
 25 26  1  1
 25 28  1  0
 26 27  2  0
 26 71  1  0
 28 29  1  0
 28 72  1  0
 28 73  1  0
 29 30  1  6
 29 31  1  0
 30 74  1  0
 30 75  1  0
 30 76  1  0
 31 32  1  0
 31 77  1  1
 32 33  1  0
 32 78  1  6
 33 79  1  0
 33 80  1  0
 33 81  1  0
M  END
>  <i_m_ct_stereo_status>  (67) 
1

>  <s_m_source_file>  (67) 
/var/tmp/pbs.5076255.sched01/tmp0du1nuht/0914ajmtz.sdf

>  <i_m_source_file_index>  (67) 
30

>  <i_lp_mmshare_version>  (67) 
48012

>  <i_f3d_flags>  (67) 
0

>  <s_epik_input>  (67) 
W0NIMl0xW0NIMl1bQ0BASF0oW0NIM10pW0NASF0oW0NIM10pW0NASF0yW0NAQF0oW0NIM10pKFtDQEhdM1tDQEhdNFtDQF0xMltDSF09TylbQ0gyXVtDQEBdNChbQ0hdPU8pW0NIMl1bQ0BIXTVbQ0BIXShbQ0gyXTMpW0NASF02W0NAQF0oW0NIM10pKFtDSDJdW0NIMl01KVtDSDJdW0NIMl1DKFtDSDNdKShbQ0gzXSlbQ0gyXTY=

>  <s_epik_cmdline>  (67) 
J2VwaWtfcHl0aG9uJywgJy1waHQnLCAnMi4wJywgJy1waCcsICc3LjAnLCAnLXRuJywgJzgnLCAnLW1hJywgJzIwMCcsICctaW1hZScsICc8aW5maWxlLm1hZT4nLCAnLW9tYWUnLCAnPG91dGZpbGUubWFlPic=

>  <r_lp_tautomer_probability>  (67) 
1

>  <r_epik_Ionization_Penalty>  (67) 
0

>  <r_epik_Ionization_Penalty_Charging>  (67) 
0

>  <r_epik_Ionization_Penalty_Neutral>  (67) 
0

>  <r_epik_State_Penalty>  (67) 
-0

>  <r_epik_Charging_Adjusted_Penalty>  (67) 
0

>  <i_epik_Tot_Q>  (67) 
0

>  <i_epik_Tot_abs_Q>  (67) 
0

>  <s_lp_Force_Field>  (67) 
OPLS3e

>  <r_lp_Energy>  (67) 
129.649

>  <b_lp_Chiralities_Consistent>  (67) 
1

>  <s_lp_Variant>  (67) 
26:0-1

>  <s_i_glide_gridfile>  (67) 
pfpi4k_grid

>  <i_i_glide_lignum>  (67) 
30

>  <i_i_glide_rotatable_bonds>  (67) 
2

>  <r_i_docking_score>  (67) 
-2.76535

>  <r_i_glide_ligand_efficiency>  (67) 
-0.0837985

>  <r_i_glide_ligand_efficiency_sa>  (67) 
-0.268787

>  <r_i_glide_ligand_efficiency_ln>  (67) 
-0.615

>  <r_i_glide_gscore>  (67) 
-2.76535

>  <r_i_glide_lipo>  (67) 
-0.14786

>  <r_i_glide_hbond>  (67) 
-0.155448

>  <r_i_glide_metal>  (67) 
-0

>  <r_i_glide_rewards>  (67) 
-0.322421

>  <r_i_glide_evdw>  (67) 
-30.895

>  <r_i_glide_ecoul>  (67) 
-3.64297

>  <r_i_glide_erotb>  (67) 
0

>  <r_i_glide_esite>  (67) 
-0.048429

>  <r_i_glide_emodel>  (67) 
-40.3675

>  <r_i_glide_energy>  (67) 
-34.5379

>  <r_i_glide_einternal>  (67) 
0.188488

>  <r_i_glide_intrahb_reward>  (67) 
-0

>  <i_i_glide_confnum>  (67) 
1

>  <i_i_glide_posenum>  (67) 
33

>  <r_i_glide_eff_state_penalty>  (67) 
0

>  <ligand_id>  (67) 
26

>  <original_smiles>  (67) 
CC1CCC2(C=O)C3C4CC5C(CCC6(C)CCC(C)(C)CC56)CC3(C=O)CC4(C)C2C1C

>  <smiles>  (67) 
[H]C(=O)C12C([H])([H])C3([H])C([H])([H])C([H])([H])C4(C([H])([H])[H])C([H])([H])C([H])([H])C(C([H])([H])[H])(C([H])([H])[H])C([H])([H])C4([H])C3([H])C([H])([H])C3([H])C1([H])C1(C([H])=O)C([H])([H])C([H])([H])C([H])(C([H])([H])[H])C([H])(C([H])([H])[H])C1([H])C3(C([H])([H])[H])C2([H])[H]

$$$$
26:0:1
     RDKit          3D

 81 86  0  0  1  0  0  0  0  0999 V2000
    1.9340  -10.5609    2.9006 C   0  0  0  0  0  0  0  0  0  0  0  0
    2.0671   -9.4319    3.9442 C   0  0  2  0  0  0  0  0  0  0  0  0
    0.7691   -9.4191    4.8039 C   0  0  0  0  0  0  0  0  0  0  0  0
    0.4952   -8.1176    5.5888 C   0  0  0  0  0  0  0  0  0  0  0  0
    0.6823   -6.8728    4.6850 C   0  0  1  0  0  0  0  0  0  0  0  0
   -0.4195   -7.0794    3.5755 C   0  0  0  0  0  0  0  0  0  0  0  0
   -0.2868   -6.8202    2.3828 O   0  0  0  0  0  0  0  0  0  0  0  0
    0.5708   -5.3800    5.2049 C   0  0  2  0  0  0  0  0  0  0  0  0
    1.2260   -4.6407    4.0088 C   0  0  1  0  0  0  0  0  0  0  0  0
    1.2654   -3.0908    3.9360 C   0  0  0  0  0  0  0  0  0  0  0  0
    0.4285   -2.2626    4.9301 C   0  0  1  0  0  0  0  0  0  0  0  0
    1.1240   -2.2282    6.3066 C   0  0  1  0  0  0  0  0  0  0  0  0
    0.4521   -1.2119    7.2716 C   0  0  0  0  0  0  0  0  0  0  0  0
    0.1801    0.1712    6.6667 C   0  0  0  0  0  0  0  0  0  0  0  0
   -0.6267    0.0871    5.3583 C   0  0  1  0  0  0  0  0  0  0  0  0
   -2.0371   -0.4693    5.6312 C   0  0  0  0  0  0  0  0  0  0  0  0
   -0.8444    1.5030    4.7641 C   0  0  0  0  0  0  0  0  0  0  0  0
    0.4196    2.1594    4.1974 C   0  0  0  0  0  0  0  0  0  0  0  0
    1.1269    1.2656    3.1671 C   0  0  0  0  0  0  0  0  0  0  0  0
    0.2788    1.1364    1.8883 C   0  0  0  0  0  0  0  0  0  0  0  0
    2.4599    1.9225    2.7618 C   0  0  0  0  0  0  0  0  0  0  0  0
    1.4048   -0.1210    3.7959 C   0  0  0  0  0  0  0  0  0  0  0  0
    0.1437   -0.8325    4.3629 C   0  0  1  0  0  0  0  0  0  0  0  0
    1.1439   -3.5901    7.0471 C   0  0  0  0  0  0  0  0  0  0  0  0
    1.5572   -4.9382    6.3582 C   0  0  1  0  0  0  0  0  0  0  0  0
    1.6160   -5.9220    7.5420 C   0  0  0  0  0  0  0  0  0  0  0  0
    0.5994   -6.2184    8.1556 O   0  0  0  0  0  0  0  0  0  0  0  0
    2.9175   -4.8929    5.6035 C   0  0  0  0  0  0  0  0  0  0  0  0
    2.5671   -5.3758    4.1658 C   0  0  2  0  0  0  0  0  0  0  0  0
    3.6382   -5.0186    3.1271 C   0  0  0  0  0  0  0  0  0  0  0  0
    2.1767   -6.9064    4.2737 C   0  0  2  0  0  0  0  0  0  0  0  0
    2.4817   -8.0686    3.2734 C   0  0  1  0  0  0  0  0  0  0  0  0
    3.9643   -8.1381    2.8564 C   0  0  0  0  0  0  0  0  0  0  0  0
    1.1354  -10.3376    2.1891 H   0  0  0  0  0  0  0  0  0  0  0  0
    1.6788  -11.5080    3.3878 H   0  0  0  0  0  0  0  0  0  0  0  0
    2.8418  -10.7423    2.3290 H   0  0  0  0  0  0  0  0  0  0  0  0
    2.8845   -9.7098    4.6190 H   0  0  0  0  0  0  0  0  0  0  0  0
   -0.0961   -9.7122    4.2042 H   0  0  0  0  0  0  0  0  0  0  0  0
    0.8608  -10.2239    5.5344 H   0  0  0  0  0  0  0  0  0  0  0  0
   -0.5054   -8.1787    5.9798 H   0  0  0  0  0  0  0  0  0  0  0  0
    1.1619   -8.1595    6.4509 H   0  0  0  0  0  0  0  0  0  0  0  0
   -1.3569   -7.4806    3.9469 H   0  0  0  0  0  0  0  0  0  0  0  0
   -0.4541   -5.0756    5.3935 H   0  0  0  0  0  0  0  0  0  0  0  0
    0.8236   -4.8782    3.0378 H   0  0  0  0  0  0  0  0  0  0  0  0
    2.2907   -2.7214    3.9560 H   0  0  0  0  0  0  0  0  0  0  0  0
    0.9065   -2.8298    2.9421 H   0  0  0  0  0  0  0  0  0  0  0  0
   -0.5354   -2.7570    5.0385 H   0  0  0  0  0  0  0  0  0  0  0  0
    2.1524   -1.8985    6.1609 H   0  0  0  0  0  0  0  0  0  0  0  0
   -0.4836   -1.6249    7.6404 H   0  0  0  0  0  0  0  0  0  0  0  0
    1.0865   -1.0839    8.1515 H   0  0  0  0  0  0  0  0  0  0  0  0
   -0.3283    0.8007    7.3964 H   0  0  0  0  0  0  0  0  0  0  0  0
    1.1435    0.6503    6.4989 H   0  0  0  0  0  0  0  0  0  0  0  0
   -2.6217   -0.5198    4.7181 H   0  0  0  0  0  0  0  0  0  0  0  0
   -2.5798    0.1757    6.3226 H   0  0  0  0  0  0  0  0  0  0  0  0
   -2.0336   -1.4721    6.0518 H   0  0  0  0  0  0  0  0  0  0  0  0
   -1.5951    1.4605    3.9779 H   0  0  0  0  0  0  0  0  0  0  0  0
   -1.2660    2.1638    5.5221 H   0  0  0  0  0  0  0  0  0  0  0  0
    0.1718    3.1231    3.7477 H   0  0  0  0  0  0  0  0  0  0  0  0
    1.1073    2.3797    5.0086 H   0  0  0  0  0  0  0  0  0  0  0  0
    0.7713    0.5004    1.1489 H   0  0  0  0  0  0  0  0  0  0  0  0
    0.1026    2.1013    1.4080 H   0  0  0  0  0  0  0  0  0  0  0  0
   -0.7058    0.6985    2.0619 H   0  0  0  0  0  0  0  0  0  0  0  0
    2.9981    1.3165    2.0260 H   0  0  0  0  0  0  0  0  0  0  0  0
    3.1145    2.0532    3.6204 H   0  0  0  0  0  0  0  0  0  0  0  0
    2.3011    2.9072    2.3156 H   0  0  0  0  0  0  0  0  0  0  0  0
    1.9003   -0.7225    3.0318 H   0  0  0  0  0  0  0  0  0  0  0  0
    2.1368    0.0112    4.5865 H   0  0  0  0  0  0  0  0  0  0  0  0
   -0.5121   -0.9876    3.5144 H   0  0  0  0  0  0  0  0  0  0  0  0
    1.8002   -3.4398    7.9079 H   0  0  0  0  0  0  0  0  0  0  0  0
    0.1544   -3.7448    7.4767 H   0  0  0  0  0  0  0  0  0  0  0  0
    2.6037   -6.3110    7.8005 H   0  0  0  0  0  0  0  0  0  0  0  0
    3.3215   -3.8807    5.5919 H   0  0  0  0  0  0  0  0  0  0  0  0
    3.6964   -5.5049    6.0684 H   0  0  0  0  0  0  0  0  0  0  0  0
    4.5842   -5.5153    3.3505 H   0  0  0  0  0  0  0  0  0  0  0  0
    3.8586   -3.9505    3.1017 H   0  0  0  0  0  0  0  0  0  0  0  0
    3.3174   -5.3031    2.1238 H   0  0  0  0  0  0  0  0  0  0  0  0
    2.7426   -7.2514    5.1430 H   0  0  0  0  0  0  0  0  0  0  0  0
    1.9157   -7.9403    2.3483 H   0  0  0  0  0  0  0  0  0  0  0  0
    4.6371   -8.0428    3.7159 H   0  0  0  0  0  0  0  0  0  0  0  0
    4.2226   -7.3693    2.1267 H   0  0  0  0  0  0  0  0  0  0  0  0
    4.2090   -9.0764    2.3644 H   0  0  0  0  0  0  0  0  0  0  0  0
  1  2  1  0
  1 34  1  0
  1 35  1  0
  1 36  1  0
  2 32  1  0
  2  3  1  0
  2 37  1  1
  3  4  1  0
  3 38  1  0
  3 39  1  0
  4  5  1  0
  4 40  1  0
  4 41  1  0
  5 31  1  0
  5  6  1  6
  5  8  1  0
  6  7  2  0
  6 42  1  0
  8 25  1  0
  8  9  1  0
  8 43  1  1
  9 29  1  0
  9 10  1  0
  9 44  1  6
 10 11  1  0
 10 45  1  0
 10 46  1  0
 11 23  1  0
 11 12  1  0
 11 47  1  1
 12 13  1  0
 12 24  1  0
 12 48  1  6
 13 14  1  0
 13 49  1  0
 13 50  1  0
 14 15  1  0
 14 51  1  0
 14 52  1  0
 15 23  1  0
 15 16  1  1
 15 17  1  0
 16 53  1  0
 16 54  1  0
 16 55  1  0
 17 18  1  0
 17 56  1  0
 17 57  1  0
 18 19  1  0
 18 58  1  0
 18 59  1  0
 19 20  1  0
 19 21  1  0
 19 22  1  0
 20 60  1  0
 20 61  1  0
 20 62  1  0
 21 63  1  0
 21 64  1  0
 21 65  1  0
 22 23  1  0
 22 66  1  0
 22 67  1  0
 23 68  1  6
 24 25  1  0
 24 69  1  0
 24 70  1  0
 25 26  1  1
 25 28  1  0
 26 27  2  0
 26 71  1  0
 28 29  1  0
 28 72  1  0
 28 73  1  0
 29 30  1  6
 29 31  1  0
 30 74  1  0
 30 75  1  0
 30 76  1  0
 31 32  1  0
 31 77  1  1
 32 33  1  0
 32 78  1  6
 33 79  1  0
 33 80  1  0
 33 81  1  0
M  END
>  <i_m_ct_stereo_status>  (68) 
1

>  <s_m_source_file>  (68) 
/var/tmp/pbs.5076255.sched01/tmp0du1nuht/0914ajmtz.sdf

>  <i_m_source_file_index>  (68) 
30

>  <i_lp_mmshare_version>  (68) 
48012

>  <i_f3d_flags>  (68) 
0

>  <s_epik_input>  (68) 
W0NIMl0xW0NIMl1bQ0BASF0oW0NIM10pW0NASF0oW0NIM10pW0NASF0yW0NAQF0oW0NIM10pKFtDQEhdM1tDQEhdNFtDQF0xMltDSF09TylbQ0gyXVtDQEBdNChbQ0hdPU8pW0NIMl1bQ0BIXTVbQ0BIXShbQ0gyXTMpW0NASF02W0NAQF0oW0NIM10pKFtDSDJdW0NIMl01KVtDSDJdW0NIMl1DKFtDSDNdKShbQ0gzXSlbQ0gyXTY=

>  <s_epik_cmdline>  (68) 
J2VwaWtfcHl0aG9uJywgJy1waHQnLCAnMi4wJywgJy1waCcsICc3LjAnLCAnLXRuJywgJzgnLCAnLW1hJywgJzIwMCcsICctaW1hZScsICc8aW5maWxlLm1hZT4nLCAnLW9tYWUnLCAnPG91dGZpbGUubWFlPic=

>  <r_lp_tautomer_probability>  (68) 
1

>  <r_epik_Ionization_Penalty>  (68) 
0

>  <r_epik_Ionization_Penalty_Charging>  (68) 
0

>  <r_epik_Ionization_Penalty_Neutral>  (68) 
0

>  <r_epik_State_Penalty>  (68) 
-0

>  <r_epik_Charging_Adjusted_Penalty>  (68) 
0

>  <i_epik_Tot_Q>  (68) 
0

>  <i_epik_Tot_abs_Q>  (68) 
0

>  <s_lp_Force_Field>  (68) 
OPLS3e

>  <r_lp_Energy>  (68) 
129.649

>  <b_lp_Chiralities_Consistent>  (68) 
1

>  <s_lp_Variant>  (68) 
26:0-1

>  <s_i_glide_gridfile>  (68) 
pfpi4k_grid

>  <i_i_glide_lignum>  (68) 
30

>  <i_i_glide_rotatable_bonds>  (68) 
2

>  <r_i_docking_score>  (68) 
-2.61104

>  <r_i_glide_ligand_efficiency>  (68) 
-0.0791224

>  <r_i_glide_ligand_efficiency_sa>  (68) 
-0.253788

>  <r_i_glide_ligand_efficiency_ln>  (68) 
-0.580682

>  <r_i_glide_gscore>  (68) 
-2.61104

>  <r_i_glide_lipo>  (68) 
-0.125152

>  <r_i_glide_hbond>  (68) 
-0.16

>  <r_i_glide_metal>  (68) 
-0

>  <r_i_glide_rewards>  (68) 
-0.322421

>  <r_i_glide_evdw>  (68) 
-30.5875

>  <r_i_glide_ecoul>  (68) 
-2.73786

>  <r_i_glide_erotb>  (68) 
0

>  <r_i_glide_esite>  (68) 
-0.0634112

>  <r_i_glide_emodel>  (68) 
-37.6918

>  <r_i_glide_energy>  (68) 
-33.3254

>  <r_i_glide_einternal>  (68) 
1.74748

>  <r_i_glide_intrahb_reward>  (68) 
-0

>  <i_i_glide_confnum>  (68) 
2

>  <i_i_glide_posenum>  (68) 
15

>  <r_i_glide_eff_state_penalty>  (68) 
0

>  <ligand_id>  (68) 
26

>  <original_smiles>  (68) 
CC1CCC2(C=O)C3C4CC5C(CCC6(C)CCC(C)(C)CC56)CC3(C=O)CC4(C)C2C1C

>  <smiles>  (68) 
[H]C(=O)C12C([H])([H])C3([H])C([H])([H])C([H])([H])C4(C([H])([H])[H])C([H])([H])C([H])([H])C(C([H])([H])[H])(C([H])([H])[H])C([H])([H])C4([H])C3([H])C([H])([H])C3([H])C1([H])C1(C([H])=O)C([H])([H])C([H])([H])C([H])(C([H])([H])[H])C([H])(C([H])([H])[H])C1([H])C3(C([H])([H])[H])C2([H])[H]

$$$$
26:0:2
     RDKit          3D

 81 86  0  0  1  0  0  0  0  0999 V2000
   -0.0693   -9.5425    6.3782 C   0  0  0  0  0  0  0  0  0  0  0  0
    1.1894   -8.7337    6.0315 C   0  0  2  0  0  0  0  0  0  0  0  0
    1.0841   -7.3822    6.7941 C   0  0  0  0  0  0  0  0  0  0  0  0
    1.9810   -6.2415    6.2729 C   0  0  0  0  0  0  0  0  0  0  0  0
    1.8964   -6.1265    4.7316 C   0  0  1  0  0  0  0  0  0  0  0  0
    0.3965   -5.7487    4.4980 C   0  0  0  0  0  0  0  0  0  0  0  0
   -0.3224   -6.2714    3.6514 O   0  0  0  0  0  0  0  0  0  0  0  0
    2.7642   -5.1216    3.8706 C   0  0  2  0  0  0  0  0  0  0  0  0
    2.5146   -5.7187    2.4559 C   0  0  1  0  0  0  0  0  0  0  0  0
    3.0618   -5.0192    1.1811 C   0  0  0  0  0  0  0  0  0  0  0  0
    3.6284   -3.5873    1.2819 C   0  0  1  0  0  0  0  0  0  0  0  0
    5.0478   -3.6183    1.8798 C   0  0  1  0  0  0  0  0  0  0  0  0
    5.7583   -2.2393    1.7721 C   0  0  0  0  0  0  0  0  0  0  0  0
    5.6836   -1.5707    0.4012 C   0  0  0  0  0  0  0  0  0  0  0  0
    4.2378   -1.4481   -0.0938 C   0  0  1  0  0  0  0  0  0  0  0  0
    3.4485   -0.4894    0.8330 C   0  0  0  0  0  0  0  0  0  0  0  0
    4.2115   -0.8498   -1.5155 C   0  0  0  0  0  0  0  0  0  0  0  0
    4.7526   -1.7107   -2.6336 C   0  0  0  0  0  0  0  0  0  0  0  0
    4.0462   -3.0653   -2.6754 C   0  0  0  0  0  0  0  0  0  0  0  0
    2.5691   -2.9239   -3.1130 C   0  0  0  0  0  0  0  0  0  0  0  0
    4.7552   -3.9102   -3.7397 C   0  0  0  0  0  0  0  0  0  0  0  0
    4.1795   -3.6960   -1.2692 C   0  0  0  0  0  0  0  0  0  0  0  0
    3.5901   -2.8642   -0.1074 C   0  0  1  0  0  0  0  0  0  0  0  0
    5.0971   -4.0359    3.3731 C   0  0  0  0  0  0  0  0  0  0  0  0
    4.3286   -5.2664    3.9540 C   0  0  1  0  0  0  0  0  0  0  0  0
    4.8818   -5.3596    5.3864 C   0  0  0  0  0  0  0  0  0  0  0  0
    4.6155   -4.4982    6.2191 O   0  0  0  0  0  0  0  0  0  0  0  0
    4.5646   -6.5988    3.1866 C   0  0  0  0  0  0  0  0  0  0  0  0
    3.1260   -7.0816    2.8303 C   0  0  2  0  0  0  0  0  0  0  0  0
    3.1045   -8.1401    1.7174 C   0  0  0  0  0  0  0  0  0  0  0  0
    2.4231   -7.4781    4.1910 C   0  0  2  0  0  0  0  0  0  0  0  0
    1.4383   -8.6578    4.4772 C   0  0  1  0  0  0  0  0  0  0  0  0
    1.9441  -10.0209    3.9609 C   0  0  0  0  0  0  0  0  0  0  0  0
   -0.9576   -9.0613    5.9568 H   0  0  0  0  0  0  0  0  0  0  0  0
   -0.2070   -9.6246    7.4563 H   0  0  0  0  0  0  0  0  0  0  0  0
   -0.0334  -10.5614    5.9895 H   0  0  0  0  0  0  0  0  0  0  0  0
    2.0437   -9.2671    6.4542 H   0  0  0  0  0  0  0  0  0  0  0  0
    0.0456   -7.0603    6.8615 H   0  0  0  0  0  0  0  0  0  0  0  0
    1.3726   -7.5767    7.8264 H   0  0  0  0  0  0  0  0  0  0  0  0
    1.6800   -5.3154    6.7593 H   0  0  0  0  0  0  0  0  0  0  0  0
    2.9695   -6.4745    6.6539 H   0  0  0  0  0  0  0  0  0  0  0  0
    0.0149   -4.9711    5.1571 H   0  0  0  0  0  0  0  0  0  0  0  0
    2.4334   -4.0885    3.9657 H   0  0  0  0  0  0  0  0  0  0  0  0
    1.4729   -5.8641    2.1994 H   0  0  0  0  0  0  0  0  0  0  0  0
    3.7967   -5.6474    0.6791 H   0  0  0  0  0  0  0  0  0  0  0  0
    2.2272   -4.9742    0.4856 H   0  0  0  0  0  0  0  0  0  0  0  0
    2.9851   -3.0227    1.9535 H   0  0  0  0  0  0  0  0  0  0  0  0
    5.6465   -4.3292    1.3080 H   0  0  0  0  0  0  0  0  0  0  0  0
    5.3666   -1.5527    2.5247 H   0  0  0  0  0  0  0  0  0  0  0  0
    6.8123   -2.3773    1.9896 H   0  0  0  0  0  0  0  0  0  0  0  0
    6.1570   -0.5896    0.4413 H   0  0  0  0  0  0  0  0  0  0  0  0
    6.2845   -2.1609   -0.2876 H   0  0  0  0  0  0  0  0  0  0  0  0
    2.4277   -0.3636    0.4799 H   0  0  0  0  0  0  0  0  0  0  0  0
    3.8980    0.5051    0.8509 H   0  0  0  0  0  0  0  0  0  0  0  0
    3.3776   -0.8282    1.8645 H   0  0  0  0  0  0  0  0  0  0  0  0
    3.1727   -0.6672   -1.7720 H   0  0  0  0  0  0  0  0  0  0  0  0
    4.7119    0.1262   -1.5420 H   0  0  0  0  0  0  0  0  0  0  0  0
    4.6213   -1.1985   -3.5872 H   0  0  0  0  0  0  0  0  0  0  0  0
    5.8197   -1.8624   -2.5033 H   0  0  0  0  0  0  0  0  0  0  0  0
    2.0620   -3.8912   -3.1280 H   0  0  0  0  0  0  0  0  0  0  0  0
    2.4722   -2.4908   -4.1141 H   0  0  0  0  0  0  0  0  0  0  0  0
    1.9747   -2.2942   -2.4441 H   0  0  0  0  0  0  0  0  0  0  0  0
    4.3236   -4.9020   -3.8563 H   0  0  0  0  0  0  0  0  0  0  0  0
    5.8005   -4.0390   -3.4770 H   0  0  0  0  0  0  0  0  0  0  0  0
    4.6966   -3.4497   -4.7199 H   0  0  0  0  0  0  0  0  0  0  0  0
    3.6724   -4.6439   -1.2854 H   0  0  0  0  0  0  0  0  0  0  0  0
    5.2202   -3.9318   -1.0821 H   0  0  0  0  0  0  0  0  0  0  0  0
    2.5354   -2.7260   -0.3236 H   0  0  0  0  0  0  0  0  0  0  0  0
    6.1571   -4.1999    3.5812 H   0  0  0  0  0  0  0  0  0  0  0  0
    4.8100   -3.1639    3.9659 H   0  0  0  0  0  0  0  0  0  0  0  0
    5.5393   -6.2040    5.6032 H   0  0  0  0  0  0  0  0  0  0  0  0
    5.1589   -6.4300    2.2873 H   0  0  0  0  0  0  0  0  0  0  0  0
    5.1192   -7.3447    3.7649 H   0  0  0  0  0  0  0  0  0  0  0  0
    3.6208   -9.0493    2.0282 H   0  0  0  0  0  0  0  0  0  0  0  0
    3.6167   -7.7984    0.8202 H   0  0  0  0  0  0  0  0  0  0  0  0
    2.0818   -8.3899    1.4346 H   0  0  0  0  0  0  0  0  0  0  0  0
    3.2570   -7.7767    4.8318 H   0  0  0  0  0  0  0  0  0  0  0  0
    0.4862   -8.5059    3.9751 H   0  0  0  0  0  0  0  0  0  0  0  0
    2.9911  -10.1925    4.2232 H   0  0  0  0  0  0  0  0  0  0  0  0
    1.8336  -10.1114    2.8801 H   0  0  0  0  0  0  0  0  0  0  0  0
    1.3659  -10.8482    4.3688 H   0  0  0  0  0  0  0  0  0  0  0  0
  1  2  1  0
  1 34  1  0
  1 35  1  0
  1 36  1  0
  2 32  1  0
  2  3  1  0
  2 37  1  1
  3  4  1  0
  3 38  1  0
  3 39  1  0
  4  5  1  0
  4 40  1  0
  4 41  1  0
  5 31  1  0
  5  6  1  1
  5  8  1  0
  6  7  2  0
  6 42  1  0
  8 25  1  0
  8  9  1  0
  8 43  1  6
  9 29  1  0
  9 10  1  0
  9 44  1  6
 10 11  1  0
 10 45  1  0
 10 46  1  0
 11 23  1  0
 11 12  1  0
 11 47  1  1
 12 13  1  0
 12 24  1  0
 12 48  1  6
 13 14  1  0
 13 49  1  0
 13 50  1  0
 14 15  1  0
 14 51  1  0
 14 52  1  0
 15 23  1  0
 15 16  1  1
 15 17  1  0
 16 53  1  0
 16 54  1  0
 16 55  1  0
 17 18  1  0
 17 56  1  0
 17 57  1  0
 18 19  1  0
 18 58  1  0
 18 59  1  0
 19 20  1  0
 19 21  1  0
 19 22  1  0
 20 60  1  0
 20 61  1  0
 20 62  1  0
 21 63  1  0
 21 64  1  0
 21 65  1  0
 22 23  1  0
 22 66  1  0
 22 67  1  0
 23 68  1  6
 24 25  1  0
 24 69  1  0
 24 70  1  0
 25 26  1  1
 25 28  1  0
 26 27  2  0
 26 71  1  0
 28 29  1  0
 28 72  1  0
 28 73  1  0
 29 30  1  6
 29 31  1  0
 30 74  1  0
 30 75  1  0
 30 76  1  0
 31 32  1  0
 31 77  1  1
 32 33  1  0
 32 78  1  6
 33 79  1  0
 33 80  1  0
 33 81  1  0
M  END
>  <i_m_ct_stereo_status>  (69) 
1

>  <s_m_source_file>  (69) 
/var/tmp/pbs.5076255.sched01/tmp0du1nuht/0914ajmtz.sdf

>  <i_m_source_file_index>  (69) 
30

>  <i_lp_mmshare_version>  (69) 
48012

>  <i_f3d_flags>  (69) 
0

>  <s_epik_input>  (69) 
W0NIMl0xW0NIMl1bQ0BASF0oW0NIM10pW0NASF0oW0NIM10pW0NASF0yW0NAQF0oW0NIM10pKFtDQEhdM1tDQEhdNFtDQF0xMltDSF09TylbQ0gyXVtDQEBdNChbQ0hdPU8pW0NIMl1bQ0BIXTVbQ0BIXShbQ0gyXTMpW0NASF02W0NAQF0oW0NIM10pKFtDSDJdW0NIMl01KVtDSDJdW0NIMl1DKFtDSDNdKShbQ0gzXSlbQ0gyXTY=

>  <s_epik_cmdline>  (69) 
J2VwaWtfcHl0aG9uJywgJy1waHQnLCAnMi4wJywgJy1waCcsICc3LjAnLCAnLXRuJywgJzgnLCAnLW1hJywgJzIwMCcsICctaW1hZScsICc8aW5maWxlLm1hZT4nLCAnLW9tYWUnLCAnPG91dGZpbGUubWFlPic=

>  <r_lp_tautomer_probability>  (69) 
1

>  <r_epik_Ionization_Penalty>  (69) 
0

>  <r_epik_Ionization_Penalty_Charging>  (69) 
0

>  <r_epik_Ionization_Penalty_Neutral>  (69) 
0

>  <r_epik_State_Penalty>  (69) 
-0

>  <r_epik_Charging_Adjusted_Penalty>  (69) 
0

>  <i_epik_Tot_Q>  (69) 
0

>  <i_epik_Tot_abs_Q>  (69) 
0

>  <s_lp_Force_Field>  (69) 
OPLS3e

>  <r_lp_Energy>  (69) 
129.649

>  <b_lp_Chiralities_Consistent>  (69) 
1

>  <s_lp_Variant>  (69) 
26:0-1

>  <s_i_glide_gridfile>  (69) 
pfpi4k_grid

>  <i_i_glide_lignum>  (69) 
30

>  <i_i_glide_rotatable_bonds>  (69) 
2

>  <r_i_docking_score>  (69) 
-2.58446

>  <r_i_glide_ligand_efficiency>  (69) 
-0.0783169

>  <r_i_glide_ligand_efficiency_sa>  (69) 
-0.251204

>  <r_i_glide_ligand_efficiency_ln>  (69) 
-0.57477

>  <r_i_glide_gscore>  (69) 
-2.58446

>  <r_i_glide_lipo>  (69) 
-0.336136

>  <r_i_glide_hbond>  (69) 
-0.10184

>  <r_i_glide_metal>  (69) 
-0

>  <r_i_glide_rewards>  (69) 
-0.322421

>  <r_i_glide_evdw>  (69) 
-29.3917

>  <r_i_glide_ecoul>  (69) 
-2.24352

>  <r_i_glide_erotb>  (69) 
0

>  <r_i_glide_esite>  (69) 
-0.0179501

>  <r_i_glide_emodel>  (69) 
-36.1903

>  <r_i_glide_energy>  (69) 
-31.6352

>  <r_i_glide_einternal>  (69) 
1.26528

>  <r_i_glide_intrahb_reward>  (69) 
-0

>  <i_i_glide_confnum>  (69) 
2

>  <i_i_glide_posenum>  (69) 
14

>  <r_i_glide_eff_state_penalty>  (69) 
0

>  <ligand_id>  (69) 
26

>  <original_smiles>  (69) 
CC1CCC2(C=O)C3C4CC5C(CCC6(C)CCC(C)(C)CC56)CC3(C=O)CC4(C)C2C1C

>  <smiles>  (69) 
[H]C(=O)C12C([H])([H])C3([H])C([H])([H])C([H])([H])C4(C([H])([H])[H])C([H])([H])C([H])([H])C(C([H])([H])[H])(C([H])([H])[H])C([H])([H])C4([H])C3([H])C([H])([H])C3([H])C1([H])C1(C([H])=O)C([H])([H])C([H])([H])C([H])(C([H])([H])[H])C([H])(C([H])([H])[H])C1([H])C3(C([H])([H])[H])C2([H])[H]

$$$$
27:0:0
     RDKit          3D

 32 35  0  0  1  0  0  0  0  0999 V2000
    2.7161   -3.0490   -2.7443 C   0  0  0  0  0  0  0  0  0  0  0  0
    3.4487   -2.7870   -1.6454 C   0  0  0  0  0  0  0  0  0  0  0  0
    3.1869   -3.6429   -0.3349 C   0  0  2  0  0  0  0  0  0  0  0  0
    3.3484   -2.5114    0.4648 C   0  0  0  0  0  0  0  0  0  0  0  0
    5.1462   -2.3610    0.4448 C   0  0  2  0  0  0  0  0  0  0  0  0
    5.2572   -1.3297    1.2443 C   0  0  2  0  0  0  0  0  0  0  0  0
    4.8081   -2.5426    2.4088 C   0  0  0  0  0  0  0  0  0  0  0  0
    4.5003   -3.9458    2.1223 C   0  0  0  0  0  0  0  0  0  0  0  0
    4.2314   -4.5337    0.5410 C   0  0  2  0  0  0  0  0  0  0  0  0
    5.3818   -4.4320   -0.4003 O   0  0  0  0  0  0  0  0  0  0  0  0
    5.9734   -3.0977   -0.6405 C   0  0  2  0  0  0  0  0  0  0  0  0
    7.5309   -3.3131   -0.5776 C   0  0  0  0  0  0  0  0  0  0  0  0
    5.7211   -2.2664   -1.8943 C   0  0  0  0  0  0  0  0  0  0  0  0
    4.4490   -1.5125   -1.5919 C   0  0  1  0  0  0  0  0  0  0  0  0
    4.2027   -0.5931   -2.6325 O   0  0  0  0  0  0  0  0  0  0  0  0
    4.7082   -0.7977   -0.1869 O   0  0  0  0  0  0  0  0  0  0  0  0
    2.8087   -2.4652   -3.6489 H   0  0  0  0  0  0  0  0  0  0  0  0
    2.0001   -3.8580   -2.7532 H   0  0  0  0  0  0  0  0  0  0  0  0
    2.1651   -4.0168   -0.2901 H   0  0  0  0  0  0  0  0  0  0  0  0
    2.7242   -1.6585    0.1577 H   0  0  0  0  0  0  0  0  0  0  0  0
    2.7312   -2.6323    1.3661 H   0  0  0  0  0  0  0  0  0  0  0  0
    6.0351   -2.8825    0.8740 H   0  0  0  0  0  0  0  0  0  0  0  0
    6.2801   -0.9861    1.4149 H   0  0  0  0  0  0  0  0  0  0  0  0
    4.8862   -2.2464    3.4427 H   0  0  0  0  0  0  0  0  0  0  0  0
    4.3084   -4.6365    2.9289 H   0  0  0  0  0  0  0  0  0  0  0  0
    3.9004   -5.5721    0.5894 H   0  0  0  0  0  0  0  0  0  0  0  0
    8.0720   -2.3664   -0.5247 H   0  0  0  0  0  0  0  0  0  0  0  0
    7.8745   -3.8273   -1.4766 H   0  0  0  0  0  0  0  0  0  0  0  0
    7.8353   -3.9278    0.2741 H   0  0  0  0  0  0  0  0  0  0  0  0
    6.5055   -1.5322   -2.0352 H   0  0  0  0  0  0  0  0  0  0  0  0
    5.6435   -2.8660   -2.8013 H   0  0  0  0  0  0  0  0  0  0  0  0
    3.3631   -0.1895   -2.4626 H   0  0  0  0  0  0  0  0  0  0  0  0
  1  2  2  0
  1 17  1  0
  1 18  1  0
  2 14  1  0
  2  3  1  0
  3  9  1  0
  3  4  1  0
  3 19  1  6
  4  5  1  0
  4 20  1  0
  4 21  1  0
  5 11  1  0
  5  6  1  0
  5 22  1  1
  6 16  1  0
  6  7  1  0
  6 23  1  1
  7  8  2  0
  7 24  1  0
  8  9  1  0
  8 25  1  0
  9 10  1  0
  9 26  1  1
 10 11  1  0
 11 12  1  1
 11 13  1  0
 12 27  1  0
 12 28  1  0
 12 29  1  0
 13 14  1  0
 13 30  1  0
 13 31  1  0
 14 15  1  6
 14 16  1  0
 15 32  1  0
M  END
>  <i_m_ct_stereo_status>  (70) 
1

>  <s_m_source_file>  (70) 
/var/tmp/pbs.5076255.sched01/tmp0du1nuht/0914ajmtz.sdf

>  <i_m_source_file_index>  (70) 
31

>  <i_lp_mmshare_version>  (70) 
48012

>  <i_f3d_flags>  (70) 
2

>  <s_epik_input>  (70) 
W0NIMl0xW0NAQF0oTzIpKFtPSF0pQyg9W0NIMl0pW0NAQEhdKFtDSDJdMylbQ0BASF0oTzQpW0NIXT1bQ0hdW0NASF0yW0NIXTNbQ0BAXTE0W0NIM10=

>  <s_epik_cmdline>  (70) 
J2VwaWtfcHl0aG9uJywgJy1waHQnLCAnMi4wJywgJy1waCcsICc3LjAnLCAnLXRuJywgJzgnLCAnLW1hJywgJzIwMCcsICctaW1hZScsICc8aW5maWxlLm1hZT4nLCAnLW9tYWUnLCAnPG91dGZpbGUubWFlPic=

>  <r_lp_tautomer_probability>  (70) 
1

>  <r_epik_Ionization_Penalty>  (70) 
5.19069e-07

>  <r_epik_Ionization_Penalty_Charging>  (70) 
0

>  <r_epik_Ionization_Penalty_Neutral>  (70) 
5.19069e-07

>  <r_epik_State_Penalty>  (70) 
-0

>  <r_epik_Charging_Adjusted_Penalty>  (70) 
0

>  <i_epik_Tot_Q>  (70) 
0

>  <i_epik_Tot_abs_Q>  (70) 
0

>  <s_lp_Force_Field>  (70) 
OPLS3e

>  <r_lp_Energy>  (70) 
472.819

>  <b_lp_Chiralities_Consistent>  (70) 
0

>  <s_lp_Variant>  (70) 
27:0-1

>  <s_i_glide_gridfile>  (70) 
pfpi4k_grid

>  <i_i_glide_lignum>  (70) 
31

>  <i_i_glide_rotatable_bonds>  (70) 
1

>  <r_i_docking_score>  (70) 
-3.57599

>  <r_i_glide_ligand_efficiency>  (70) 
-0.2235

>  <r_i_glide_ligand_efficiency_sa>  (70) 
-0.563184

>  <r_i_glide_ligand_efficiency_ln>  (70) 
-0.947888

>  <r_i_glide_gscore>  (70) 
-3.57599

>  <r_i_glide_lipo>  (70) 
-0.452353

>  <r_i_glide_hbond>  (70) 
0

>  <r_i_glide_metal>  (70) 
-0

>  <r_i_glide_rewards>  (70) 
-1.90729

>  <r_i_glide_evdw>  (70) 
-22.255

>  <r_i_glide_ecoul>  (70) 
-0.395676

>  <r_i_glide_erotb>  (70) 
0

>  <r_i_glide_esite>  (70) 
-0.0442509

>  <r_i_glide_emodel>  (70) 
-27.6599

>  <r_i_glide_energy>  (70) 
-22.6507

>  <r_i_glide_einternal>  (70) 
0.02509

>  <r_i_glide_intrahb_reward>  (70) 
-0

>  <i_i_glide_confnum>  (70) 
2

>  <i_i_glide_posenum>  (70) 
33

>  <r_i_glide_eff_state_penalty>  (70) 
0

>  <ligand_id>  (70) 
27

>  <original_smiles>  (70) 
C=C1C2CC3C4C=CC2OC3(C)CC1(O)O4

>  <smiles>  (70) 
[H]OC12OC3([H])C([H])=C([H])C4([H])OC(C([H])([H])[H])(C1([H])[H])C3([H])C([H])([H])C4([H])C2=C([H])[H]

$$$$
27:0:1
     RDKit          3D

 32 35  0  0  1  0  0  0  0  0999 V2000
    3.8186   -3.1682    2.7437 C   0  0  0  0  0  0  0  0  0  0  0  0
    4.2328   -3.1599    1.4620 C   0  0  0  0  0  0  0  0  0  0  0  0
    3.8502   -1.9163    0.5559 C   0  0  2  0  0  0  0  0  0  0  0  0
    3.6217   -2.7544   -0.5363 C   0  0  0  0  0  0  0  0  0  0  0  0
    5.3221   -3.0986   -1.0344 C   0  0  2  0  0  0  0  0  0  0  0  0
    5.0541   -3.8358   -2.0835 C   0  0  2  0  0  0  0  0  0  0  0  0
    4.5982   -2.2808   -2.7101 C   0  0  0  0  0  0  0  0  0  0  0  0
    4.6230   -1.0123   -1.9803 C   0  0  0  0  0  0  0  0  0  0  0  0
    4.8207   -0.9199   -0.2865 C   0  0  2  0  0  0  0  0  0  0  0  0
    6.1163   -1.4320    0.2464 O   0  0  0  0  0  0  0  0  0  0  0  0
    6.4906   -2.8345   -0.0465 C   0  0  2  0  0  0  0  0  0  0  0  0
    8.0096   -2.7786   -0.4495 C   0  0  0  0  0  0  0  0  0  0  0  0
    6.3753   -3.9880    0.9507 C   0  0  0  0  0  0  0  0  0  0  0  0
    4.9470   -4.4579    0.8001 C   0  0  1  0  0  0  0  0  0  0  0  0
    4.7637   -5.6288    1.5661 O   0  0  0  0  0  0  0  0  0  0  0  0
    4.7539   -4.7195   -0.7584 O   0  0  0  0  0  0  0  0  0  0  0  0
    4.0018   -4.0106    3.3943 H   0  0  0  0  0  0  0  0  0  0  0  0
    3.2894   -2.3230    3.1606 H   0  0  0  0  0  0  0  0  0  0  0  0
    2.9236   -1.4352    0.8780 H   0  0  0  0  0  0  0  0  0  0  0  0
    2.9324   -3.5853   -0.3222 H   0  0  0  0  0  0  0  0  0  0  0  0
    2.8543   -2.2876   -1.1721 H   0  0  0  0  0  0  0  0  0  0  0  0
    6.1764   -2.5754   -1.5253 H   0  0  0  0  0  0  0  0  0  0  0  0
    5.9278   -4.2193   -2.6121 H   0  0  0  0  0  0  0  0  0  0  0  0
    4.3913   -2.2489   -3.7682 H   0  0  0  0  0  0  0  0  0  0  0  0
    4.3884   -0.0878   -2.4854 H   0  0  0  0  0  0  0  0  0  0  0  0
    4.6798    0.1101    0.0427 H   0  0  0  0  0  0  0  0  0  0  0  0
    8.3402   -3.7174   -0.8968 H   0  0  0  0  0  0  0  0  0  0  0  0
    8.6236   -2.6008    0.4361 H   0  0  0  0  0  0  0  0  0  0  0  0
    8.2409   -1.9807   -1.1553 H   0  0  0  0  0  0  0  0  0  0  0  0
    7.0266   -4.8180    0.6846 H   0  0  0  0  0  0  0  0  0  0  0  0
    6.6045   -3.6921    1.9748 H   0  0  0  0  0  0  0  0  0  0  0  0
    3.8763   -5.9213    1.4358 H   0  0  0  0  0  0  0  0  0  0  0  0
  1  2  2  0
  1 17  1  0
  1 18  1  0
  2 14  1  0
  2  3  1  0
  3  9  1  0
  3  4  1  0
  3 19  1  1
  4  5  1  0
  4 20  1  0
  4 21  1  0
  5 11  1  0
  5  6  1  0
  5 22  1  6
  6 16  1  0
  6  7  1  0
  6 23  1  6
  7  8  2  0
  7 24  1  0
  8  9  1  0
  8 25  1  0
  9 10  1  0
  9 26  1  1
 10 11  1  0
 11 12  1  6
 11 13  1  0
 12 27  1  0
 12 28  1  0
 12 29  1  0
 13 14  1  0
 13 30  1  0
 13 31  1  0
 14 15  1  1
 14 16  1  0
 15 32  1  0
M  END
>  <i_m_ct_stereo_status>  (71) 
1

>  <s_m_source_file>  (71) 
/var/tmp/pbs.5076255.sched01/tmp0du1nuht/0914ajmtz.sdf

>  <i_m_source_file_index>  (71) 
31

>  <i_lp_mmshare_version>  (71) 
48012

>  <i_f3d_flags>  (71) 
2

>  <s_epik_input>  (71) 
W0NIMl0xW0NAQF0oTzIpKFtPSF0pQyg9W0NIMl0pW0NAQEhdKFtDSDJdMylbQ0BASF0oTzQpW0NIXT1bQ0hdW0NASF0yW0NIXTNbQ0BAXTE0W0NIM10=

>  <s_epik_cmdline>  (71) 
J2VwaWtfcHl0aG9uJywgJy1waHQnLCAnMi4wJywgJy1waCcsICc3LjAnLCAnLXRuJywgJzgnLCAnLW1hJywgJzIwMCcsICctaW1hZScsICc8aW5maWxlLm1hZT4nLCAnLW9tYWUnLCAnPG91dGZpbGUubWFlPic=

>  <r_lp_tautomer_probability>  (71) 
1

>  <r_epik_Ionization_Penalty>  (71) 
5.19069e-07

>  <r_epik_Ionization_Penalty_Charging>  (71) 
0

>  <r_epik_Ionization_Penalty_Neutral>  (71) 
5.19069e-07

>  <r_epik_State_Penalty>  (71) 
-0

>  <r_epik_Charging_Adjusted_Penalty>  (71) 
0

>  <i_epik_Tot_Q>  (71) 
0

>  <i_epik_Tot_abs_Q>  (71) 
0

>  <s_lp_Force_Field>  (71) 
OPLS3e

>  <r_lp_Energy>  (71) 
472.819

>  <b_lp_Chiralities_Consistent>  (71) 
0

>  <s_lp_Variant>  (71) 
27:0-1

>  <s_i_glide_gridfile>  (71) 
pfpi4k_grid

>  <i_i_glide_lignum>  (71) 
31

>  <i_i_glide_rotatable_bonds>  (71) 
1

>  <r_i_docking_score>  (71) 
-3.29438

>  <r_i_glide_ligand_efficiency>  (71) 
-0.205899

>  <r_i_glide_ligand_efficiency_sa>  (71) 
-0.518833

>  <r_i_glide_ligand_efficiency_ln>  (71) 
-0.873242

>  <r_i_glide_gscore>  (71) 
-3.29438

>  <r_i_glide_lipo>  (71) 
-0.341071

>  <r_i_glide_hbond>  (71) 
0

>  <r_i_glide_metal>  (71) 
-0

>  <r_i_glide_rewards>  (71) 
-1.96684

>  <r_i_glide_evdw>  (71) 
-20.9587

>  <r_i_glide_ecoul>  (71) 
0.409782

>  <r_i_glide_erotb>  (71) 
0

>  <r_i_glide_esite>  (71) 
0

>  <r_i_glide_emodel>  (71) 
-25.1896

>  <r_i_glide_energy>  (71) 
-20.5489

>  <r_i_glide_einternal>  (71) 
0.00309876

>  <r_i_glide_intrahb_reward>  (71) 
-0

>  <i_i_glide_confnum>  (71) 
1

>  <i_i_glide_posenum>  (71) 
6

>  <r_i_glide_eff_state_penalty>  (71) 
0

>  <ligand_id>  (71) 
27

>  <original_smiles>  (71) 
C=C1C2CC3C4C=CC2OC3(C)CC1(O)O4

>  <smiles>  (71) 
[H]OC12OC3([H])C([H])=C([H])C4([H])OC(C([H])([H])[H])(C1([H])[H])C3([H])C([H])([H])C4([H])C2=C([H])[H]

$$$$
27:0:2
     RDKit          3D

 32 35  0  0  1  0  0  0  0  0999 V2000
    3.9423   -3.4934    2.5871 C   0  0  0  0  0  0  0  0  0  0  0  0
    4.3572   -3.3960    1.3095 C   0  0  0  0  0  0  0  0  0  0  0  0
    3.9010   -2.1368    0.4623 C   0  0  2  0  0  0  0  0  0  0  0  0
    3.7223   -2.9361   -0.6692 C   0  0  0  0  0  0  0  0  0  0  0  0
    5.4402   -3.1482   -1.1774 C   0  0  2  0  0  0  0  0  0  0  0  0
    5.2219   -3.8448   -2.2630 C   0  0  2  0  0  0  0  0  0  0  0  0
    4.6691   -2.2913   -2.8122 C   0  0  0  0  0  0  0  0  0  0  0  0
    4.6190   -1.0641   -2.0222 C   0  0  0  0  0  0  0  0  0  0  0  0
    4.8104   -1.0424   -0.3249 C   0  0  2  0  0  0  0  0  0  0  0  0
    6.1344   -1.5013    0.1862 O   0  0  0  0  0  0  0  0  0  0  0  0
    6.5916   -2.8649   -0.1707 C   0  0  2  0  0  0  0  0  0  0  0  0
    8.1042   -2.7039   -0.5640 C   0  0  0  0  0  0  0  0  0  0  0  0
    6.5456   -4.0691    0.7714 C   0  0  0  0  0  0  0  0  0  0  0  0
    5.1488   -4.6157    0.5870 C   0  0  1  0  0  0  0  0  0  0  0  0
    5.0224   -5.8314    1.2833 O   0  0  0  0  0  0  0  0  0  0  0  0
    4.9844   -4.8073   -0.9847 O   0  0  0  0  0  0  0  0  0  0  0  0
    4.1708   -4.3560    3.1972 H   0  0  0  0  0  0  0  0  0  0  0  0
    3.3620   -2.7040    3.0418 H   0  0  0  0  0  0  0  0  0  0  0  0
    2.9476   -1.7301    0.8042 H   0  0  0  0  0  0  0  0  0  0  0  0
    3.0883   -3.8186   -0.4967 H   0  0  0  0  0  0  0  0  0  0  0  0
    2.9290   -2.4852   -1.2835 H   0  0  0  0  0  0  0  0  0  0  0  0
    6.2622   -2.5522   -1.6376 H   0  0  0  0  0  0  0  0  0  0  0  0
    6.1213   -4.1434   -2.8016 H   0  0  0  0  0  0  0  0  0  0  0  0
    4.4628   -2.2261   -3.8680 H   0  0  0  0  0  0  0  0  0  0  0  0
    4.3308   -0.1297   -2.4852 H   0  0  0  0  0  0  0  0  0  0  0  0
    4.6103   -0.0388    0.0492 H   0  0  0  0  0  0  0  0  0  0  0  0
    8.4899   -3.6000   -1.0548 H   0  0  0  0  0  0  0  0  0  0  0  0
    8.7051   -2.5354    0.3328 H   0  0  0  0  0  0  0  0  0  0  0  0
    8.2917   -1.8601   -1.2262 H   0  0  0  0  0  0  0  0  0  0  0  0
    7.2525   -4.8419    0.4687 H   0  0  0  0  0  0  0  0  0  0  0  0
    6.7516   -3.8064    1.8113 H   0  0  0  0  0  0  0  0  0  0  0  0
    5.8061   -6.3302    1.1107 H   0  0  0  0  0  0  0  0  0  0  0  0
  1  2  2  0
  1 17  1  0
  1 18  1  0
  2 14  1  0
  2  3  1  0
  3  9  1  0
  3  4  1  0
  3 19  1  1
  4  5  1  0
  4 20  1  0
  4 21  1  0
  5 11  1  0
  5  6  1  0
  5 22  1  6
  6 16  1  0
  6  7  1  0
  6 23  1  6
  7  8  2  0
  7 24  1  0
  8  9  1  0
  8 25  1  0
  9 10  1  0
  9 26  1  1
 10 11  1  0
 11 12  1  6
 11 13  1  0
 12 27  1  0
 12 28  1  0
 12 29  1  0
 13 14  1  0
 13 30  1  0
 13 31  1  0
 14 15  1  1
 14 16  1  0
 15 32  1  0
M  END
>  <i_m_ct_stereo_status>  (72) 
1

>  <s_m_source_file>  (72) 
/var/tmp/pbs.5076255.sched01/tmp0du1nuht/0914ajmtz.sdf

>  <i_m_source_file_index>  (72) 
31

>  <i_lp_mmshare_version>  (72) 
48012

>  <i_f3d_flags>  (72) 
2

>  <s_epik_input>  (72) 
W0NIMl0xW0NAQF0oTzIpKFtPSF0pQyg9W0NIMl0pW0NAQEhdKFtDSDJdMylbQ0BASF0oTzQpW0NIXT1bQ0hdW0NASF0yW0NIXTNbQ0BAXTE0W0NIM10=

>  <s_epik_cmdline>  (72) 
J2VwaWtfcHl0aG9uJywgJy1waHQnLCAnMi4wJywgJy1waCcsICc3LjAnLCAnLXRuJywgJzgnLCAnLW1hJywgJzIwMCcsICctaW1hZScsICc8aW5maWxlLm1hZT4nLCAnLW9tYWUnLCAnPG91dGZpbGUubWFlPic=

>  <r_lp_tautomer_probability>  (72) 
1

>  <r_epik_Ionization_Penalty>  (72) 
5.19069e-07

>  <r_epik_Ionization_Penalty_Charging>  (72) 
0

>  <r_epik_Ionization_Penalty_Neutral>  (72) 
5.19069e-07

>  <r_epik_State_Penalty>  (72) 
-0

>  <r_epik_Charging_Adjusted_Penalty>  (72) 
0

>  <i_epik_Tot_Q>  (72) 
0

>  <i_epik_Tot_abs_Q>  (72) 
0

>  <s_lp_Force_Field>  (72) 
OPLS3e

>  <r_lp_Energy>  (72) 
472.819

>  <b_lp_Chiralities_Consistent>  (72) 
0

>  <s_lp_Variant>  (72) 
27:0-1

>  <s_i_glide_gridfile>  (72) 
pfpi4k_grid

>  <i_i_glide_lignum>  (72) 
31

>  <i_i_glide_rotatable_bonds>  (72) 
1

>  <r_i_docking_score>  (72) 
-3.25862

>  <r_i_glide_ligand_efficiency>  (72) 
-0.203664

>  <r_i_glide_ligand_efficiency_sa>  (72) 
-0.5132

>  <r_i_glide_ligand_efficiency_ln>  (72) 
-0.863762

>  <r_i_glide_gscore>  (72) 
-3.25862

>  <r_i_glide_lipo>  (72) 
-0.370593

>  <r_i_glide_hbond>  (72) 
0

>  <r_i_glide_metal>  (72) 
-0

>  <r_i_glide_rewards>  (72) 
-1.98891

>  <r_i_glide_evdw>  (72) 
-21.0876

>  <r_i_glide_ecoul>  (72) 
1.03511

>  <r_i_glide_erotb>  (72) 
0

>  <r_i_glide_esite>  (72) 
0

>  <r_i_glide_emodel>  (72) 
-24.5833

>  <r_i_glide_energy>  (72) 
-20.0525

>  <r_i_glide_einternal>  (72) 
0.118662

>  <r_i_glide_intrahb_reward>  (72) 
-0

>  <i_i_glide_confnum>  (72) 
2

>  <i_i_glide_posenum>  (72) 
12

>  <r_i_glide_eff_state_penalty>  (72) 
0

>  <ligand_id>  (72) 
27

>  <original_smiles>  (72) 
C=C1C2CC3C4C=CC2OC3(C)CC1(O)O4

>  <smiles>  (72) 
[H]OC12OC3([H])C([H])=C([H])C4([H])OC(C([H])([H])[H])(C1([H])[H])C3([H])C([H])([H])C4([H])C2=C([H])[H]

$$$$
28:0:0
     RDKit          3D

 38 41  0  0  1  0  0  0  0  0999 V2000
    2.0417   -9.1568    2.1224 C   0  0  0  0  0  0  0  0  0  0  0  0
    2.2543   -7.6731    2.2490 C   0  0  0  0  0  0  0  0  0  0  0  0
    1.4264   -7.0135    3.0694 N   0  0  0  0  0  0  0  0  0  0  0  0
    1.7803   -5.7114    3.0429 N   0  0  0  0  0  0  0  0  0  0  0  0
    1.1941   -4.7385    3.7352 N   0  0  0  0  0  0  0  0  0  0  0  0
    1.7744   -3.5412    3.5079 C   0  0  0  0  0  0  0  0  0  0  0  0
    2.8345   -3.2769    2.7189 N   0  0  0  0  0  0  0  0  0  0  0  0
    3.4328   -4.2805    2.0135 C   0  0  0  0  0  0  0  0  0  0  0  0
    4.6045   -3.8875    1.2787 N   0  0  0  0  0  0  0  0  0  0  0  0
    4.6559   -4.3385   -0.1040 C   0  0  0  0  0  0  0  0  0  0  0  0
    5.1920   -2.9728   -0.4892 C   0  0  0  0  0  0  0  0  0  0  0  0
    4.7207   -2.3488   -1.7802 C   0  0  0  0  0  0  0  0  0  0  0  0
    4.2408   -3.1703   -2.8198 C   0  0  0  0  0  0  0  0  0  0  0  0
    3.6616   -2.5921   -3.9576 C   0  0  0  0  0  0  0  0  0  0  0  0
    3.6001   -1.1922   -4.0900 C   0  0  0  0  0  0  0  0  0  0  0  0
    4.0995   -0.3700   -3.0591 C   0  0  0  0  0  0  0  0  0  0  0  0
    4.6520   -0.9521   -1.9008 C   0  0  0  0  0  0  0  0  0  0  0  0
    4.6586   -2.4770    0.8437 C   0  0  0  0  0  0  0  0  0  0  0  0
    2.8574   -5.5947    2.1840 C   0  0  0  0  0  0  0  0  0  0  0  0
    3.2311   -6.8495    1.5901 C   0  0  0  0  0  0  0  0  0  0  0  0
    4.2632   -7.3213    0.5904 C   0  0  0  0  0  0  0  0  0  0  0  0
    2.7982   -9.6559    1.5145 H   0  0  0  0  0  0  0  0  0  0  0  0
    1.0699   -9.3620    1.6728 H   0  0  0  0  0  0  0  0  0  0  0  0
    2.0524   -9.6324    3.1068 H   0  0  0  0  0  0  0  0  0  0  0  0
    1.3382   -2.6888    4.0074 H   0  0  0  0  0  0  0  0  0  0  0  0
    5.4069   -5.1051   -0.2949 H   0  0  0  0  0  0  0  0  0  0  0  0
    3.6610   -4.5501   -0.5114 H   0  0  0  0  0  0  0  0  0  0  0  0
    6.2771   -2.9913   -0.4797 H   0  0  0  0  0  0  0  0  0  0  0  0
    4.2512   -4.2445   -2.7331 H   0  0  0  0  0  0  0  0  0  0  0  0
    3.2471   -3.2394   -4.7211 H   0  0  0  0  0  0  0  0  0  0  0  0
    3.1542   -0.7460   -4.9709 H   0  0  0  0  0  0  0  0  0  0  0  0
    4.0222    0.7081   -3.1319 H   0  0  0  0  0  0  0  0  0  0  0  0
    4.9786   -0.3211   -1.0825 H   0  0  0  0  0  0  0  0  0  0  0  0
    3.6834   -2.0009    0.7048 H   0  0  0  0  0  0  0  0  0  0  0  0
    5.3518   -1.8476    1.4080 H   0  0  0  0  0  0  0  0  0  0  0  0
    5.2892   -7.2025    0.9387 H   0  0  0  0  0  0  0  0  0  0  0  0
    4.1626   -6.8466   -0.3802 H   0  0  0  0  0  0  0  0  0  0  0  0
    4.1483   -8.3756    0.3468 H   0  0  0  0  0  0  0  0  0  0  0  0
  1  2  1  0
  1 22  1  0
  1 23  1  0
  1 24  1  0
  2 20  1  0
  2  3  2  0
  3  4  1  0
  4 19  1  0
  4  5  1  0
  5  6  2  0
  6  7  1  0
  6 25  1  0
  7  8  2  0
  8  9  1  0
  8 19  1  0
  9 18  1  0
  9 10  1  0
 10 11  1  0
 10 26  1  0
 10 27  1  0
 11 12  1  0
 11 18  1  0
 11 28  1  0
 12 17  1  0
 12 13  2  0
 13 14  1  0
 13 29  1  0
 14 15  2  0
 14 30  1  0
 15 16  1  0
 15 31  1  0
 16 17  2  0
 16 32  1  0
 17 33  1  0
 18 34  1  0
 18 35  1  0
 19 20  2  0
 20 21  1  0
 21 36  1  0
 21 37  1  0
 21 38  1  0
M  END
>  <i_m_ct_stereo_status>  (73) 
1

>  <s_m_source_file>  (73) 
/var/tmp/pbs.5076255.sched01/tmp0du1nuht/0914ajmtz.sdf

>  <i_m_source_file_index>  (73) 
32

>  <i_lp_mmshare_version>  (73) 
48012

>  <i_f3d_flags>  (73) 
0

>  <s_epik_input>  (73) 
W0NIM11jKG4xKWMoW0NIM10pYyhuMTIpYyhuW2NIXW4yKU4zW0NIMl1bQ0hdKFtDSDJdMyljNFtjSF1bY0hdW2NIXVtjSF1bY0hdNA==

>  <s_epik_cmdline>  (73) 
J2VwaWtfcHl0aG9uJywgJy1waHQnLCAnMi4wJywgJy1waCcsICc3LjAnLCAnLXRuJywgJzgnLCAnLW1hJywgJzIwMCcsICctaW1hZScsICc8aW5maWxlLm1hZT4nLCAnLW9tYWUnLCAnPG91dGZpbGUubWFlPic=

>  <r_epik_Ionization_Penalty>  (73) 
0.00132659

>  <r_epik_Ionization_Penalty_Charging>  (73) 
0

>  <r_epik_Ionization_Penalty_Neutral>  (73) 
0.00132659

>  <r_epik_State_Penalty>  (73) 
0.000728389

>  <r_epik_Charging_Adjusted_Penalty>  (73) 
0.000728389

>  <i_epik_Tot_Q>  (73) 
0

>  <i_epik_Tot_abs_Q>  (73) 
0

>  <s_lp_Force_Field>  (73) 
OPLS3e

>  <r_lp_Energy>  (73) 
26.8145

>  <b_lp_Chiralities_Consistent>  (73) 
1

>  <s_lp_Variant>  (73) 
28:0-1

>  <s_i_glide_gridfile>  (73) 
pfpi4k_grid

>  <i_i_glide_lignum>  (73) 
32

>  <i_i_glide_rotatable_bonds>  (73) 
2

>  <r_i_docking_score>  (73) 
-3.45366

>  <r_i_glide_ligand_efficiency>  (73) 
-0.16446

>  <r_i_glide_ligand_efficiency_sa>  (73) 
-0.453733

>  <r_i_glide_ligand_efficiency_ln>  (73) 
-0.853911

>  <r_i_glide_gscore>  (73) 
-3.45366

>  <r_i_glide_lipo>  (73) 
-0.663986

>  <r_i_glide_hbond>  (73) 
0

>  <r_i_glide_metal>  (73) 
-0

>  <r_i_glide_rewards>  (73) 
-1.55718

>  <r_i_glide_evdw>  (73) 
-25.3476

>  <r_i_glide_ecoul>  (73) 
-2.74636

>  <r_i_glide_erotb>  (73) 
0.462418

>  <r_i_glide_esite>  (73) 
-0.0155784

>  <r_i_glide_emodel>  (73) 
-33.7309

>  <r_i_glide_energy>  (73) 
-28.0939

>  <r_i_glide_einternal>  (73) 
0.98413

>  <r_i_glide_intrahb_reward>  (73) 
-0

>  <i_i_glide_confnum>  (73) 
3

>  <i_i_glide_posenum>  (73) 
14

>  <r_i_glide_eff_state_penalty>  (73) 
0

>  <ligand_id>  (73) 
28

>  <original_smiles>  (73) 
Cc1nn2ncnc(N3CC(c4ccccc4)C3)c2c1C

>  <smiles>  (73) 
[H]c1nc(N2C([H])([H])C([H])(c3c([H])c([H])c([H])c([H])c3[H])C2([H])[H])c2c(C([H])([H])[H])c(C([H])([H])[H])nn2n1

$$$$
28:0:1
     RDKit          3D

 38 41  0  0  1  0  0  0  0  0999 V2000
    8.6522   -2.3021   -0.3071 C   0  0  0  0  0  0  0  0  0  0  0  0
    7.2318   -2.7679   -0.2549 C   0  0  0  0  0  0  0  0  0  0  0  0
    6.3357   -2.1163   -1.0105 N   0  0  0  0  0  0  0  0  0  0  0  0
    5.1436   -2.6982   -0.7808 N   0  0  0  0  0  0  0  0  0  0  0  0
    3.9934   -2.3401   -1.3416 N   0  0  0  0  0  0  0  0  0  0  0  0
    2.9632   -3.0864   -0.9195 C   0  0  0  0  0  0  0  0  0  0  0  0
    3.0005   -4.1254   -0.0409 N   0  0  0  0  0  0  0  0  0  0  0  0
    4.2021   -4.5139    0.4780 C   0  0  0  0  0  0  0  0  0  0  0  0
    4.2345   -5.6541    1.3400 N   0  0  0  0  0  0  0  0  0  0  0  0
    3.5468   -5.4529    2.6177 C   0  0  0  0  0  0  0  0  0  0  0  0
    2.9621   -6.8551    2.4742 C   0  0  0  0  0  0  0  0  0  0  0  0
    1.5230   -7.1166    2.9202 C   0  0  0  0  0  0  0  0  0  0  0  0
    1.0343   -6.5603    4.1180 C   0  0  0  0  0  0  0  0  0  0  0  0
   -0.3183   -6.7157    4.4804 C   0  0  0  0  0  0  0  0  0  0  0  0
   -1.1877   -7.4508    3.6502 C   0  0  0  0  0  0  0  0  0  0  0  0
   -0.7014   -8.0312    2.4645 C   0  0  0  0  0  0  0  0  0  0  0  0
    0.6502   -7.8678    2.1097 C   0  0  0  0  0  0  0  0  0  0  0  0
    3.3023   -6.7388    0.9945 C   0  0  0  0  0  0  0  0  0  0  0  0
    5.3376   -3.7356    0.1112 C   0  0  0  0  0  0  0  0  0  0  0  0
    6.6959   -3.8485    0.5274 C   0  0  0  0  0  0  0  0  0  0  0  0
    7.4016   -4.7756    1.4876 C   0  0  0  0  0  0  0  0  0  0  0  0
    9.3530   -2.9364    0.2403 H   0  0  0  0  0  0  0  0  0  0  0  0
    8.7329   -1.2962    0.1004 H   0  0  0  0  0  0  0  0  0  0  0  0
    8.9872   -2.2694   -1.3412 H   0  0  0  0  0  0  0  0  0  0  0  0
    1.9855   -2.8472   -1.3203 H   0  0  0  0  0  0  0  0  0  0  0  0
    4.2003   -5.3417    3.4858 H   0  0  0  0  0  0  0  0  0  0  0  0
    2.7672   -4.6973    2.5708 H   0  0  0  0  0  0  0  0  0  0  0  0
    3.6069   -7.5922    2.9477 H   0  0  0  0  0  0  0  0  0  0  0  0
    1.6916   -5.9750    4.7455 H   0  0  0  0  0  0  0  0  0  0  0  0
   -0.6890   -6.2486    5.3875 H   0  0  0  0  0  0  0  0  0  0  0  0
   -2.2265   -7.5755    3.9229 H   0  0  0  0  0  0  0  0  0  0  0  0
   -1.3593   -8.5885    1.8043 H   0  0  0  0  0  0  0  0  0  0  0  0
    1.0080   -8.3005    1.1889 H   0  0  0  0  0  0  0  0  0  0  0  0
    2.4219   -6.4220    0.4499 H   0  0  0  0  0  0  0  0  0  0  0  0
    3.7426   -7.6440    0.5730 H   0  0  0  0  0  0  0  0  0  0  0  0
    7.4827   -5.8086    1.1455 H   0  0  0  0  0  0  0  0  0  0  0  0
    6.9489   -4.8104    2.4774 H   0  0  0  0  0  0  0  0  0  0  0  0
    8.4203   -4.4443    1.6551 H   0  0  0  0  0  0  0  0  0  0  0  0
  1  2  1  0
  1 22  1  0
  1 23  1  0
  1 24  1  0
  2 20  1  0
  2  3  2  0
  3  4  1  0
  4 19  1  0
  4  5  1  0
  5  6  2  0
  6  7  1  0
  6 25  1  0
  7  8  2  0
  8  9  1  0
  8 19  1  0
  9 18  1  0
  9 10  1  0
 10 11  1  0
 10 26  1  0
 10 27  1  0
 11 12  1  0
 11 18  1  0
 11 28  1  0
 12 17  1  0
 12 13  2  0
 13 14  1  0
 13 29  1  0
 14 15  2  0
 14 30  1  0
 15 16  1  0
 15 31  1  0
 16 17  2  0
 16 32  1  0
 17 33  1  0
 18 34  1  0
 18 35  1  0
 19 20  2  0
 20 21  1  0
 21 36  1  0
 21 37  1  0
 21 38  1  0
M  END
>  <i_m_ct_stereo_status>  (74) 
1

>  <s_m_source_file>  (74) 
/var/tmp/pbs.5076255.sched01/tmp0du1nuht/0914ajmtz.sdf

>  <i_m_source_file_index>  (74) 
32

>  <i_lp_mmshare_version>  (74) 
48012

>  <i_f3d_flags>  (74) 
0

>  <s_epik_input>  (74) 
W0NIM11jKG4xKWMoW0NIM10pYyhuMTIpYyhuW2NIXW4yKU4zW0NIMl1bQ0hdKFtDSDJdMyljNFtjSF1bY0hdW2NIXVtjSF1bY0hdNA==

>  <s_epik_cmdline>  (74) 
J2VwaWtfcHl0aG9uJywgJy1waHQnLCAnMi4wJywgJy1waCcsICc3LjAnLCAnLXRuJywgJzgnLCAnLW1hJywgJzIwMCcsICctaW1hZScsICc8aW5maWxlLm1hZT4nLCAnLW9tYWUnLCAnPG91dGZpbGUubWFlPic=

>  <r_epik_Ionization_Penalty>  (74) 
0.00132659

>  <r_epik_Ionization_Penalty_Charging>  (74) 
0

>  <r_epik_Ionization_Penalty_Neutral>  (74) 
0.00132659

>  <r_epik_State_Penalty>  (74) 
0.000728389

>  <r_epik_Charging_Adjusted_Penalty>  (74) 
0.000728389

>  <i_epik_Tot_Q>  (74) 
0

>  <i_epik_Tot_abs_Q>  (74) 
0

>  <s_lp_Force_Field>  (74) 
OPLS3e

>  <r_lp_Energy>  (74) 
26.8145

>  <b_lp_Chiralities_Consistent>  (74) 
1

>  <s_lp_Variant>  (74) 
28:0-1

>  <s_i_glide_gridfile>  (74) 
pfpi4k_grid

>  <i_i_glide_lignum>  (74) 
32

>  <i_i_glide_rotatable_bonds>  (74) 
2

>  <r_i_docking_score>  (74) 
-3.32998

>  <r_i_glide_ligand_efficiency>  (74) 
-0.158571

>  <r_i_glide_ligand_efficiency_sa>  (74) 
-0.437484

>  <r_i_glide_ligand_efficiency_ln>  (74) 
-0.823331

>  <r_i_glide_gscore>  (74) 
-3.32998

>  <r_i_glide_lipo>  (74) 
-0.37902

>  <r_i_glide_hbond>  (74) 
-0.101629

>  <r_i_glide_metal>  (74) 
-0

>  <r_i_glide_rewards>  (74) 
-1.56122

>  <r_i_glide_evdw>  (74) 
-25.7181

>  <r_i_glide_ecoul>  (74) 
-3.03006

>  <r_i_glide_erotb>  (74) 
0.462418

>  <r_i_glide_esite>  (74) 
-0.0101201

>  <r_i_glide_emodel>  (74) 
-33.7822

>  <r_i_glide_energy>  (74) 
-28.7481

>  <r_i_glide_einternal>  (74) 
2.27055

>  <r_i_glide_intrahb_reward>  (74) 
-0

>  <i_i_glide_confnum>  (74) 
3

>  <i_i_glide_posenum>  (74) 
25

>  <r_i_glide_eff_state_penalty>  (74) 
0

>  <ligand_id>  (74) 
28

>  <original_smiles>  (74) 
Cc1nn2ncnc(N3CC(c4ccccc4)C3)c2c1C

>  <smiles>  (74) 
[H]c1nc(N2C([H])([H])C([H])(c3c([H])c([H])c([H])c([H])c3[H])C2([H])[H])c2c(C([H])([H])[H])c(C([H])([H])[H])nn2n1

$$$$
28:0:2
     RDKit          3D

 38 41  0  0  1  0  0  0  0  0999 V2000
    0.9159   -8.1479    2.9062 C   0  0  0  0  0  0  0  0  0  0  0  0
    1.3888   -6.7215    2.8505 C   0  0  0  0  0  0  0  0  0  0  0  0
    0.7434   -5.8459    3.6314 N   0  0  0  0  0  0  0  0  0  0  0  0
    1.3220   -4.6368    3.4521 N   0  0  0  0  0  0  0  0  0  0  0  0
    0.9664   -3.5072    4.0593 N   0  0  0  0  0  0  0  0  0  0  0  0
    1.7147   -2.4604    3.6490 C   0  0  0  0  0  0  0  0  0  0  0  0
    2.7431   -2.4767    2.7800 N   0  0  0  0  0  0  0  0  0  0  0  0
    3.1109   -3.6390    2.1661 C   0  0  0  0  0  0  0  0  0  0  0  0
    4.2780   -3.5508    1.3302 N   0  0  0  0  0  0  0  0  0  0  0  0
    4.1220   -4.0783   -0.0206 C   0  0  0  0  0  0  0  0  0  0  0  0
    4.9083   -2.8864   -0.5295 C   0  0  0  0  0  0  0  0  0  0  0  0
    4.5032   -2.2549   -1.8344 C   0  0  0  0  0  0  0  0  0  0  0  0
    4.5916   -0.8614   -1.9908 C   0  0  0  0  0  0  0  0  0  0  0  0
    4.0829   -0.2584   -3.1534 C   0  0  0  0  0  0  0  0  0  0  0  0
    3.4870   -1.0391   -4.1624 C   0  0  0  0  0  0  0  0  0  0  0  0
    3.4020   -2.4382   -3.9946 C   0  0  0  0  0  0  0  0  0  0  0  0
    3.9243   -3.0416   -2.8435 C   0  0  0  0  0  0  0  0  0  0  0  0
    4.5913   -2.2100    0.7917 C   0  0  0  0  0  0  0  0  0  0  0  0
    2.3326   -4.8024    2.5245 C   0  0  0  0  0  0  0  0  0  0  0  0
    2.4437   -6.1547    2.0560 C   0  0  0  0  0  0  0  0  0  0  0  0
    3.3093   -6.8991    1.0677 C   0  0  0  0  0  0  0  0  0  0  0  0
    1.5331   -8.8342    2.3250 H   0  0  0  0  0  0  0  0  0  0  0  0
   -0.1066   -8.2249    2.5307 H   0  0  0  0  0  0  0  0  0  0  0  0
    0.9100   -8.5102    3.9376 H   0  0  0  0  0  0  0  0  0  0  0  0
    1.4622   -1.4955    4.0626 H   0  0  0  0  0  0  0  0  0  0  0  0
    4.6838   -4.9921   -0.2068 H   0  0  0  0  0  0  0  0  0  0  0  0
    3.0819   -4.0932   -0.3638 H   0  0  0  0  0  0  0  0  0  0  0  0
    5.9613   -3.1361   -0.5814 H   0  0  0  0  0  0  0  0  0  0  0  0
    4.9928   -0.2515   -1.1927 H   0  0  0  0  0  0  0  0  0  0  0  0
    4.1218    0.8221   -3.2509 H   0  0  0  0  0  0  0  0  0  0  0  0
    3.0851   -0.5677   -5.0509 H   0  0  0  0  0  0  0  0  0  0  0  0
    2.9113   -3.0545   -4.7356 H   0  0  0  0  0  0  0  0  0  0  0  0
    3.8274   -4.1102   -2.7146 H   0  0  0  0  0  0  0  0  0  0  0  0
    3.7289   -1.5471    0.6766 H   0  0  0  0  0  0  0  0  0  0  0  0
    5.4402   -1.7078    1.2637 H   0  0  0  0  0  0  0  0  0  0  0  0
    4.3625   -6.9330    1.3478 H   0  0  0  0  0  0  0  0  0  0  0  0
    3.2215   -6.5065    0.0627 H   0  0  0  0  0  0  0  0  0  0  0  0
    2.9918   -7.9331    0.9463 H   0  0  0  0  0  0  0  0  0  0  0  0
  1  2  1  0
  1 22  1  0
  1 23  1  0
  1 24  1  0
  2 20  1  0
  2  3  2  0
  3  4  1  0
  4 19  1  0
  4  5  1  0
  5  6  2  0
  6  7  1  0
  6 25  1  0
  7  8  2  0
  8  9  1  0
  8 19  1  0
  9 18  1  0
  9 10  1  0
 10 11  1  0
 10 26  1  0
 10 27  1  0
 11 12  1  0
 11 18  1  0
 11 28  1  0
 12 17  1  0
 12 13  2  0
 13 14  1  0
 13 29  1  0
 14 15  2  0
 14 30  1  0
 15 16  1  0
 15 31  1  0
 16 17  2  0
 16 32  1  0
 17 33  1  0
 18 34  1  0
 18 35  1  0
 19 20  2  0
 20 21  1  0
 21 36  1  0
 21 37  1  0
 21 38  1  0
M  END
>  <i_m_ct_stereo_status>  (75) 
1

>  <s_m_source_file>  (75) 
/var/tmp/pbs.5076255.sched01/tmp0du1nuht/0914ajmtz.sdf

>  <i_m_source_file_index>  (75) 
32

>  <i_lp_mmshare_version>  (75) 
48012

>  <i_f3d_flags>  (75) 
0

>  <s_epik_input>  (75) 
W0NIM11jKG4xKWMoW0NIM10pYyhuMTIpYyhuW2NIXW4yKU4zW0NIMl1bQ0hdKFtDSDJdMyljNFtjSF1bY0hdW2NIXVtjSF1bY0hdNA==

>  <s_epik_cmdline>  (75) 
J2VwaWtfcHl0aG9uJywgJy1waHQnLCAnMi4wJywgJy1waCcsICc3LjAnLCAnLXRuJywgJzgnLCAnLW1hJywgJzIwMCcsICctaW1hZScsICc8aW5maWxlLm1hZT4nLCAnLW9tYWUnLCAnPG91dGZpbGUubWFlPic=

>  <r_epik_Ionization_Penalty>  (75) 
0.00132659

>  <r_epik_Ionization_Penalty_Charging>  (75) 
0

>  <r_epik_Ionization_Penalty_Neutral>  (75) 
0.00132659

>  <r_epik_State_Penalty>  (75) 
0.000728389

>  <r_epik_Charging_Adjusted_Penalty>  (75) 
0.000728389

>  <i_epik_Tot_Q>  (75) 
0

>  <i_epik_Tot_abs_Q>  (75) 
0

>  <s_lp_Force_Field>  (75) 
OPLS3e

>  <r_lp_Energy>  (75) 
26.8145

>  <b_lp_Chiralities_Consistent>  (75) 
1

>  <s_lp_Variant>  (75) 
28:0-1

>  <s_i_glide_gridfile>  (75) 
pfpi4k_grid

>  <i_i_glide_lignum>  (75) 
32

>  <i_i_glide_rotatable_bonds>  (75) 
2

>  <r_i_docking_score>  (75) 
-3.0985

>  <r_i_glide_ligand_efficiency>  (75) 
-0.147547

>  <r_i_glide_ligand_efficiency_sa>  (75) 
-0.407072

>  <r_i_glide_ligand_efficiency_ln>  (75) 
-0.766097

>  <r_i_glide_gscore>  (75) 
-3.0985

>  <r_i_glide_lipo>  (75) 
-0.401151

>  <r_i_glide_hbond>  (75) 
0

>  <r_i_glide_metal>  (75) 
-0

>  <r_i_glide_rewards>  (75) 
-1.55433

>  <r_i_glide_evdw>  (75) 
-23.3611

>  <r_i_glide_ecoul>  (75) 
-2.83022

>  <r_i_glide_erotb>  (75) 
0.462418

>  <r_i_glide_esite>  (75) 
-0.0128446

>  <r_i_glide_emodel>  (75) 
-31.2488

>  <r_i_glide_energy>  (75) 
-26.1913

>  <r_i_glide_einternal>  (75) 
0.751682

>  <r_i_glide_intrahb_reward>  (75) 
-0

>  <i_i_glide_confnum>  (75) 
3

>  <i_i_glide_posenum>  (75) 
17

>  <r_i_glide_eff_state_penalty>  (75) 
0

>  <ligand_id>  (75) 
28

>  <original_smiles>  (75) 
Cc1nn2ncnc(N3CC(c4ccccc4)C3)c2c1C

>  <smiles>  (75) 
[H]c1nc(N2C([H])([H])C([H])(c3c([H])c([H])c([H])c([H])c3[H])C2([H])[H])c2c(C([H])([H])[H])c(C([H])([H])[H])nn2n1

$$$$
30:0:0
     RDKit          3D

 63 66  0  0  1  0  0  0  0  0999 V2000
    1.4823    3.3022    7.9480 C   0  0  0  0  0  0  0  0  0  0  0  0
    0.9327    3.8009    6.6207 C   0  0  0  0  0  0  0  0  0  0  0  0
    0.8151    5.0036    6.4431 O   0  0  0  0  0  0  0  0  0  0  0  0
    0.6928    2.7696    5.7206 O   0  0  0  0  0  0  0  0  0  0  0  0
    0.4176    2.9332    4.3030 C   0  0  1  0  0  0  0  0  0  0  0  0
   -0.5684    4.1433    4.0466 C   0  0  0  0  0  0  0  0  0  0  0  0
   -1.7118    4.1202    4.5206 O   0  0  0  0  0  0  0  0  0  0  0  0
   -0.1202    5.3910    3.2599 C   0  0  0  0  0  0  0  0  0  0  0  0
   -0.1148    6.5446    4.0634 O   0  0  0  0  0  0  0  0  0  0  0  0
    1.7617    3.0529    3.4981 C   0  0  1  0  0  0  0  0  0  0  0  0
    2.8610    3.9781    4.0613 C   0  0  0  0  0  0  0  0  0  0  0  0
    2.2641    1.6286    3.2612 C   0  0  0  0  0  0  0  0  0  0  0  0
    1.1311    0.6549    3.6322 C   0  0  1  0  0  0  0  0  0  0  0  0
    1.4909   -0.2837    4.8255 C   0  0  2  0  0  0  0  0  0  0  0  0
    2.7534   -1.1313    4.4806 C   0  0  1  0  0  0  0  0  0  0  0  0
    3.8925   -0.5687    5.0960 O   0  0  0  0  0  0  0  0  0  0  0  0
    2.7096   -2.5917    4.8581 C   0  0  0  0  0  0  0  0  0  0  0  0
    1.7804   -3.1662    5.6572 C   0  0  0  0  0  0  0  0  0  0  0  0
    1.9069   -4.6330    6.0452 C   0  0  0  0  0  0  0  0  0  0  0  0
    0.5680   -5.3455    6.1662 C   0  0  0  0  0  0  0  0  0  0  0  0
    0.5340   -6.5677    6.0393 O   0  0  0  0  0  0  0  0  0  0  0  0
   -0.6202   -4.5652    6.4817 C   0  0  0  0  0  0  0  0  0  0  0  0
   -0.5871   -3.2174    6.5165 C   0  0  0  0  0  0  0  0  0  0  0  0
    0.6322   -2.3282    6.2381 C   0  0  1  0  0  0  0  0  0  0  0  0
    1.1493   -1.8473    7.6087 C   0  0  0  0  0  0  0  0  0  0  0  0
    0.2723   -1.1521    5.2437 C   0  0  2  0  0  0  0  0  0  0  0  0
   -0.1452   -1.7784    4.1416 F   0  0  0  0  0  0  0  0  0  0  0  0
   -0.9236   -0.2373    5.6383 C   0  0  1  0  0  0  0  0  0  0  0  0
   -0.8195    0.3633    6.9215 O   0  0  0  0  0  0  0  0  0  0  0  0
   -1.2788    0.8582    4.6063 C   0  0  0  0  0  0  0  0  0  0  0  0
   -0.1379    1.5485    3.7862 C   0  0  1  0  0  0  0  0  0  0  0  0
   -0.7448    1.6780    2.3537 C   0  0  0  0  0  0  0  0  0  0  0  0
    0.7462    2.6693    8.4463 H   0  0  0  0  0  0  0  0  0  0  0  0
    1.6997    4.1639    8.5870 H   0  0  0  0  0  0  0  0  0  0  0  0
    2.4108    2.7640    7.7794 H   0  0  0  0  0  0  0  0  0  0  0  0
    0.8649    5.3280    2.7987 H   0  0  0  0  0  0  0  0  0  0  0  0
   -0.8365    5.5626    2.4658 H   0  0  0  0  0  0  0  0  0  0  0  0
    0.1826    7.2609    3.5031 H   0  0  0  0  0  0  0  0  0  0  0  0
    1.5446    3.4043    2.4949 H   0  0  0  0  0  0  0  0  0  0  0  0
    3.2450    3.6062    5.0094 H   0  0  0  0  0  0  0  0  0  0  0  0
    2.5083    4.9902    4.2246 H   0  0  0  0  0  0  0  0  0  0  0  0
    3.7169    4.0364    3.3830 H   0  0  0  0  0  0  0  0  0  0  0  0
    2.5211    1.5234    2.2118 H   0  0  0  0  0  0  0  0  0  0  0  0
    3.1842    1.4641    3.8202 H   0  0  0  0  0  0  0  0  0  0  0  0
    0.9850   -0.0101    2.7683 H   0  0  0  0  0  0  0  0  0  0  0  0
    1.7305    0.3526    5.6832 H   0  0  0  0  0  0  0  0  0  0  0  0
    2.9104   -1.1267    3.4008 H   0  0  0  0  0  0  0  0  0  0  0  0
    4.0768    0.2665    4.6679 H   0  0  0  0  0  0  0  0  0  0  0  0
    3.5334   -3.1864    4.4906 H   0  0  0  0  0  0  0  0  0  0  0  0
    2.5201   -5.1561    5.3104 H   0  0  0  0  0  0  0  0  0  0  0  0
    2.4224   -4.7105    7.0035 H   0  0  0  0  0  0  0  0  0  0  0  0
   -1.5365   -5.1056    6.6922 H   0  0  0  0  0  0  0  0  0  0  0  0
   -1.4922   -2.7003    6.7672 H   0  0  0  0  0  0  0  0  0  0  0  0
    1.5672   -2.6779    8.1756 H   0  0  0  0  0  0  0  0  0  0  0  0
    0.3624   -1.4155    8.2237 H   0  0  0  0  0  0  0  0  0  0  0  0
    1.9474   -1.1106    7.4924 H   0  0  0  0  0  0  0  0  0  0  0  0
   -1.8130   -0.8601    5.7037 H   0  0  0  0  0  0  0  0  0  0  0  0
   -0.0650    0.9543    6.9190 H   0  0  0  0  0  0  0  0  0  0  0  0
   -1.9431    0.3455    3.8971 H   0  0  0  0  0  0  0  0  0  0  0  0
   -1.9204    1.5946    5.0728 H   0  0  0  0  0  0  0  0  0  0  0  0
   -0.9368    0.6924    1.9154 H   0  0  0  0  0  0  0  0  0  0  0  0
   -0.0825    2.1711    1.6440 H   0  0  0  0  0  0  0  0  0  0  0  0
   -1.7065    2.2028    2.3592 H   0  0  0  0  0  0  0  0  0  0  0  0
  1  2  1  0
  1 33  1  0
  1 34  1  0
  1 35  1  0
  2  3  2  0
  2  4  1  0
  5  4  1  1
  5 31  1  0
  5  6  1  0
  5 10  1  0
  6  7  2  0
  6  8  1  0
  8  9  1  0
  8 36  1  0
  8 37  1  0
  9 38  1  0
 10 11  1  0
 10 12  1  0
 10 39  1  6
 11 40  1  0
 11 41  1  0
 11 42  1  0
 12 13  1  0
 12 43  1  0
 12 44  1  0
 13 31  1  0
 13 14  1  0
 13 45  1  6
 14 26  1  0
 14 15  1  0
 14 46  1  1
 15 16  1  0
 15 17  1  0
 15 47  1  6
 16 48  1  0
 17 18  2  0
 17 49  1  0
 18 24  1  0
 18 19  1  0
 19 20  1  0
 19 50  1  0
 19 51  1  0
 20 21  2  0
 20 22  1  0
 22 23  2  0
 22 52  1  0
 23 24  1  0
 23 53  1  0
 24 25  1  1
 24 26  1  0
 25 54  1  0
 25 55  1  0
 25 56  1  0
 26 27  1  6
 26 28  1  0
 28 29  1  0
 28 30  1  0
 28 57  1  1
 29 58  1  0
 30 31  1  0
 30 59  1  0
 30 60  1  0
 31 32  1  6
 32 61  1  0
 32 62  1  0
 32 63  1  0
M  END
>  <i_m_ct_stereo_status>  (76) 
1

>  <s_m_source_file>  (76) 
/var/tmp/pbs.5076255.sched01/tmp0du1nuht/0914ajmtz.sdf

>  <i_m_source_file_index>  (76) 
34

>  <i_lp_mmshare_version>  (76) 
48012

>  <i_f3d_flags>  (76) 
0

>  <s_epik_input>  (76) 
W0NIM11DKD1PKU9bQ0BdKFtDQEBIXShbQ0gzXSlbQ0gyXTEpKEMoPU8pW0NIMl1bT0hdKVtDQF0oW0NIM10pKFtDSDJdW0NAQEhdKFtDQEBdMjNGKVtPSF0pW0NAQEhdMVtDQEBIXTJbQ0BASF0oW09IXSlbQ0hdPUMoW0NAQF0zNFtDSDNdKVtDSDJdQyg9TylbQ0hdPVtDSF00

>  <s_epik_cmdline>  (76) 
J2VwaWtfcHl0aG9uJywgJy1waHQnLCAnMi4wJywgJy1waCcsICc3LjAnLCAnLXRuJywgJzgnLCAnLW1hJywgJzIwMCcsICctaW1hZScsICc8aW5maWxlLm1hZT4nLCAnLW9tYWUnLCAnPG91dGZpbGUubWFlPic=

>  <r_lp_tautomer_probability>  (76) 
1

>  <r_epik_Ionization_Penalty>  (76) 
2.20037e-05

>  <r_epik_Ionization_Penalty_Charging>  (76) 
0

>  <r_epik_Ionization_Penalty_Neutral>  (76) 
2.20037e-05

>  <r_epik_State_Penalty>  (76) 
-0

>  <r_epik_Charging_Adjusted_Penalty>  (76) 
0

>  <i_epik_Tot_Q>  (76) 
0

>  <i_epik_Tot_abs_Q>  (76) 
0

>  <s_epik_Chemistry_Notes>  (76) 
This compound has an ester and may undergo hydrolysis at high or low pH.

>  <s_lp_Force_Field>  (76) 
OPLS3e

>  <r_lp_Energy>  (76) 
69.8782

>  <b_lp_Chiralities_Consistent>  (76) 
1

>  <s_lp_Variant>  (76) 
30:0-1

>  <s_i_glide_gridfile>  (76) 
pfpi4k_grid

>  <i_i_glide_lignum>  (76) 
34

>  <i_i_glide_rotatable_bonds>  (76) 
7

>  <r_i_docking_score>  (76) 
-3.27675

>  <r_i_glide_ligand_efficiency>  (76) 
-0.102398

>  <r_i_glide_ligand_efficiency_sa>  (76) 
-0.325094

>  <r_i_glide_ligand_efficiency_ln>  (76) 
-0.733753

>  <r_i_glide_gscore>  (76) 
-3.27675

>  <r_i_glide_lipo>  (76) 
0

>  <r_i_glide_hbond>  (76) 
-0.00774321

>  <r_i_glide_metal>  (76) 
-0

>  <r_i_glide_rewards>  (76) 
-0.837519

>  <r_i_glide_evdw>  (76) 
-18.9105

>  <r_i_glide_ecoul>  (76) 
-10.73

>  <r_i_glide_erotb>  (76) 
0.207462

>  <r_i_glide_esite>  (76) 
-0.0839237

>  <r_i_glide_emodel>  (76) 
-38.2056

>  <r_i_glide_energy>  (76) 
-29.6405

>  <r_i_glide_einternal>  (76) 
6.61424

>  <r_i_glide_intrahb_reward>  (76) 
-0.5

>  <i_i_glide_confnum>  (76) 
2

>  <i_i_glide_posenum>  (76) 
27

>  <r_i_glide_eff_state_penalty>  (76) 
0

>  <ligand_id>  (76) 
30

>  <original_smiles>  (76) 
CC(=O)OC1(C(=O)CO)C(C)CC2C3C(O)C=C4CC(=O)C=CC4(C)C3(F)C(O)CC21C

>  <smiles>  (76) 
[H]OC([H])([H])C(=O)C1(OC(=O)C([H])([H])[H])C([H])(C([H])([H])[H])C([H])([H])C2([H])C3([H])C([H])(O[H])C([H])=C4C([H])([H])C(=O)C([H])=C([H])C4(C([H])([H])[H])C3(F)C([H])(O[H])C([H])([H])C12C([H])([H])[H]

$$$$
30:0:1
     RDKit          3D

 63 66  0  0  1  0  0  0  0  0999 V2000
    0.7727    2.9439    8.0376 C   0  0  0  0  0  0  0  0  0  0  0  0
   -0.0265    3.0805    6.7535 C   0  0  0  0  0  0  0  0  0  0  0  0
   -1.2380    3.2955    6.7986 O   0  0  0  0  0  0  0  0  0  0  0  0
    0.7377    2.8326    5.6543 O   0  0  0  0  0  0  0  0  0  0  0  0
    0.3694    2.9277    4.2596 C   0  0  1  0  0  0  0  0  0  0  0  0
   -0.5813    4.1570    3.9614 C   0  0  0  0  0  0  0  0  0  0  0  0
   -1.7845    4.1192    4.2137 O   0  0  0  0  0  0  0  0  0  0  0  0
   -0.0516    5.4094    3.2405 C   0  0  0  0  0  0  0  0  0  0  0  0
   -0.0542    6.5360    4.0844 O   0  0  0  0  0  0  0  0  0  0  0  0
    1.7395    3.0480    3.5232 C   0  0  1  0  0  0  0  0  0  0  0  0
    2.7990    3.9849    4.1516 C   0  0  0  0  0  0  0  0  0  0  0  0
    2.2763    1.6309    3.3364 C   0  0  0  0  0  0  0  0  0  0  0  0
    1.1379    0.6405    3.6572 C   0  0  1  0  0  0  0  0  0  0  0  0
    1.4498   -0.2759    4.8831 C   0  0  2  0  0  0  0  0  0  0  0  0
    2.7397   -1.1156    4.6109 C   0  0  1  0  0  0  0  0  0  0  0  0
    3.8359   -0.5182    5.2710 O   0  0  0  0  0  0  0  0  0  0  0  0
    2.6780   -2.5764    5.0168 C   0  0  0  0  0  0  0  0  0  0  0  0
    1.7225   -3.1363    5.7710 C   0  0  0  0  0  0  0  0  0  0  0  0
    1.8329   -4.5978    6.1979 C   0  0  0  0  0  0  0  0  0  0  0  0
    0.4924   -5.3205    6.2565 C   0  0  0  0  0  0  0  0  0  0  0  0
    0.4715   -6.5403    6.1603 O   0  0  0  0  0  0  0  0  0  0  0  0
   -0.7176   -4.5345    6.4864 C   0  0  0  0  0  0  0  0  0  0  0  0
   -0.6868   -3.1947    6.5082 C   0  0  0  0  0  0  0  0  0  0  0  0
    0.5392   -2.3029    6.2847 C   0  0  1  0  0  0  0  0  0  0  0  0
    0.9883   -1.7918    7.6731 C   0  0  0  0  0  0  0  0  0  0  0  0
    0.2197   -1.1570    5.2419 C   0  0  2  0  0  0  0  0  0  0  0  0
   -0.1289   -1.8052    4.1275 F   0  0  0  0  0  0  0  0  0  0  0  0
   -1.0188   -0.2686    5.5618 C   0  0  1  0  0  0  0  0  0  0  0  0
   -1.0089    0.2538    6.8714 O   0  0  0  0  0  0  0  0  0  0  0  0
   -1.3212    0.8265    4.5080 C   0  0  0  0  0  0  0  0  0  0  0  0
   -0.1473    1.5218    3.7368 C   0  0  1  0  0  0  0  0  0  0  0  0
   -0.6749    1.6394    2.2701 C   0  0  0  0  0  0  0  0  0  0  0  0
    1.1802    1.9344    8.1212 H   0  0  0  0  0  0  0  0  0  0  0  0
    0.1297    3.1253    8.9025 H   0  0  0  0  0  0  0  0  0  0  0  0
    1.5967    3.6616    8.0546 H   0  0  0  0  0  0  0  0  0  0  0  0
    0.9350    5.3356    2.7971 H   0  0  0  0  0  0  0  0  0  0  0  0
   -0.7506    5.6403    2.4388 H   0  0  0  0  0  0  0  0  0  0  0  0
    0.2098    7.2865    3.5245 H   0  0  0  0  0  0  0  0  0  0  0  0
    1.5695    3.3935    2.5064 H   0  0  0  0  0  0  0  0  0  0  0  0
    3.1242    3.6338    5.1327 H   0  0  0  0  0  0  0  0  0  0  0  0
    2.4473    5.0084    4.2813 H   0  0  0  0  0  0  0  0  0  0  0  0
    3.6890    4.0295    3.5223 H   0  0  0  0  0  0  0  0  0  0  0  0
    2.5910    1.5133    2.2989 H   0  0  0  0  0  0  0  0  0  0  0  0
    3.1674    1.4741    3.9401 H   0  0  0  0  0  0  0  0  0  0  0  0
    1.0480   -0.0334    2.8014 H   0  0  0  0  0  0  0  0  0  0  0  0
    1.6468    0.3725    5.7375 H   0  0  0  0  0  0  0  0  0  0  0  0
    2.9481   -1.1221    3.5416 H   0  0  0  0  0  0  0  0  0  0  0  0
    4.6278   -0.9549    4.9847 H   0  0  0  0  0  0  0  0  0  0  0  0
    3.5223   -3.1796    4.6979 H   0  0  0  0  0  0  0  0  0  0  0  0
    2.4850   -5.1263    5.5041 H   0  0  0  0  0  0  0  0  0  0  0  0
    2.2962   -4.6498    7.1806 H   0  0  0  0  0  0  0  0  0  0  0  0
   -1.6367   -5.0757    6.6682 H   0  0  0  0  0  0  0  0  0  0  0  0
   -1.6104   -2.6782    6.7119 H   0  0  0  0  0  0  0  0  0  0  0  0
    1.3856   -2.6115    8.2773 H   0  0  0  0  0  0  0  0  0  0  0  0
    0.1780   -1.3655    8.2574 H   0  0  0  0  0  0  0  0  0  0  0  0
    1.7812   -1.0480    7.5862 H   0  0  0  0  0  0  0  0  0  0  0  0
   -1.9061   -0.9037    5.5695 H   0  0  0  0  0  0  0  0  0  0  0  0
   -0.2947    0.8768    6.9276 H   0  0  0  0  0  0  0  0  0  0  0  0
   -1.9335    0.3078    3.7698 H   0  0  0  0  0  0  0  0  0  0  0  0
   -2.0022    1.5642    4.9217 H   0  0  0  0  0  0  0  0  0  0  0  0
   -0.8331    0.6511    1.8294 H   0  0  0  0  0  0  0  0  0  0  0  0
    0.0129    2.1457    1.5945 H   0  0  0  0  0  0  0  0  0  0  0  0
   -1.6358    2.1540    2.2164 H   0  0  0  0  0  0  0  0  0  0  0  0
  1  2  1  0
  1 33  1  0
  1 34  1  0
  1 35  1  0
  2  3  2  0
  2  4  1  0
  5  4  1  1
  5 31  1  0
  5  6  1  0
  5 10  1  0
  6  7  2  0
  6  8  1  0
  8  9  1  0
  8 36  1  0
  8 37  1  0
  9 38  1  0
 10 11  1  0
 10 12  1  0
 10 39  1  6
 11 40  1  0
 11 41  1  0
 11 42  1  0
 12 13  1  0
 12 43  1  0
 12 44  1  0
 13 31  1  0
 13 14  1  0
 13 45  1  6
 14 26  1  0
 14 15  1  0
 14 46  1  1
 15 16  1  0
 15 17  1  0
 15 47  1  6
 16 48  1  0
 17 18  2  0
 17 49  1  0
 18 24  1  0
 18 19  1  0
 19 20  1  0
 19 50  1  0
 19 51  1  0
 20 21  2  0
 20 22  1  0
 22 23  2  0
 22 52  1  0
 23 24  1  0
 23 53  1  0
 24 25  1  1
 24 26  1  0
 25 54  1  0
 25 55  1  0
 25 56  1  0
 26 27  1  6
 26 28  1  0
 28 29  1  0
 28 30  1  0
 28 57  1  1
 29 58  1  0
 30 31  1  0
 30 59  1  0
 30 60  1  0
 31 32  1  6
 32 61  1  0
 32 62  1  0
 32 63  1  0
M  END
>  <i_m_ct_stereo_status>  (77) 
1

>  <s_m_source_file>  (77) 
/var/tmp/pbs.5076255.sched01/tmp0du1nuht/0914ajmtz.sdf

>  <i_m_source_file_index>  (77) 
34

>  <i_lp_mmshare_version>  (77) 
48012

>  <i_f3d_flags>  (77) 
0

>  <s_epik_input>  (77) 
W0NIM11DKD1PKU9bQ0BdKFtDQEBIXShbQ0gzXSlbQ0gyXTEpKEMoPU8pW0NIMl1bT0hdKVtDQF0oW0NIM10pKFtDSDJdW0NAQEhdKFtDQEBdMjNGKVtPSF0pW0NAQEhdMVtDQEBIXTJbQ0BASF0oW09IXSlbQ0hdPUMoW0NAQF0zNFtDSDNdKVtDSDJdQyg9TylbQ0hdPVtDSF00

>  <s_epik_cmdline>  (77) 
J2VwaWtfcHl0aG9uJywgJy1waHQnLCAnMi4wJywgJy1waCcsICc3LjAnLCAnLXRuJywgJzgnLCAnLW1hJywgJzIwMCcsICctaW1hZScsICc8aW5maWxlLm1hZT4nLCAnLW9tYWUnLCAnPG91dGZpbGUubWFlPic=

>  <r_lp_tautomer_probability>  (77) 
1

>  <r_epik_Ionization_Penalty>  (77) 
2.20037e-05

>  <r_epik_Ionization_Penalty_Charging>  (77) 
0

>  <r_epik_Ionization_Penalty_Neutral>  (77) 
2.20037e-05

>  <r_epik_State_Penalty>  (77) 
-0

>  <r_epik_Charging_Adjusted_Penalty>  (77) 
0

>  <i_epik_Tot_Q>  (77) 
0

>  <i_epik_Tot_abs_Q>  (77) 
0

>  <s_epik_Chemistry_Notes>  (77) 
This compound has an ester and may undergo hydrolysis at high or low pH.

>  <s_lp_Force_Field>  (77) 
OPLS3e

>  <r_lp_Energy>  (77) 
69.8782

>  <b_lp_Chiralities_Consistent>  (77) 
1

>  <s_lp_Variant>  (77) 
30:0-1

>  <s_i_glide_gridfile>  (77) 
pfpi4k_grid

>  <i_i_glide_lignum>  (77) 
34

>  <i_i_glide_rotatable_bonds>  (77) 
7

>  <r_i_docking_score>  (77) 
-2.92507

>  <r_i_glide_ligand_efficiency>  (77) 
-0.0914084

>  <r_i_glide_ligand_efficiency_sa>  (77) 
-0.290203

>  <r_i_glide_ligand_efficiency_ln>  (77) 
-0.655002

>  <r_i_glide_gscore>  (77) 
-2.92507

>  <r_i_glide_lipo>  (77) 
0

>  <r_i_glide_hbond>  (77) 
-0.0345077

>  <r_i_glide_metal>  (77) 
-0

>  <r_i_glide_rewards>  (77) 
-0.337519

>  <r_i_glide_evdw>  (77) 
-19.4701

>  <r_i_glide_ecoul>  (77) 
-11.3128

>  <r_i_glide_erotb>  (77) 
0.207462

>  <r_i_glide_esite>  (77) 
-0.0900689

>  <r_i_glide_emodel>  (77) 
-34.9667

>  <r_i_glide_energy>  (77) 
-30.783

>  <r_i_glide_einternal>  (77) 
4.98221

>  <r_i_glide_intrahb_reward>  (77) 
-0

>  <i_i_glide_confnum>  (77) 
2

>  <i_i_glide_posenum>  (77) 
15

>  <r_i_glide_eff_state_penalty>  (77) 
0

>  <ligand_id>  (77) 
30

>  <original_smiles>  (77) 
CC(=O)OC1(C(=O)CO)C(C)CC2C3C(O)C=C4CC(=O)C=CC4(C)C3(F)C(O)CC21C

>  <smiles>  (77) 
[H]OC([H])([H])C(=O)C1(OC(=O)C([H])([H])[H])C([H])(C([H])([H])[H])C([H])([H])C2([H])C3([H])C([H])(O[H])C([H])=C4C([H])([H])C(=O)C([H])=C([H])C4(C([H])([H])[H])C3(F)C([H])(O[H])C([H])([H])C12C([H])([H])[H]

$$$$
30:0:2
     RDKit          3D

 63 66  0  0  1  0  0  0  0  0999 V2000
    0.9709    2.5460    8.0594 C   0  0  0  0  0  0  0  0  0  0  0  0
    0.4252    3.1615    6.7613 C   0  0  0  0  0  0  0  0  0  0  0  0
    0.1336    4.3630    6.6838 O   0  0  0  0  0  0  0  0  0  0  0  0
    0.3625    2.2330    5.7271 O   0  0  0  0  0  0  0  0  0  0  0  0
    0.0850    2.5466    4.3341 C   0  0  1  0  0  0  0  0  0  0  0  0
   -1.1692    3.4855    4.2130 C   0  0  0  0  0  0  0  0  0  0  0  0
   -1.9963    3.5087    5.1264 O   0  0  0  0  0  0  0  0  0  0  0  0
   -1.3830    4.3239    2.9258 C   0  0  0  0  0  0  0  0  0  0  0  0
   -2.6675    4.9042    2.8705 O   0  0  0  0  0  0  0  0  0  0  0  0
    1.4014    3.0871    3.6650 C   0  0  1  0  0  0  0  0  0  0  0  0
    2.2811    4.1083    4.4189 C   0  0  0  0  0  0  0  0  0  0  0  0
    2.2309    1.8595    3.2535 C   0  0  0  0  0  0  0  0  0  0  0  0
    1.3505    0.6024    3.4081 C   0  0  1  0  0  0  0  0  0  0  0  0
    1.8664   -0.4204    4.4737 C   0  0  2  0  0  0  0  0  0  0  0  0
    3.2948   -0.9259    4.0905 C   0  0  1  0  0  0  0  0  0  0  0  0
    4.2624   -0.2393    4.8549 O   0  0  0  0  0  0  0  0  0  0  0  0
    3.5434   -2.4097    4.2559 C   0  0  0  0  0  0  0  0  0  0  0  0
    2.7235   -3.2685    4.8786 C   0  0  0  0  0  0  0  0  0  0  0  0
    3.1497   -4.7277    5.0704 C   0  0  0  0  0  0  0  0  0  0  0  0
    1.9943   -5.7152    4.9813 C   0  0  0  0  0  0  0  0  0  0  0  0
    2.2368   -6.8907    4.6809 O   0  0  0  0  0  0  0  0  0  0  0  0
    0.6475   -5.2539    5.2993 C   0  0  0  0  0  0  0  0  0  0  0  0
    0.3939   -3.9482    5.5523 C   0  0  0  0  0  0  0  0  0  0  0  0
    1.4044   -2.7997    5.5016 C   0  0  1  0  0  0  0  0  0  0  0  0
    1.7532   -2.4421    6.9648 C   0  0  0  0  0  0  0  0  0  0  0  0
    0.8434   -1.5775    4.6681 C   0  0  2  0  0  0  0  0  0  0  0  0
    0.6286   -2.0964    3.4562 F   0  0  0  0  0  0  0  0  0  0  0  0
   -0.5363   -1.0016    5.1141 C   0  0  1  0  0  0  0  0  0  0  0  0
   -0.5973   -0.5792    6.4612 O   0  0  0  0  0  0  0  0  0  0  0  0
   -1.0833    0.1424    4.2308 C   0  0  0  0  0  0  0  0  0  0  0  0
   -0.0914    1.1562    3.5862 C   0  0  1  0  0  0  0  0  0  0  0  0
   -0.6281    1.3261    2.1318 C   0  0  0  0  0  0  0  0  0  0  0  0
    0.3653    1.6997    8.3994 H   0  0  0  0  0  0  0  0  0  0  0  0
    0.9885    3.2775    8.8662 H   0  0  0  0  0  0  0  0  0  0  0  0
    2.0017    2.2000    7.9275 H   0  0  0  0  0  0  0  0  0  0  0  0
   -0.6155    5.0950    2.7476 H   0  0  0  0  0  0  0  0  0  0  0  0
   -1.3904    3.6294    2.1036 H   0  0  0  0  0  0  0  0  0  0  0  0
   -3.2791    4.1942    2.7445 H   0  0  0  0  0  0  0  0  0  0  0  0
    1.1479    3.5905    2.7329 H   0  0  0  0  0  0  0  0  0  0  0  0
    2.7084    3.6804    5.3273 H   0  0  0  0  0  0  0  0  0  0  0  0
    1.7178    5.0006    4.6892 H   0  0  0  0  0  0  0  0  0  0  0  0
    3.1286    4.4359    3.8142 H   0  0  0  0  0  0  0  0  0  0  0  0
    2.5494    1.9715    2.2131 H   0  0  0  0  0  0  0  0  0  0  0  0
    3.1459    1.7939    3.8362 H   0  0  0  0  0  0  0  0  0  0  0  0
    1.4000    0.0663    2.4607 H   0  0  0  0  0  0  0  0  0  0  0  0
    1.9293    0.1055    5.4234 H   0  0  0  0  0  0  0  0  0  0  0  0
    3.4801   -0.7254    3.0333 H   0  0  0  0  0  0  0  0  0  0  0  0
    4.2854    0.6534    4.5502 H   0  0  0  0  0  0  0  0  0  0  0  0
    4.4872   -2.7612    3.8582 H   0  0  0  0  0  0  0  0  0  0  0  0
    3.8854   -4.9946    4.3174 H   0  0  0  0  0  0  0  0  0  0  0  0
    3.6321   -4.8555    6.0366 H   0  0  0  0  0  0  0  0  0  0  0  0
   -0.1300   -5.9902    5.3733 H   0  0  0  0  0  0  0  0  0  0  0  0
   -0.6097   -3.6838    5.8444 H   0  0  0  0  0  0  0  0  0  0  0  0
    2.3199   -3.2536    7.4345 H   0  0  0  0  0  0  0  0  0  0  0  0
    0.8632   -2.2861    7.5755 H   0  0  0  0  0  0  0  0  0  0  0  0
    2.3786   -1.5489    7.0152 H   0  0  0  0  0  0  0  0  0  0  0  0
   -1.2759   -1.8005    5.0323 H   0  0  0  0  0  0  0  0  0  0  0  0
    0.0820    0.0624    6.6086 H   0  0  0  0  0  0  0  0  0  0  0  0
   -1.6050   -0.3608    3.4251 H   0  0  0  0  0  0  0  0  0  0  0  0
   -1.8846    0.6725    4.7505 H   0  0  0  0  0  0  0  0  0  0  0  0
   -0.5472    0.3905    1.5772 H   0  0  0  0  0  0  0  0  0  0  0  0
   -0.0775    2.0782    1.5534 H   0  0  0  0  0  0  0  0  0  0  0  0
   -1.6926    1.5853    2.1243 H   0  0  0  0  0  0  0  0  0  0  0  0
  1  2  1  0
  1 33  1  0
  1 34  1  0
  1 35  1  0
  2  3  2  0
  2  4  1  0
  5  4  1  1
  5 31  1  0
  5  6  1  0
  5 10  1  0
  6  7  2  0
  6  8  1  0
  8  9  1  0
  8 36  1  0
  8 37  1  0
  9 38  1  0
 10 11  1  0
 10 12  1  0
 10 39  1  6
 11 40  1  0
 11 41  1  0
 11 42  1  0
 12 13  1  0
 12 43  1  0
 12 44  1  0
 13 31  1  0
 13 14  1  0
 13 45  1  6
 14 26  1  0
 14 15  1  0
 14 46  1  1
 15 16  1  0
 15 17  1  0
 15 47  1  6
 16 48  1  0
 17 18  2  0
 17 49  1  0
 18 24  1  0
 18 19  1  0
 19 20  1  0
 19 50  1  0
 19 51  1  0
 20 21  2  0
 20 22  1  0
 22 23  2  0
 22 52  1  0
 23 24  1  0
 23 53  1  0
 24 25  1  1
 24 26  1  0
 25 54  1  0
 25 55  1  0
 25 56  1  0
 26 27  1  6
 26 28  1  0
 28 29  1  0
 28 30  1  0
 28 57  1  1
 29 58  1  0
 30 31  1  0
 30 59  1  0
 30 60  1  0
 31 32  1  6
 32 61  1  0
 32 62  1  0
 32 63  1  0
M  END
>  <i_m_ct_stereo_status>  (78) 
1

>  <s_m_source_file>  (78) 
/var/tmp/pbs.5076255.sched01/tmp0du1nuht/0914ajmtz.sdf

>  <i_m_source_file_index>  (78) 
34

>  <i_lp_mmshare_version>  (78) 
48012

>  <i_f3d_flags>  (78) 
0

>  <s_epik_input>  (78) 
W0NIM11DKD1PKU9bQ0BdKFtDQEBIXShbQ0gzXSlbQ0gyXTEpKEMoPU8pW0NIMl1bT0hdKVtDQF0oW0NIM10pKFtDSDJdW0NAQEhdKFtDQEBdMjNGKVtPSF0pW0NAQEhdMVtDQEBIXTJbQ0BASF0oW09IXSlbQ0hdPUMoW0NAQF0zNFtDSDNdKVtDSDJdQyg9TylbQ0hdPVtDSF00

>  <s_epik_cmdline>  (78) 
J2VwaWtfcHl0aG9uJywgJy1waHQnLCAnMi4wJywgJy1waCcsICc3LjAnLCAnLXRuJywgJzgnLCAnLW1hJywgJzIwMCcsICctaW1hZScsICc8aW5maWxlLm1hZT4nLCAnLW9tYWUnLCAnPG91dGZpbGUubWFlPic=

>  <r_lp_tautomer_probability>  (78) 
1

>  <r_epik_Ionization_Penalty>  (78) 
2.20037e-05

>  <r_epik_Ionization_Penalty_Charging>  (78) 
0

>  <r_epik_Ionization_Penalty_Neutral>  (78) 
2.20037e-05

>  <r_epik_State_Penalty>  (78) 
-0

>  <r_epik_Charging_Adjusted_Penalty>  (78) 
0

>  <i_epik_Tot_Q>  (78) 
0

>  <i_epik_Tot_abs_Q>  (78) 
0

>  <s_epik_Chemistry_Notes>  (78) 
This compound has an ester and may undergo hydrolysis at high or low pH.

>  <s_lp_Force_Field>  (78) 
OPLS3e

>  <r_lp_Energy>  (78) 
69.8782

>  <b_lp_Chiralities_Consistent>  (78) 
1

>  <s_lp_Variant>  (78) 
30:0-1

>  <s_i_glide_gridfile>  (78) 
pfpi4k_grid

>  <i_i_glide_lignum>  (78) 
34

>  <i_i_glide_rotatable_bonds>  (78) 
7

>  <r_i_docking_score>  (78) 
-2.84117

>  <r_i_glide_ligand_efficiency>  (78) 
-0.0887864

>  <r_i_glide_ligand_efficiency_sa>  (78) 
-0.281879

>  <r_i_glide_ligand_efficiency_ln>  (78) 
-0.636214

>  <r_i_glide_gscore>  (78) 
-2.84117

>  <r_i_glide_lipo>  (78) 
-0.000679279

>  <r_i_glide_hbond>  (78) 
0

>  <r_i_glide_metal>  (78) 
-0

>  <r_i_glide_rewards>  (78) 
-0.867252

>  <r_i_glide_evdw>  (78) 
-18.437

>  <r_i_glide_ecoul>  (78) 
-8.67229

>  <r_i_glide_erotb>  (78) 
0.296374

>  <r_i_glide_esite>  (78) 
-0.0469152

>  <r_i_glide_emodel>  (78) 
-34.5431

>  <r_i_glide_energy>  (78) 
-27.1093

>  <r_i_glide_einternal>  (78) 
4.7281

>  <r_i_glide_intrahb_reward>  (78) 
-0.5

>  <i_i_glide_confnum>  (78) 
5

>  <i_i_glide_posenum>  (78) 
26

>  <r_i_glide_eff_state_penalty>  (78) 
0

>  <ligand_id>  (78) 
30

>  <original_smiles>  (78) 
CC(=O)OC1(C(=O)CO)C(C)CC2C3C(O)C=C4CC(=O)C=CC4(C)C3(F)C(O)CC21C

>  <smiles>  (78) 
[H]OC([H])([H])C(=O)C1(OC(=O)C([H])([H])[H])C([H])(C([H])([H])[H])C([H])([H])C2([H])C3([H])C([H])(O[H])C([H])=C4C([H])([H])C(=O)C([H])=C([H])C4(C([H])([H])[H])C3(F)C([H])(O[H])C([H])([H])C12C([H])([H])[H]

$$$$
32:0:0
     RDKit          3D

 53 58  0  0  1  0  0  0  0  0999 V2000
    5.9062   -1.2775    0.9522 C   0  0  0  0  0  0  0  0  0  0  0  0
    4.7301   -2.2446    1.0185 C   0  0  0  0  0  0  0  0  0  0  0  0
    3.9917   -2.5771    2.0967 C   0  0  0  0  0  0  0  0  0  0  0  0
    2.9903   -3.6419    1.8015 C   0  0  2  0  0  0  0  0  0  0  0  0
    2.9512   -3.7060    0.2662 C   0  0  0  0  0  0  0  0  0  0  0  0
    4.2988   -3.1024   -0.1883 C   0  0  1  0  0  0  0  0  0  0  0  0
    4.1986   -2.4262   -1.5472 C   0  0  0  0  0  0  0  0  0  0  0  0
    4.0718   -1.0553   -1.8158 C   0  0  0  0  0  0  0  0  0  0  0  0
    4.0090   -0.8835   -3.1750 C   0  0  0  0  0  0  0  0  0  0  0  0
    4.0388   -2.0945   -3.7758 O   0  0  0  0  0  0  0  0  0  0  0  0
    4.1158   -3.0188   -2.7906 C   0  0  0  0  0  0  0  0  0  0  0  0
    1.8342   -3.2468    2.5211 O   0  0  0  0  0  0  0  0  0  0  0  0
    2.3341   -2.6992    3.7453 C   0  0  2  0  0  0  0  0  0  0  0  0
    1.4906   -1.5237    4.2392 C   0  0  2  0  0  0  0  0  0  0  0  0
    0.9847   -0.7544    3.1265 O   0  0  0  0  0  0  0  0  0  0  0  0
    1.6014    0.5317    2.9464 C   0  0  1  0  0  0  0  0  0  0  0  0
    1.0174    1.1862    1.7086 C   0  0  0  0  0  0  0  0  0  0  0  0
    1.3104    1.3677    4.2121 C   0  0  0  0  0  0  0  0  0  0  0  0
    1.9054    0.6605    5.4341 C   0  0  0  0  0  0  0  0  0  0  0  0
    2.5290   -0.6906    5.0053 C   0  0  2  0  0  0  0  0  0  0  0  0
    3.6620   -0.6301    3.9487 C   0  0  2  0  0  0  0  0  0  0  0  0
    4.9394   -0.0190    4.5792 C   0  0  0  0  0  0  0  0  0  0  0  0
    3.1313    0.3095    2.8067 C   0  0  0  0  0  0  0  0  0  0  0  0
    3.7823   -2.1405    3.5252 C   0  0  2  0  0  0  0  0  0  0  0  0
    4.7904   -2.9366    4.4163 C   0  0  0  0  0  0  0  0  0  0  0  0
    6.7884   -1.7934    0.5764 H   0  0  0  0  0  0  0  0  0  0  0  0
    6.1498   -0.8668    1.9306 H   0  0  0  0  0  0  0  0  0  0  0  0
    5.7232   -0.4221    0.2864 H   0  0  0  0  0  0  0  0  0  0  0  0
    3.3679   -4.5622    2.2240 H   0  0  0  0  0  0  0  0  0  0  0  0
    2.7642   -4.7279   -0.1209 H   0  0  0  0  0  0  0  0  0  0  0  0
    2.1321   -3.0795   -0.0870 H   0  0  0  0  0  0  0  0  0  0  0  0
    5.0351   -3.8988   -0.2675 H   0  0  0  0  0  0  0  0  0  0  0  0
    4.0252   -0.2665   -1.0965 H   0  0  0  0  0  0  0  0  0  0  0  0
    3.9342   -0.0078   -3.7965 H   0  0  0  0  0  0  0  0  0  0  0  0
    4.0860   -4.0450   -3.1184 H   0  0  0  0  0  0  0  0  0  0  0  0
    2.3532   -3.4862    4.5008 H   0  0  0  0  0  0  0  0  0  0  0  0
    0.6691   -1.8632    4.8639 H   0  0  0  0  0  0  0  0  0  0  0  0
    1.4677    2.1616    1.5199 H   0  0  0  0  0  0  0  0  0  0  0  0
   -0.0634    1.3229    1.7905 H   0  0  0  0  0  0  0  0  0  0  0  0
    1.2087    0.5446    0.8509 H   0  0  0  0  0  0  0  0  0  0  0  0
    1.7318    2.3664    4.1250 H   0  0  0  0  0  0  0  0  0  0  0  0
    0.2331    1.4905    4.3377 H   0  0  0  0  0  0  0  0  0  0  0  0
    2.6449    1.2911    5.9337 H   0  0  0  0  0  0  0  0  0  0  0  0
    1.1174    0.4840    6.1663 H   0  0  0  0  0  0  0  0  0  0  0  0
    2.8457   -1.2296    5.8889 H   0  0  0  0  0  0  0  0  0  0  0  0
    5.7974   -0.0477    3.9102 H   0  0  0  0  0  0  0  0  0  0  0  0
    5.2236   -0.5380    5.4989 H   0  0  0  0  0  0  0  0  0  0  0  0
    4.7916    1.0229    4.8646 H   0  0  0  0  0  0  0  0  0  0  0  0
    3.3775   -0.0696    1.8221 H   0  0  0  0  0  0  0  0  0  0  0  0
    3.6142    1.2809    2.8777 H   0  0  0  0  0  0  0  0  0  0  0  0
    4.5944   -2.8115    5.4792 H   0  0  0  0  0  0  0  0  0  0  0  0
    5.8114   -2.6112    4.2189 H   0  0  0  0  0  0  0  0  0  0  0  0
    4.7541   -4.0004    4.2016 H   0  0  0  0  0  0  0  0  0  0  0  0
  1  2  1  0
  1 26  1  0
  1 27  1  0
  1 28  1  0
  2  6  1  0
  2  3  2  0
  3 24  1  0
  3  4  1  0
  4  5  1  0
  4 12  1  0
  4 29  1  1
  5  6  1  0
  5 30  1  0
  5 31  1  0
  6  7  1  0
  6 32  1  6
  7 11  2  0
  7  8  1  0
  8  9  2  0
  8 33  1  0
  9 10  1  0
  9 34  1  0
 10 11  1  0
 11 35  1  0
 12 13  1  0
 13 24  1  0
 13 14  1  0
 13 36  1  1
 14 20  1  0
 14 15  1  0
 14 37  1  1
 15 16  1  0
 16 23  1  0
 16 17  1  6
 16 18  1  0
 17 38  1  0
 17 39  1  0
 17 40  1  0
 18 19  1  0
 18 41  1  0
 18 42  1  0
 19 20  1  0
 19 43  1  0
 19 44  1  0
 20 21  1  0
 20 45  1  1
 21 22  1  1
 21 23  1  0
 21 24  1  0
 22 46  1  0
 22 47  1  0
 22 48  1  0
 23 49  1  0
 23 50  1  0
 24 25  1  1
 25 51  1  0
 25 52  1  0
 25 53  1  0
M  END
>  <i_m_ct_stereo_status>  (79) 
1

>  <s_m_source_file>  (79) 
/var/tmp/pbs.5076255.sched01/tmpav68hifr/35m6z7vsub.sdf

>  <i_m_source_file_index>  (79) 
1

>  <i_lp_mmshare_version>  (79) 
48012

>  <i_f3d_flags>  (79) 
0

>  <s_epik_input>  (79) 
W2NIXTFvW2NIXVtjSF1jMVtDQEBIXShDPTJbQ0gzXSlbQ0gyXVtDQEhdKE8zKUMyW0NAQF0oW0NIM10pKFtDQEBdKFtDSDNdKShbQ0gyXTQpW0NASF01W0NIMl1bQ0gyXTYpW0NASF0zW0NAQEhdNU9bQ0BdNDZbQ0gzXQ==

>  <s_epik_cmdline>  (79) 
J2VwaWtfcHl0aG9uJywgJy1waHQnLCAnMi4wJywgJy1waCcsICc3LjAnLCAnLXRuJywgJzgnLCAnLW1hJywgJzIwMCcsICctaW1hZScsICc8aW5maWxlLm1hZT4nLCAnLW9tYWUnLCAnPG91dGZpbGUubWFlPic=

>  <r_lp_tautomer_probability>  (79) 
1

>  <r_epik_Ionization_Penalty>  (79) 
1.34708e-11

>  <r_epik_Ionization_Penalty_Charging>  (79) 
0

>  <r_epik_Ionization_Penalty_Neutral>  (79) 
1.34708e-11

>  <r_epik_State_Penalty>  (79) 
-0

>  <r_epik_Charging_Adjusted_Penalty>  (79) 
0

>  <i_epik_Tot_Q>  (79) 
0

>  <i_epik_Tot_abs_Q>  (79) 
0

>  <s_lp_Force_Field>  (79) 
OPLS3e

>  <r_lp_Energy>  (79) 
31.7872

>  <b_lp_Chiralities_Consistent>  (79) 
1

>  <s_lp_Variant>  (79) 
32:0-1

>  <s_i_glide_gridfile>  (79) 
pfpi4k_grid

>  <i_i_glide_lignum>  (79) 
1

>  <i_i_glide_rotatable_bonds>  (79) 
1

>  <r_i_docking_score>  (79) 
-2.63538

>  <r_i_glide_ligand_efficiency>  (79) 
-0.105415

>  <r_i_glide_ligand_efficiency_sa>  (79) 
-0.308236

>  <r_i_glide_ligand_efficiency_ln>  (79) 
-0.624664

>  <r_i_glide_gscore>  (79) 
-2.63538

>  <r_i_glide_lipo>  (79) 
-0.456316

>  <r_i_glide_hbond>  (79) 
-0.0336669

>  <r_i_glide_metal>  (79) 
-0

>  <r_i_glide_rewards>  (79) 
-1.0878

>  <r_i_glide_evdw>  (79) 
-27.2257

>  <r_i_glide_ecoul>  (79) 
0.935376

>  <r_i_glide_erotb>  (79) 
0.163381

>  <r_i_glide_esite>  (79) 
0

>  <r_i_glide_emodel>  (79) 
-30.3606

>  <r_i_glide_energy>  (79) 
-26.2903

>  <r_i_glide_einternal>  (79) 
0.387264

>  <r_i_glide_intrahb_reward>  (79) 
-0

>  <i_i_glide_confnum>  (79) 
2

>  <i_i_glide_posenum>  (79) 
23

>  <r_i_glide_eff_state_penalty>  (79) 
0

>  <ligand_id>  (79) 
32

>  <original_smiles>  (79) 
CC1=C2C(CC1c1ccoc1)OC1C3OC4(C)CCC3C(C)(C4)C21C

>  <smiles>  (79) 
[H]c1oc([H])c(C2([H])C(C([H])([H])[H])=C3C([H])(OC4([H])C5([H])OC6(C([H])([H])[H])C([H])([H])C([H])([H])C5([H])C(C([H])([H])[H])(C6([H])[H])C34C([H])([H])[H])C2([H])[H])c1[H]

$$$$
32:0:1
     RDKit          3D

 53 58  0  0  1  0  0  0  0  0999 V2000
    5.7387   -1.1123    0.8488 C   0  0  0  0  0  0  0  0  0  0  0  0
    4.6307   -2.1580    0.9153 C   0  0  0  0  0  0  0  0  0  0  0  0
    3.9286   -2.5478    1.9838 C   0  0  0  0  0  0  0  0  0  0  0  0
    2.9367   -3.6188    1.7025 C   0  0  2  0  0  0  0  0  0  0  0  0
    2.8492   -3.6372    0.1627 C   0  0  0  0  0  0  0  0  0  0  0  0
    4.1640   -2.9522   -0.3159 C   0  0  1  0  0  0  0  0  0  0  0  0
    4.0004   -2.2387   -1.6613 C   0  0  0  0  0  0  0  0  0  0  0  0
    3.2907   -2.7391   -2.8196 C   0  0  0  0  0  0  0  0  0  0  0  0
    3.3369   -1.7746   -3.7797 C   0  0  0  0  0  0  0  0  0  0  0  0
    4.0646   -0.7004   -3.3273 O   0  0  0  0  0  0  0  0  0  0  0  0
    4.4604   -1.0064   -2.0570 C   0  0  0  0  0  0  0  0  0  0  0  0
    1.8112   -3.2718    2.4763 O   0  0  0  0  0  0  0  0  0  0  0  0
    2.3316   -2.7430    3.6962 C   0  0  2  0  0  0  0  0  0  0  0  0
    1.4724   -1.6033    4.2443 C   0  0  2  0  0  0  0  0  0  0  0  0
    0.9094   -0.8104    3.1656 O   0  0  0  0  0  0  0  0  0  0  0  0
    1.5004    0.4890    2.9959 C   0  0  1  0  0  0  0  0  0  0  0  0
    0.8579    1.1674    1.7897 C   0  0  0  0  0  0  0  0  0  0  0  0
    1.2290    1.2836    4.2997 C   0  0  0  0  0  0  0  0  0  0  0  0
    1.8768    0.5600    5.4882 C   0  0  0  0  0  0  0  0  0  0  0  0
    2.5055   -0.7661    5.0044 C   0  0  2  0  0  0  0  0  0  0  0  0
    3.6108   -0.6474    3.9116 C   0  0  2  0  0  0  0  0  0  0  0  0
    4.9010   -0.0366    4.5204 C   0  0  0  0  0  0  0  0  0  0  0  0
    3.0277    0.3038    2.8157 C   0  0  0  0  0  0  0  0  0  0  0  0
    3.7549   -2.1508    3.4443 C   0  0  2  0  0  0  0  0  0  0  0  0
    4.8013   -2.9452    4.2653 C   0  0  0  0  0  0  0  0  0  0  0  0
    6.6054   -1.5704    0.3745 H   0  0  0  0  0  0  0  0  0  0  0  0
    6.0753   -0.8565    1.8722 H   0  0  0  0  0  0  0  0  0  0  0  0
    5.4163   -0.2720    0.2820 H   0  0  0  0  0  0  0  0  0  0  0  0
    3.3394   -4.5550    2.0789 H   0  0  0  0  0  0  0  0  0  0  0  0
    2.6787   -4.6412   -0.2483 H   0  0  0  0  0  0  0  0  0  0  0  0
    1.9946   -3.0265   -0.1390 H   0  0  0  0  0  0  0  0  0  0  0  0
    4.8974   -3.7406   -0.4711 H   0  0  0  0  0  0  0  0  0  0  0  0
    2.7725   -3.6949   -2.9261 H   0  0  0  0  0  0  0  0  0  0  0  0
    2.9421   -1.6441   -4.7816 H   0  0  0  0  0  0  0  0  0  0  0  0
    5.0457   -0.2573   -1.5420 H   0  0  0  0  0  0  0  0  0  0  0  0
    2.3839   -3.5610    4.4265 H   0  0  0  0  0  0  0  0  0  0  0  0
    0.6746   -1.9808    4.8799 H   0  0  0  0  0  0  0  0  0  0  0  0
    1.2853    2.1581    1.6238 H   0  0  0  0  0  0  0  0  0  0  0  0
   -0.2162    1.2796    1.9238 H   0  0  0  0  0  0  0  0  0  0  0  0
    1.0274    0.5718    0.8913 H   0  0  0  0  0  0  0  0  0  0  0  0
    1.6309    2.2956    4.2352 H   0  0  0  0  0  0  0  0  0  0  0  0
    0.1541    1.3817    4.4667 H   0  0  0  0  0  0  0  0  0  0  0  0
    2.6191    1.1831    5.9815 H   0  0  0  0  0  0  0  0  0  0  0  0
    1.1211    0.3381    6.2375 H   0  0  0  0  0  0  0  0  0  0  0  0
    2.8683   -1.3266    5.8516 H   0  0  0  0  0  0  0  0  0  0  0  0
    5.7341   -0.0245    3.8186 H   0  0  0  0  0  0  0  0  0  0  0  0
    5.2206   -0.5712    5.4092 H   0  0  0  0  0  0  0  0  0  0  0  0
    4.7378    0.9960    4.8384 H   0  0  0  0  0  0  0  0  0  0  0  0
    3.2492   -0.0443    1.8093 H   0  0  0  0  0  0  0  0  0  0  0  0
    3.4929    1.2914    2.8958 H   0  0  0  0  0  0  0  0  0  0  0  0
    4.6440   -2.8599    5.3462 H   0  0  0  0  0  0  0  0  0  0  0  0
    5.8074   -2.5931    4.0404 H   0  0  0  0  0  0  0  0  0  0  0  0
    4.7851   -4.0099    4.0138 H   0  0  0  0  0  0  0  0  0  0  0  0
  1  2  1  0
  1 26  1  0
  1 27  1  0
  1 28  1  0
  2  6  1  0
  2  3  2  0
  3 24  1  0
  3  4  1  0
  4  5  1  0
  4 12  1  0
  4 29  1  1
  5  6  1  0
  5 30  1  0
  5 31  1  0
  6  7  1  0
  6 32  1  6
  7 11  2  0
  7  8  1  0
  8  9  2  0
  8 33  1  0
  9 10  1  0
  9 34  1  0
 10 11  1  0
 11 35  1  0
 12 13  1  0
 13 24  1  0
 13 14  1  0
 13 36  1  1
 14 20  1  0
 14 15  1  0
 14 37  1  1
 15 16  1  0
 16 23  1  0
 16 17  1  6
 16 18  1  0
 17 38  1  0
 17 39  1  0
 17 40  1  0
 18 19  1  0
 18 41  1  0
 18 42  1  0
 19 20  1  0
 19 43  1  0
 19 44  1  0
 20 21  1  0
 20 45  1  1
 21 22  1  1
 21 23  1  0
 21 24  1  0
 22 46  1  0
 22 47  1  0
 22 48  1  0
 23 49  1  0
 23 50  1  0
 24 25  1  1
 25 51  1  0
 25 52  1  0
 25 53  1  0
M  END
>  <i_m_ct_stereo_status>  (80) 
1

>  <s_m_source_file>  (80) 
/var/tmp/pbs.5076255.sched01/tmpav68hifr/35m6z7vsub.sdf

>  <i_m_source_file_index>  (80) 
1

>  <i_lp_mmshare_version>  (80) 
48012

>  <i_f3d_flags>  (80) 
0

>  <s_epik_input>  (80) 
W2NIXTFvW2NIXVtjSF1jMVtDQEBIXShDPTJbQ0gzXSlbQ0gyXVtDQEhdKE8zKUMyW0NAQF0oW0NIM10pKFtDQEBdKFtDSDNdKShbQ0gyXTQpW0NASF01W0NIMl1bQ0gyXTYpW0NASF0zW0NAQEhdNU9bQ0BdNDZbQ0gzXQ==

>  <s_epik_cmdline>  (80) 
J2VwaWtfcHl0aG9uJywgJy1waHQnLCAnMi4wJywgJy1waCcsICc3LjAnLCAnLXRuJywgJzgnLCAnLW1hJywgJzIwMCcsICctaW1hZScsICc8aW5maWxlLm1hZT4nLCAnLW9tYWUnLCAnPG91dGZpbGUubWFlPic=

>  <r_lp_tautomer_probability>  (80) 
1

>  <r_epik_Ionization_Penalty>  (80) 
1.34708e-11

>  <r_epik_Ionization_Penalty_Charging>  (80) 
0

>  <r_epik_Ionization_Penalty_Neutral>  (80) 
1.34708e-11

>  <r_epik_State_Penalty>  (80) 
-0

>  <r_epik_Charging_Adjusted_Penalty>  (80) 
0

>  <i_epik_Tot_Q>  (80) 
0

>  <i_epik_Tot_abs_Q>  (80) 
0

>  <s_lp_Force_Field>  (80) 
OPLS3e

>  <r_lp_Energy>  (80) 
31.7872

>  <b_lp_Chiralities_Consistent>  (80) 
1

>  <s_lp_Variant>  (80) 
32:0-1

>  <s_i_glide_gridfile>  (80) 
pfpi4k_grid

>  <i_i_glide_lignum>  (80) 
1

>  <i_i_glide_rotatable_bonds>  (80) 
1

>  <r_i_docking_score>  (80) 
-2.53704

>  <r_i_glide_ligand_efficiency>  (80) 
-0.101482

>  <r_i_glide_ligand_efficiency_sa>  (80) 
-0.296734

>  <r_i_glide_ligand_efficiency_ln>  (80) 
-0.601354

>  <r_i_glide_gscore>  (80) 
-2.53704

>  <r_i_glide_lipo>  (80) 
-0.428761

>  <r_i_glide_hbond>  (80) 
0

>  <r_i_glide_metal>  (80) 
-0

>  <r_i_glide_rewards>  (80) 
-1.0878

>  <r_i_glide_evdw>  (80) 
-28.0052

>  <r_i_glide_ecoul>  (80) 
1.44267

>  <r_i_glide_erotb>  (80) 
0.163381

>  <r_i_glide_esite>  (80) 
0

>  <r_i_glide_emodel>  (80) 
-29.7831

>  <r_i_glide_energy>  (80) 
-26.5625

>  <r_i_glide_einternal>  (80) 
1.408

>  <r_i_glide_intrahb_reward>  (80) 
-0

>  <i_i_glide_confnum>  (80) 
5

>  <i_i_glide_posenum>  (80) 
22

>  <r_i_glide_eff_state_penalty>  (80) 
0

>  <ligand_id>  (80) 
32

>  <original_smiles>  (80) 
CC1=C2C(CC1c1ccoc1)OC1C3OC4(C)CCC3C(C)(C4)C21C

>  <smiles>  (80) 
[H]c1oc([H])c(C2([H])C(C([H])([H])[H])=C3C([H])(OC4([H])C5([H])OC6(C([H])([H])[H])C([H])([H])C([H])([H])C5([H])C(C([H])([H])[H])(C6([H])[H])C34C([H])([H])[H])C2([H])[H])c1[H]

$$$$
32:0:2
     RDKit          3D

 53 58  0  0  1  0  0  0  0  0999 V2000
   -0.5542   -7.2588    4.3753 C   0  0  0  0  0  0  0  0  0  0  0  0
    0.5810   -7.1986    5.3766 C   0  0  0  0  0  0  0  0  0  0  0  0
    1.7378   -7.8806    5.4014 C   0  0  0  0  0  0  0  0  0  0  0  0
    2.5834   -7.5422    6.5675 C   0  0  2  0  0  0  0  0  0  0  0  0
    1.9504   -6.2591    7.1304 C   0  0  0  0  0  0  0  0  0  0  0  0
    0.4931   -6.2889    6.5977 C   0  0  1  0  0  0  0  0  0  0  0  0
   -0.0729   -4.9058    6.3655 C   0  0  0  0  0  0  0  0  0  0  0  0
    0.4908   -3.8769    5.5589 C   0  0  0  0  0  0  0  0  0  0  0  0
   -0.3309   -2.7940    5.6648 C   0  0  0  0  0  0  0  0  0  0  0  0
   -1.3832   -3.0715    6.4794 O   0  0  0  0  0  0  0  0  0  0  0  0
   -1.2052   -4.3564    6.9013 C   0  0  0  0  0  0  0  0  0  0  0  0
    3.8910   -7.4801    6.0412 O   0  0  0  0  0  0  0  0  0  0  0  0
    3.9504   -8.5580    5.0957 C   0  0  2  0  0  0  0  0  0  0  0  0
    4.8345   -8.2180    3.8943 C   0  0  2  0  0  0  0  0  0  0  0  0
    4.7251   -6.8143    3.5682 O   0  0  0  0  0  0  0  0  0  0  0  0
    3.9954   -6.5225    2.3649 C   0  0  1  0  0  0  0  0  0  0  0  0
    3.9091   -5.0050    2.1985 C   0  0  0  0  0  0  0  0  0  0  0  0
    4.7553   -7.1834    1.1915 C   0  0  0  0  0  0  0  0  0  0  0  0
    4.8262   -8.7013    1.4196 C   0  0  0  0  0  0  0  0  0  0  0  0
    4.1954   -9.0560    2.7824 C   0  0  2  0  0  0  0  0  0  0  0  0
    2.7052   -8.6494    2.9721 C   0  0  2  0  0  0  0  0  0  0  0  0
    1.8075   -9.5566    2.1047 C   0  0  0  0  0  0  0  0  0  0  0  0
    2.5924   -7.1679    2.4991 C   0  0  0  0  0  0  0  0  0  0  0  0
    2.5245   -8.8476    4.5326 C   0  0  2  0  0  0  0  0  0  0  0  0
    2.0819  -10.2823    4.9138 C   0  0  0  0  0  0  0  0  0  0  0  0
   -1.4943   -7.5133    4.8725 H   0  0  0  0  0  0  0  0  0  0  0  0
   -0.3769   -8.0054    3.6034 H   0  0  0  0  0  0  0  0  0  0  0  0
   -0.6824   -6.2831    3.9065 H   0  0  0  0  0  0  0  0  0  0  0  0
    2.5107   -8.3625    7.2847 H   0  0  0  0  0  0  0  0  0  0  0  0
    2.0108   -6.1857    8.2188 H   0  0  0  0  0  0  0  0  0  0  0  0
    2.4917   -5.4024    6.7242 H   0  0  0  0  0  0  0  0  0  0  0  0
   -0.1492   -6.8032    7.3163 H   0  0  0  0  0  0  0  0  0  0  0  0
    1.3990   -3.9226    4.9817 H   0  0  0  0  0  0  0  0  0  0  0  0
   -0.3082   -1.8011    5.2412 H   0  0  0  0  0  0  0  0  0  0  0  0
   -1.9663   -4.7124    7.5786 H   0  0  0  0  0  0  0  0  0  0  0  0
    4.3373   -9.4444    5.6023 H   0  0  0  0  0  0  0  0  0  0  0  0
    5.8762   -8.4776    4.0792 H   0  0  0  0  0  0  0  0  0  0  0  0
    3.3480   -4.7427    1.3008 H   0  0  0  0  0  0  0  0  0  0  0  0
    4.9056   -4.5702    2.1199 H   0  0  0  0  0  0  0  0  0  0  0  0
    3.4106   -4.5605    3.0600 H   0  0  0  0  0  0  0  0  0  0  0  0
    4.2684   -6.9811    0.2356 H   0  0  0  0  0  0  0  0  0  0  0  0
    5.7647   -6.7751    1.1186 H   0  0  0  0  0  0  0  0  0  0  0  0
    4.3435   -9.2498    0.6087 H   0  0  0  0  0  0  0  0  0  0  0  0
    5.8713   -9.0183    1.4108 H   0  0  0  0  0  0  0  0  0  0  0  0
    4.3420  -10.1173    2.9837 H   0  0  0  0  0  0  0  0  0  0  0  0
    0.7456   -9.3881    2.2776 H   0  0  0  0  0  0  0  0  0  0  0  0
    2.0090  -10.6134    2.2850 H   0  0  0  0  0  0  0  0  0  0  0  0
    1.9929   -9.3973    1.0424 H   0  0  0  0  0  0  0  0  0  0  0  0
    1.9599   -6.5738    3.1566 H   0  0  0  0  0  0  0  0  0  0  0  0
    2.1083   -7.1296    1.5213 H   0  0  0  0  0  0  0  0  0  0  0  0
    2.7160  -11.0529    4.4751 H   0  0  0  0  0  0  0  0  0  0  0  0
    1.0588  -10.4821    4.5956 H   0  0  0  0  0  0  0  0  0  0  0  0
    2.0999  -10.4465    5.9919 H   0  0  0  0  0  0  0  0  0  0  0  0
  1  2  1  0
  1 26  1  0
  1 27  1  0
  1 28  1  0
  2  6  1  0
  2  3  2  0
  3 24  1  0
  3  4  1  0
  4  5  1  0
  4 12  1  0
  4 29  1  1
  5  6  1  0
  5 30  1  0
  5 31  1  0
  6  7  1  0
  6 32  1  1
  7 11  2  0
  7  8  1  0
  8  9  2  0
  8 33  1  0
  9 10  1  0
  9 34  1  0
 10 11  1  0
 11 35  1  0
 12 13  1  0
 13 24  1  0
 13 14  1  0
 13 36  1  1
 14 20  1  0
 14 15  1  0
 14 37  1  1
 15 16  1  0
 16 23  1  0
 16 17  1  6
 16 18  1  0
 17 38  1  0
 17 39  1  0
 17 40  1  0
 18 19  1  0
 18 41  1  0
 18 42  1  0
 19 20  1  0
 19 43  1  0
 19 44  1  0
 20 21  1  0
 20 45  1  1
 21 22  1  6
 21 23  1  0
 21 24  1  0
 22 46  1  0
 22 47  1  0
 22 48  1  0
 23 49  1  0
 23 50  1  0
 24 25  1  6
 25 51  1  0
 25 52  1  0
 25 53  1  0
M  END
>  <i_m_ct_stereo_status>  (81) 
1

>  <s_m_source_file>  (81) 
/var/tmp/pbs.5076255.sched01/tmpav68hifr/35m6z7vsub.sdf

>  <i_m_source_file_index>  (81) 
1

>  <i_lp_mmshare_version>  (81) 
48012

>  <i_f3d_flags>  (81) 
0

>  <s_epik_input>  (81) 
W2NIXTFvW2NIXVtjSF1jMVtDQEBIXShDPTJbQ0gzXSlbQ0gyXVtDQEhdKE8zKUMyW0NAQF0oW0NIM10pKFtDQEBdKFtDSDNdKShbQ0gyXTQpW0NASF01W0NIMl1bQ0gyXTYpW0NASF0zW0NAQEhdNU9bQ0BdNDZbQ0gzXQ==

>  <s_epik_cmdline>  (81) 
J2VwaWtfcHl0aG9uJywgJy1waHQnLCAnMi4wJywgJy1waCcsICc3LjAnLCAnLXRuJywgJzgnLCAnLW1hJywgJzIwMCcsICctaW1hZScsICc8aW5maWxlLm1hZT4nLCAnLW9tYWUnLCAnPG91dGZpbGUubWFlPic=

>  <r_lp_tautomer_probability>  (81) 
1

>  <r_epik_Ionization_Penalty>  (81) 
1.34708e-11

>  <r_epik_Ionization_Penalty_Charging>  (81) 
0

>  <r_epik_Ionization_Penalty_Neutral>  (81) 
1.34708e-11

>  <r_epik_State_Penalty>  (81) 
-0

>  <r_epik_Charging_Adjusted_Penalty>  (81) 
0

>  <i_epik_Tot_Q>  (81) 
0

>  <i_epik_Tot_abs_Q>  (81) 
0

>  <s_lp_Force_Field>  (81) 
OPLS3e

>  <r_lp_Energy>  (81) 
31.7872

>  <b_lp_Chiralities_Consistent>  (81) 
1

>  <s_lp_Variant>  (81) 
32:0-1

>  <s_i_glide_gridfile>  (81) 
pfpi4k_grid

>  <i_i_glide_lignum>  (81) 
1

>  <i_i_glide_rotatable_bonds>  (81) 
1

>  <r_i_docking_score>  (81) 
-2.35037

>  <r_i_glide_ligand_efficiency>  (81) 
-0.0940148

>  <r_i_glide_ligand_efficiency_sa>  (81) 
-0.274901

>  <r_i_glide_ligand_efficiency_ln>  (81) 
-0.557108

>  <r_i_glide_gscore>  (81) 
-2.35037

>  <r_i_glide_lipo>  (81) 
-0.174627

>  <r_i_glide_hbond>  (81) 
0

>  <r_i_glide_metal>  (81) 
-0

>  <r_i_glide_rewards>  (81) 
-1.0878

>  <r_i_glide_evdw>  (81) 
-21.4186

>  <r_i_glide_ecoul>  (81) 
-1.20262

>  <r_i_glide_erotb>  (81) 
0.163381

>  <r_i_glide_esite>  (81) 
0

>  <r_i_glide_emodel>  (81) 
-26.4131

>  <r_i_glide_energy>  (81) 
-22.6212

>  <r_i_glide_einternal>  (81) 
0.268316

>  <r_i_glide_intrahb_reward>  (81) 
-0

>  <i_i_glide_confnum>  (81) 
3

>  <i_i_glide_posenum>  (81) 
4

>  <r_i_glide_eff_state_penalty>  (81) 
0

>  <ligand_id>  (81) 
32

>  <original_smiles>  (81) 
CC1=C2C(CC1c1ccoc1)OC1C3OC4(C)CCC3C(C)(C4)C21C

>  <smiles>  (81) 
[H]c1oc([H])c(C2([H])C(C([H])([H])[H])=C3C([H])(OC4([H])C5([H])OC6(C([H])([H])[H])C([H])([H])C([H])([H])C5([H])C(C([H])([H])[H])(C6([H])[H])C34C([H])([H])[H])C2([H])[H])c1[H]

$$$$
33:0:0
     RDKit          3D

 44 47  0  0  1  0  0  0  0  0999 V2000
    2.1605    2.8272    4.1023 C   0  0  0  0  0  0  0  0  0  0  0  0
    1.0696    2.2823    3.1708 C   0  0  2  0  0  0  0  0  0  0  0  0
   -0.1376    1.7422    3.9268 C   0  0  2  0  0  0  0  0  0  0  0  0
   -0.0694    0.9217    5.2069 C   0  0  1  0  0  0  0  0  0  0  0  0
   -1.3181    0.9195    6.0804 C   0  0  0  0  0  0  0  0  0  0  0  0
   -1.7831   -0.1887    6.4088 O   0  0  0  0  0  0  0  0  0  0  0  0
   -1.7670    2.0275    6.4425 O   0  0  0  0  0  0  0  0  0  0  0  0
   -0.1449    0.2161    3.8732 C   0  0  2  0  0  0  0  0  0  0  0  0
    1.1647   -0.0666    3.2597 N   0  0  2  0  0  0  0  0  0  0  0  0
    1.4614    1.0465    2.3739 C   0  0  2  0  0  0  0  0  0  0  0  0
    2.8440    0.7159    1.8644 C   0  0  0  0  0  0  0  0  0  0  0  0
    2.6795   -0.7944    1.5774 C   0  0  1  0  0  0  0  0  0  0  0  0
    4.2907   -1.6884    1.6268 S   0  0  0  0  0  0  0  0  0  0  0  0
    4.7052   -2.2995    0.0076 C   0  0  0  0  0  0  0  0  0  0  0  0
    3.6390   -2.6131   -0.7576 N   0  0  0  0  0  0  0  0  0  0  0  0
    3.8631   -3.1190   -1.9853 C   0  0  0  0  0  0  0  0  0  0  0  0
    5.1487   -3.3582   -2.5021 C   0  0  0  0  0  0  0  0  0  0  0  0
    6.2607   -3.0481   -1.7005 C   0  0  0  0  0  0  0  0  0  0  0  0
    6.0444   -2.4889   -0.4183 C   0  0  0  0  0  0  0  0  0  0  0  0
    7.2293   -2.1567    0.4778 C   0  0  0  0  0  0  0  0  0  0  0  0
    8.4017   -1.8917   -0.2588 O   0  0  0  0  0  0  0  0  0  0  0  0
    1.4873   -1.2790    2.4852 C   0  0  1  0  0  0  0  0  0  0  0  0
    1.8168   -2.3974    3.4663 C   0  0  0  0  0  0  0  0  0  0  0  0
    1.1845   -3.4638    3.3317 O   0  0  0  0  0  0  0  0  0  0  0  0
    2.6604   -2.1467    4.3569 O   0  0  0  0  0  0  0  0  0  0  0  0
    2.5713    2.0448    4.7400 H   0  0  0  0  0  0  0  0  0  0  0  0
    1.7596    3.6069    4.7507 H   0  0  0  0  0  0  0  0  0  0  0  0
    2.9815    3.2550    3.5279 H   0  0  0  0  0  0  0  0  0  0  0  0
    0.7425    3.0635    2.4899 H   0  0  0  0  0  0  0  0  0  0  0  0
   -1.0787    2.2278    3.7112 H   0  0  0  0  0  0  0  0  0  0  0  0
    0.8689    0.8905    5.7541 H   0  0  0  0  0  0  0  0  0  0  0  0
   -1.0366   -0.2432    3.4584 H   0  0  0  0  0  0  0  0  0  0  0  0
    0.7689    0.9884    1.5323 H   0  0  0  0  0  0  0  0  0  0  0  0
    3.0813    1.2619    0.9585 H   0  0  0  0  0  0  0  0  0  0  0  0
    3.6048    0.9059    2.6175 H   0  0  0  0  0  0  0  0  0  0  0  0
    2.2885   -0.8418    0.5704 H   0  0  0  0  0  0  0  0  0  0  0  0
    2.9852   -3.3566   -2.5668 H   0  0  0  0  0  0  0  0  0  0  0  0
    5.2773   -3.7983   -3.4829 H   0  0  0  0  0  0  0  0  0  0  0  0
    7.2543   -3.2597   -2.0786 H   0  0  0  0  0  0  0  0  0  0  0  0
    7.0218   -1.2874    1.1066 H   0  0  0  0  0  0  0  0  0  0  0  0
    7.4045   -3.0088    1.1392 H   0  0  0  0  0  0  0  0  0  0  0  0
    9.1413   -1.7641    0.3252 H   0  0  0  0  0  0  0  0  0  0  0  0
    0.6497   -1.5513    1.8475 H   0  0  0  0  0  0  0  0  0  0  0  0
    1.8405   -0.0522    4.0160 H   0  0  0  0  0  0  0  0  0  0  0  0
  1  2  1  0
  1 26  1  0
  1 27  1  0
  1 28  1  0
  2 10  1  0
  2  3  1  0
  2 29  1  6
  3  8  1  0
  3  4  1  0
  3 30  1  1
  4  5  1  0
  4  8  1  0
  4 31  1  1
  5  6  2  0
  5  7  1  0
  8  9  1  0
  8 32  1  1
  9 22  1  0
  9 10  1  0
  9 44  1  1
 10 11  1  0
 10 33  1  6
 11 12  1  0
 11 34  1  0
 11 35  1  0
 12 13  1  0
 12 22  1  0
 12 36  1  6
 13 14  1  0
 14 19  1  0
 14 15  2  0
 15 16  1  0
 16 17  2  0
 16 37  1  0
 17 18  1  0
 17 38  1  0
 18 19  2  0
 18 39  1  0
 19 20  1  0
 20 21  1  0
 20 40  1  0
 20 41  1  0
 21 42  1  0
 22 23  1  0
 22 43  1  6
 23 24  2  0
 23 25  1  0
M  CHG  3   7  -1   9   1  25  -1
M  END
>  <i_m_ct_stereo_status>  (82) 
1

>  <s_m_source_file>  (82) 
/var/tmp/pbs.5076255.sched01/tmpav68hifr/35m6z7vsub.sdf

>  <i_m_source_file_index>  (82) 
2

>  <i_lp_mmshare_version>  (82) 
48012

>  <i_f3d_flags>  (82) 
0

>  <s_epik_input>  (82) 
Tz1DKFtPSF0pW0NASF0xW0NAQEhdKFtDQEBIXTEyKU4zW0NAQEhdKFtDQEBIXTJbQ0gzXSlbQ0gyXVtDQEhdKFtDQEhdM0MoPU8pW09IXSlTYzRuW2NIXVtjSF1bY0hdYzRbQ0gyXVtPSF0=

>  <s_epik_cmdline>  (82) 
J2VwaWtfcHl0aG9uJywgJy1waHQnLCAnMi4wJywgJy1waCcsICc3LjAnLCAnLXRuJywgJzgnLCAnLW1hJywgJzIwMCcsICctaW1hZScsICc8aW5maWxlLm1hZT4nLCAnLW9tYWUnLCAnPG91dGZpbGUubWFlPic=

>  <r_lp_tautomer_probability>  (82) 
1

>  <r_epik_Ionization_Penalty>  (82) 
0.00860344

>  <r_epik_Ionization_Penalty_Charging>  (82) 
0.00160162

>  <r_epik_Ionization_Penalty_Neutral>  (82) 
0.00700182

>  <r_epik_State_Penalty>  (82) 
0.00520811

>  <r_epik_Charging_Adjusted_Penalty>  (82) 
0.00680973

>  <i_epik_Tot_Q>  (82) 
-1

>  <i_epik_Tot_abs_Q>  (82) 
3

>  <s_lp_Force_Field>  (82) 
OPLS3e

>  <r_lp_Energy>  (82) 
45.4848

>  <b_lp_Chiralities_Consistent>  (82) 
1

>  <s_lp_Variant>  (82) 
33:0-1

>  <s_i_glide_gridfile>  (82) 
pfpi4k_grid

>  <i_i_glide_lignum>  (82) 
2

>  <i_i_glide_rotatable_bonds>  (82) 
6

>  <r_i_docking_score>  (82) 
-3.71645

>  <r_i_glide_ligand_efficiency>  (82) 
-0.148658

>  <r_i_glide_ligand_efficiency_sa>  (82) 
-0.434679

>  <r_i_glide_ligand_efficiency_ln>  (82) 
-0.880911

>  <r_i_glide_gscore>  (82) 
-3.71645

>  <r_i_glide_lipo>  (82) 
-0.424287

>  <r_i_glide_hbond>  (82) 
-0.295184

>  <r_i_glide_metal>  (82) 
-0

>  <r_i_glide_rewards>  (82) 
-0.958842

>  <r_i_glide_evdw>  (82) 
-24.8465

>  <r_i_glide_ecoul>  (82) 
-7.82285

>  <r_i_glide_erotb>  (82) 
0.436442

>  <r_i_glide_esite>  (82) 
-0.0588303

>  <r_i_glide_emodel>  (82) 
-42.8567

>  <r_i_glide_energy>  (82) 
-32.6693

>  <r_i_glide_einternal>  (82) 
4.21707

>  <r_i_glide_intrahb_reward>  (82) 
-0

>  <i_i_glide_confnum>  (82) 
4

>  <i_i_glide_posenum>  (82) 
19

>  <r_i_glide_eff_state_penalty>  (82) 
0

>  <ligand_id>  (82) 
33

>  <original_smiles>  (82) 
CC1C2C(C(=O)O)C2N2C1CC(Sc1ncccc1CO)C2C(=O)O

>  <smiles>  (82) 
[H]OC([H])([H])c1c(SC2([H])C([H])([H])C3([H])C([H])(C([H])([H])[H])C4([H])C([H])(C(=O)[O-])C4([H])[N+]3([H])C2([H])C(=O)[O-])nc([H])c([H])c1[H]

$$$$
33:0:1
     RDKit          3D

 44 47  0  0  1  0  0  0  0  0999 V2000
    0.7563    3.8495    4.0175 C   0  0  0  0  0  0  0  0  0  0  0  0
   -0.2696    2.9190    3.3498 C   0  0  2  0  0  0  0  0  0  0  0  0
   -1.3245    2.4067    4.3218 C   0  0  2  0  0  0  0  0  0  0  0  0
   -1.0256    1.9811    5.7438 C   0  0  1  0  0  0  0  0  0  0  0  0
   -2.1960    2.0427    6.7085 C   0  0  0  0  0  0  0  0  0  0  0  0
   -2.5437    0.9603    7.2208 O   0  0  0  0  0  0  0  0  0  0  0  0
   -2.7063    3.1663    6.8739 O   0  0  0  0  0  0  0  0  0  0  0  0
   -1.0673    0.9434    4.6391 C   0  0  2  0  0  0  0  0  0  0  0  0
    0.2443    0.7157    3.9925 N   0  0  2  0  0  0  0  0  0  0  0  0
    0.2967    1.6015    2.8392 C   0  0  2  0  0  0  0  0  0  0  0  0
    1.6884    1.3674    2.3020 C   0  0  0  0  0  0  0  0  0  0  0  0
    1.7671   -0.1799    2.3814 C   0  0  1  0  0  0  0  0  0  0  0  0
    3.5212   -0.7230    2.4904 S   0  0  0  0  0  0  0  0  0  0  0  0
    3.8169   -2.0276    1.3242 C   0  0  0  0  0  0  0  0  0  0  0  0
    2.8363   -2.9414    1.2556 N   0  0  0  0  0  0  0  0  0  0  0  0
    3.0025   -3.9889    0.4249 C   0  0  0  0  0  0  0  0  0  0  0  0
    4.1459   -4.1581   -0.3812 C   0  0  0  0  0  0  0  0  0  0  0  0
    5.1597   -3.2050   -0.3180 C   0  0  0  0  0  0  0  0  0  0  0  0
    5.0246   -2.1088    0.5698 C   0  0  0  0  0  0  0  0  0  0  0  0
    6.1082   -1.0571    0.6956 C   0  0  0  0  0  0  0  0  0  0  0  0
    7.3406   -1.4626    0.1153 O   0  0  0  0  0  0  0  0  0  0  0  0
    0.7289   -0.5908    3.4967 C   0  0  1  0  0  0  0  0  0  0  0  0
    1.2547   -1.3707    4.6961 C   0  0  0  0  0  0  0  0  0  0  0  0
    0.6573   -2.4393    4.9484 O   0  0  0  0  0  0  0  0  0  0  0  0
    2.1667   -0.8478    5.3751 O   0  0  0  0  0  0  0  0  0  0  0  0
    1.3315    3.3277    4.7833 H   0  0  0  0  0  0  0  0  0  0  0  0
    0.2650    4.7006    4.4904 H   0  0  0  0  0  0  0  0  0  0  0  0
    1.4590    4.2338    3.2792 H   0  0  0  0  0  0  0  0  0  0  0  0
   -0.7919    3.4226    2.5323 H   0  0  0  0  0  0  0  0  0  0  0  0
   -2.3443    2.6758    4.0777 H   0  0  0  0  0  0  0  0  0  0  0  0
   -0.0666    2.2287    6.1831 H   0  0  0  0  0  0  0  0  0  0  0  0
   -1.8910    0.2557    4.4281 H   0  0  0  0  0  0  0  0  0  0  0  0
   -0.4154    1.2302    2.0996 H   0  0  0  0  0  0  0  0  0  0  0  0
    1.7831    1.7254    1.2845 H   0  0  0  0  0  0  0  0  0  0  0  0
    2.4437    1.8450    2.9294 H   0  0  0  0  0  0  0  0  0  0  0  0
    1.3492   -0.5692    1.4559 H   0  0  0  0  0  0  0  0  0  0  0  0
    2.1985   -4.7028    0.3888 H   0  0  0  0  0  0  0  0  0  0  0  0
    4.2152   -5.0062   -1.0465 H   0  0  0  0  0  0  0  0  0  0  0  0
    6.0300   -3.3351   -0.9543 H   0  0  0  0  0  0  0  0  0  0  0  0
    5.7505   -0.1489    0.2115 H   0  0  0  0  0  0  0  0  0  0  0  0
    6.2963   -0.8242    1.7446 H   0  0  0  0  0  0  0  0  0  0  0  0
    7.6613   -2.2117    0.5827 H   0  0  0  0  0  0  0  0  0  0  0  0
   -0.0915   -1.1395    3.0384 H   0  0  0  0  0  0  0  0  0  0  0  0
    0.9411    1.0339    4.6588 H   0  0  0  0  0  0  0  0  0  0  0  0
  1  2  1  0
  1 26  1  0
  1 27  1  0
  1 28  1  0
  2 10  1  0
  2  3  1  0
  2 29  1  6
  3  8  1  0
  3  4  1  0
  3 30  1  1
  4  5  1  0
  4  8  1  0
  4 31  1  1
  5  6  2  0
  5  7  1  0
  8  9  1  0
  8 32  1  1
  9 22  1  0
  9 10  1  0
  9 44  1  1
 10 11  1  0
 10 33  1  6
 11 12  1  0
 11 34  1  0
 11 35  1  0
 12 13  1  0
 12 22  1  0
 12 36  1  6
 13 14  1  0
 14 19  1  0
 14 15  2  0
 15 16  1  0
 16 17  2  0
 16 37  1  0
 17 18  1  0
 17 38  1  0
 18 19  2  0
 18 39  1  0
 19 20  1  0
 20 21  1  0
 20 40  1  0
 20 41  1  0
 21 42  1  0
 22 23  1  0
 22 43  1  6
 23 24  2  0
 23 25  1  0
M  CHG  3   7  -1   9   1  25  -1
M  END
>  <i_m_ct_stereo_status>  (83) 
1

>  <s_m_source_file>  (83) 
/var/tmp/pbs.5076255.sched01/tmpav68hifr/35m6z7vsub.sdf

>  <i_m_source_file_index>  (83) 
2

>  <i_lp_mmshare_version>  (83) 
48012

>  <i_f3d_flags>  (83) 
0

>  <s_epik_input>  (83) 
Tz1DKFtPSF0pW0NASF0xW0NAQEhdKFtDQEBIXTEyKU4zW0NAQEhdKFtDQEBIXTJbQ0gzXSlbQ0gyXVtDQEhdKFtDQEhdM0MoPU8pW09IXSlTYzRuW2NIXVtjSF1bY0hdYzRbQ0gyXVtPSF0=

>  <s_epik_cmdline>  (83) 
J2VwaWtfcHl0aG9uJywgJy1waHQnLCAnMi4wJywgJy1waCcsICc3LjAnLCAnLXRuJywgJzgnLCAnLW1hJywgJzIwMCcsICctaW1hZScsICc8aW5maWxlLm1hZT4nLCAnLW9tYWUnLCAnPG91dGZpbGUubWFlPic=

>  <r_lp_tautomer_probability>  (83) 
1

>  <r_epik_Ionization_Penalty>  (83) 
0.00860344

>  <r_epik_Ionization_Penalty_Charging>  (83) 
0.00160162

>  <r_epik_Ionization_Penalty_Neutral>  (83) 
0.00700182

>  <r_epik_State_Penalty>  (83) 
0.00520811

>  <r_epik_Charging_Adjusted_Penalty>  (83) 
0.00680973

>  <i_epik_Tot_Q>  (83) 
-1

>  <i_epik_Tot_abs_Q>  (83) 
3

>  <s_lp_Force_Field>  (83) 
OPLS3e

>  <r_lp_Energy>  (83) 
45.4848

>  <b_lp_Chiralities_Consistent>  (83) 
1

>  <s_lp_Variant>  (83) 
33:0-1

>  <s_i_glide_gridfile>  (83) 
pfpi4k_grid

>  <i_i_glide_lignum>  (83) 
2

>  <i_i_glide_rotatable_bonds>  (83) 
6

>  <r_i_docking_score>  (83) 
-3.51878

>  <r_i_glide_ligand_efficiency>  (83) 
-0.140751

>  <r_i_glide_ligand_efficiency_sa>  (83) 
-0.411559

>  <r_i_glide_ligand_efficiency_ln>  (83) 
-0.834057

>  <r_i_glide_gscore>  (83) 
-3.51878

>  <r_i_glide_lipo>  (83) 
-0.197553

>  <r_i_glide_hbond>  (83) 
-0.298346

>  <r_i_glide_metal>  (83) 
-0

>  <r_i_glide_rewards>  (83) 
-0.931301

>  <r_i_glide_evdw>  (83) 
-23.7421

>  <r_i_glide_ecoul>  (83) 
-8.80948

>  <r_i_glide_erotb>  (83) 
0.436442

>  <r_i_glide_esite>  (83) 
-0.0194986

>  <r_i_glide_emodel>  (83) 
-41.6604

>  <r_i_glide_energy>  (83) 
-32.5515

>  <r_i_glide_einternal>  (83) 
4.49995

>  <r_i_glide_intrahb_reward>  (83) 
-0

>  <i_i_glide_confnum>  (83) 
4

>  <i_i_glide_posenum>  (83) 
11

>  <r_i_glide_eff_state_penalty>  (83) 
0

>  <ligand_id>  (83) 
33

>  <original_smiles>  (83) 
CC1C2C(C(=O)O)C2N2C1CC(Sc1ncccc1CO)C2C(=O)O

>  <smiles>  (83) 
[H]OC([H])([H])c1c(SC2([H])C([H])([H])C3([H])C([H])(C([H])([H])[H])C4([H])C([H])(C(=O)[O-])C4([H])[N+]3([H])C2([H])C(=O)[O-])nc([H])c([H])c1[H]

$$$$
33:0:2
     RDKit          3D

 44 47  0  0  1  0  0  0  0  0999 V2000
    2.7939    3.2822    3.9899 C   0  0  0  0  0  0  0  0  0  0  0  0
    1.7226    2.9234    2.9463 C   0  0  2  0  0  0  0  0  0  0  0  0
    0.3110    2.9472    3.5259 C   0  0  2  0  0  0  0  0  0  0  0  0
   -0.0689    2.4106    4.8992 C   0  0  1  0  0  0  0  0  0  0  0  0
   -1.3451    2.9554    5.5364 C   0  0  0  0  0  0  0  0  0  0  0  0
   -1.8594    2.2302    6.4199 O   0  0  0  0  0  0  0  0  0  0  0  0
   -1.7792    4.0735    5.1727 O   0  0  0  0  0  0  0  0  0  0  0  0
   -0.1978    1.5169    3.6954 C   0  0  2  0  0  0  0  0  0  0  0  0
    1.0080    0.7286    3.3948 N   0  0  2  0  0  0  0  0  0  0  0  0
    1.7595    1.4979    2.4153 C   0  0  2  0  0  0  0  0  0  0  0  0
    3.0159    0.6874    2.1899 C   0  0  0  0  0  0  0  0  0  0  0  0
    2.4311   -0.7417    2.1414 C   0  0  1  0  0  0  0  0  0  0  0  0
    3.7448   -1.9274    2.6154 S   0  0  0  0  0  0  0  0  0  0  0  0
    4.7887   -2.1870    1.2070 C   0  0  0  0  0  0  0  0  0  0  0  0
    6.0302   -1.6892    1.3956 N   0  0  0  0  0  0  0  0  0  0  0  0
    6.9365   -1.8768    0.4213 C   0  0  0  0  0  0  0  0  0  0  0  0
    6.6462   -2.5493   -0.7862 C   0  0  0  0  0  0  0  0  0  0  0  0
    5.3486   -3.0795   -0.9683 C   0  0  0  0  0  0  0  0  0  0  0  0
    4.3810   -2.9008    0.0496 C   0  0  0  0  0  0  0  0  0  0  0  0
    3.0008   -3.5171   -0.1257 C   0  0  0  0  0  0  0  0  0  0  0  0
    2.3450   -3.0665   -1.2891 O   0  0  0  0  0  0  0  0  0  0  0  0
    1.0424   -0.6665    2.9301 C   0  0  1  0  0  0  0  0  0  0  0  0
    0.6953   -1.6030    4.1185 C   0  0  0  0  0  0  0  0  0  0  0  0
   -0.4948   -1.6284    4.4745 O   0  0  0  0  0  0  0  0  0  0  0  0
    1.5854   -2.2492    4.7122 O   0  0  0  0  0  0  0  0  0  0  0  0
    2.8351    2.5517    4.7970 H   0  0  0  0  0  0  0  0  0  0  0  0
    2.5943    4.2644    4.4285 H   0  0  0  0  0  0  0  0  0  0  0  0
    3.7791    3.3258    3.5283 H   0  0  0  0  0  0  0  0  0  0  0  0
    1.8012    3.6281    2.1179 H   0  0  0  0  0  0  0  0  0  0  0  0
   -0.3721    3.6514    3.0611 H   0  0  0  0  0  0  0  0  0  0  0  0
    0.7281    2.2006    5.6148 H   0  0  0  0  0  0  0  0  0  0  0  0
   -1.1349    1.2607    3.2031 H   0  0  0  0  0  0  0  0  0  0  0  0
    1.1891    1.4965    1.4822 H   0  0  0  0  0  0  0  0  0  0  0  0
    3.5498    0.9531    1.2747 H   0  0  0  0  0  0  0  0  0  0  0  0
    3.6932    0.7880    3.0396 H   0  0  0  0  0  0  0  0  0  0  0  0
    2.1866   -0.9427    1.0963 H   0  0  0  0  0  0  0  0  0  0  0  0
    7.9124   -1.4555    0.6143 H   0  0  0  0  0  0  0  0  0  0  0  0
    7.4134   -2.6662   -1.5484 H   0  0  0  0  0  0  0  0  0  0  0  0
    5.1127   -3.6209   -1.8726 H   0  0  0  0  0  0  0  0  0  0  0  0
    3.1164   -4.5999   -0.1800 H   0  0  0  0  0  0  0  0  0  0  0  0
    2.3330   -3.3326    0.7102 H   0  0  0  0  0  0  0  0  0  0  0  0
    1.9639   -2.1987   -1.1259 H   0  0  0  0  0  0  0  0  0  0  0  0
    0.2600   -0.7907    2.1867 H   0  0  0  0  0  0  0  0  0  0  0  0
    1.5534    0.7282    4.2534 H   0  0  0  0  0  0  0  0  0  0  0  0
  1  2  1  0
  1 26  1  0
  1 27  1  0
  1 28  1  0
  2 10  1  0
  2  3  1  0
  2 29  1  6
  3  8  1  0
  3  4  1  0
  3 30  1  6
  4  5  1  0
  4  8  1  0
  4 31  1  1
  5  6  2  0
  5  7  1  0
  8  9  1  0
  8 32  1  6
  9 22  1  0
  9 10  1  0
  9 44  1  1
 10 11  1  0
 10 33  1  6
 11 12  1  0
 11 34  1  0
 11 35  1  0
 12 13  1  0
 12 22  1  0
 12 36  1  6
 13 14  1  0
 14 19  1  0
 14 15  2  0
 15 16  1  0
 16 17  2  0
 16 37  1  0
 17 18  1  0
 17 38  1  0
 18 19  2  0
 18 39  1  0
 19 20  1  0
 20 21  1  0
 20 40  1  0
 20 41  1  0
 21 42  1  0
 22 23  1  0
 22 43  1  6
 23 24  2  0
 23 25  1  0
M  CHG  3   7  -1   9   1  25  -1
M  END
>  <i_m_ct_stereo_status>  (84) 
1

>  <s_m_source_file>  (84) 
/var/tmp/pbs.5076255.sched01/tmpav68hifr/35m6z7vsub.sdf

>  <i_m_source_file_index>  (84) 
2

>  <i_lp_mmshare_version>  (84) 
48012

>  <i_f3d_flags>  (84) 
0

>  <s_epik_input>  (84) 
Tz1DKFtPSF0pW0NASF0xW0NAQEhdKFtDQEBIXTEyKU4zW0NAQEhdKFtDQEBIXTJbQ0gzXSlbQ0gyXVtDQEhdKFtDQEhdM0MoPU8pW09IXSlTYzRuW2NIXVtjSF1bY0hdYzRbQ0gyXVtPSF0=

>  <s_epik_cmdline>  (84) 
J2VwaWtfcHl0aG9uJywgJy1waHQnLCAnMi4wJywgJy1waCcsICc3LjAnLCAnLXRuJywgJzgnLCAnLW1hJywgJzIwMCcsICctaW1hZScsICc8aW5maWxlLm1hZT4nLCAnLW9tYWUnLCAnPG91dGZpbGUubWFlPic=

>  <r_lp_tautomer_probability>  (84) 
1

>  <r_epik_Ionization_Penalty>  (84) 
0.00860344

>  <r_epik_Ionization_Penalty_Charging>  (84) 
0.00160162

>  <r_epik_Ionization_Penalty_Neutral>  (84) 
0.00700182

>  <r_epik_State_Penalty>  (84) 
0.00520811

>  <r_epik_Charging_Adjusted_Penalty>  (84) 
0.00680973

>  <i_epik_Tot_Q>  (84) 
-1

>  <i_epik_Tot_abs_Q>  (84) 
3

>  <s_lp_Force_Field>  (84) 
OPLS3e

>  <r_lp_Energy>  (84) 
45.4848

>  <b_lp_Chiralities_Consistent>  (84) 
1

>  <s_lp_Variant>  (84) 
33:0-1

>  <s_i_glide_gridfile>  (84) 
pfpi4k_grid

>  <i_i_glide_lignum>  (84) 
2

>  <i_i_glide_rotatable_bonds>  (84) 
6

>  <r_i_docking_score>  (84) 
-3.24174

>  <r_i_glide_ligand_efficiency>  (84) 
-0.12967

>  <r_i_glide_ligand_efficiency_sa>  (84) 
-0.379156

>  <r_i_glide_ligand_efficiency_ln>  (84) 
-0.768389

>  <r_i_glide_gscore>  (84) 
-3.24174

>  <r_i_glide_lipo>  (84) 
-0.171278

>  <r_i_glide_hbond>  (84) 
-0.16

>  <r_i_glide_metal>  (84) 
-0

>  <r_i_glide_rewards>  (84) 
-0.932992

>  <r_i_glide_evdw>  (84) 
-24.9565

>  <r_i_glide_ecoul>  (84) 
-7.66573

>  <r_i_glide_erotb>  (84) 
0.436442

>  <r_i_glide_esite>  (84) 
-0.0162288

>  <r_i_glide_emodel>  (84) 
-39.1187

>  <r_i_glide_energy>  (84) 
-32.6222

>  <r_i_glide_einternal>  (84) 
6.77992

>  <r_i_glide_intrahb_reward>  (84) 
-0

>  <i_i_glide_confnum>  (84) 
2

>  <i_i_glide_posenum>  (84) 
33

>  <r_i_glide_eff_state_penalty>  (84) 
0

>  <ligand_id>  (84) 
33

>  <original_smiles>  (84) 
CC1C2C(C(=O)O)C2N2C1CC(Sc1ncccc1CO)C2C(=O)O

>  <smiles>  (84) 
[H]OC([H])([H])c1c(SC2([H])C([H])([H])C3([H])C([H])(C([H])([H])[H])C4([H])C([H])(C(=O)[O-])C4([H])[N+]3([H])C2([H])C(=O)[O-])nc([H])c([H])c1[H]

$$$$
35:0:0
     RDKit          3D

 87 92  0  0  1  0  0  0  0  0999 V2000
    5.4877   -9.4330    1.8593 C   0  0  0  0  0  0  0  0  0  0  0  0
    5.6824   -7.9248    1.5659 C   0  0  2  0  0  0  0  0  0  0  0  0
    7.1514   -7.5285    1.7694 C   0  0  0  0  0  0  0  0  0  0  0  0
    7.4041   -6.1597    1.1606 C   0  0  0  0  0  0  0  0  0  0  0  0
    6.4454   -5.0695    1.6717 C   0  0  1  0  0  0  0  0  0  0  0  0
    6.6568   -3.8163    0.8120 C   0  0  0  0  0  0  0  0  0  0  0  0
    5.8378   -2.6407    1.3398 C   0  0  0  0  0  0  0  0  0  0  0  0
    4.3036   -2.9093    1.4586 C   0  0  1  0  0  0  0  0  0  0  0  0
    3.7475   -3.0138    0.0091 C   0  0  0  0  0  0  0  0  0  0  0  0
    4.0495   -4.2809    2.1511 C   0  0  0  0  0  0  0  0  0  0  0  0
    3.0780   -4.3906    3.0909 C   0  0  0  0  0  0  0  0  0  0  0  0
    2.1106   -3.3070    3.5270 C   0  0  0  0  0  0  0  0  0  0  0  0
    2.1546   -2.0627    2.6302 C   0  0  1  0  0  0  0  0  0  0  0  0
    1.2128   -0.9188    3.1375 C   0  0  1  0  0  0  0  0  0  0  0  0
    1.0681   -0.7904    4.5532 O   0  0  0  0  0  0  0  0  0  0  0  0
    1.1369    0.5419    4.9878 C   0  0  2  0  0  0  0  0  0  0  0  0
    2.4593    0.8089    5.3949 O   0  0  0  0  0  0  0  0  0  0  0  0
    0.1902    0.7301    6.2508 C   0  0  0  0  0  0  0  0  0  0  0  0
    0.4085   -0.4632    7.2171 C   0  0  0  0  0  0  0  0  0  0  0  0
    0.5415    2.0256    7.0427 C   0  0  0  0  0  0  0  0  0  0  0  0
   -1.2894    0.7368    5.7780 C   0  0  1  0  0  0  0  0  0  0  0  0
   -2.1812    0.9400    6.8640 O   0  0  0  0  0  0  0  0  0  0  0  0
   -1.5343    1.8076    4.7114 C   0  0  0  0  0  0  0  0  0  0  0  0
   -0.7182    1.4820    3.4653 C   0  0  0  0  0  0  0  0  0  0  0  0
    0.8200    1.3938    3.6968 C   0  0  1  0  0  0  0  0  0  0  0  0
    1.4012    2.8360    3.7317 C   0  0  0  0  0  0  0  0  0  0  0  0
    1.4426    0.5002    2.5893 C   0  0  1  0  0  0  0  0  0  0  0  0
    2.9170    0.7829    2.2244 C   0  0  0  0  0  0  0  0  0  0  0  0
    3.5612   -0.3770    1.4479 C   0  0  0  0  0  0  0  0  0  0  0  0
    3.6231   -1.6983    2.2693 C   0  0  2  0  0  0  0  0  0  0  0  0
    4.4112   -1.4319    3.5850 C   0  0  0  0  0  0  0  0  0  0  0  0
    4.9408   -5.4780    1.6711 C   0  0  2  0  0  0  0  0  0  0  0  0
    4.7051   -6.9253    2.2822 C   0  0  0  0  0  0  0  0  0  0  0  0
    3.2752   -7.4320    1.9506 C   0  0  0  0  0  0  0  0  0  0  0  0
    4.9727   -6.9718    3.8158 C   0  0  0  0  0  0  0  0  0  0  0  0
    5.6545   -9.6999    2.9044 H   0  0  0  0  0  0  0  0  0  0  0  0
    6.1864  -10.0263    1.2660 H   0  0  0  0  0  0  0  0  0  0  0  0
    4.4942   -9.7820    1.5772 H   0  0  0  0  0  0  0  0  0  0  0  0
    5.4767   -7.8372    0.4975 H   0  0  0  0  0  0  0  0  0  0  0  0
    7.4217   -7.5241    2.8244 H   0  0  0  0  0  0  0  0  0  0  0  0
    7.8164   -8.2535    1.2987 H   0  0  0  0  0  0  0  0  0  0  0  0
    8.4378   -5.8752    1.3524 H   0  0  0  0  0  0  0  0  0  0  0  0
    7.3098   -6.2419    0.0836 H   0  0  0  0  0  0  0  0  0  0  0  0
    6.7387   -4.8344    2.6933 H   0  0  0  0  0  0  0  0  0  0  0  0
    7.7128   -3.5405    0.8198 H   0  0  0  0  0  0  0  0  0  0  0  0
    6.4046   -4.0188   -0.2283 H   0  0  0  0  0  0  0  0  0  0  0  0
    6.2782   -2.4100    2.3062 H   0  0  0  0  0  0  0  0  0  0  0  0
    6.0262   -1.7688    0.7122 H   0  0  0  0  0  0  0  0  0  0  0  0
    3.9732   -2.1285   -0.5845 H   0  0  0  0  0  0  0  0  0  0  0  0
    2.6720   -3.1733   -0.0182 H   0  0  0  0  0  0  0  0  0  0  0  0
    4.1816   -3.8458   -0.5401 H   0  0  0  0  0  0  0  0  0  0  0  0
    2.8882   -5.3086    3.6036 H   0  0  0  0  0  0  0  0  0  0  0  0
    1.1022   -3.7241    3.5172 H   0  0  0  0  0  0  0  0  0  0  0  0
    2.3394   -3.0546    4.5644 H   0  0  0  0  0  0  0  0  0  0  0  0
    1.6915   -2.3507    1.6900 H   0  0  0  0  0  0  0  0  0  0  0  0
    0.2142   -1.2122    2.8306 H   0  0  0  0  0  0  0  0  0  0  0  0
    2.9893    0.7983    4.6155 H   0  0  0  0  0  0  0  0  0  0  0  0
   -0.1680   -0.3397    8.1365 H   0  0  0  0  0  0  0  0  0  0  0  0
    1.4572   -0.5532    7.5039 H   0  0  0  0  0  0  0  0  0  0  0  0
    0.1037   -1.4085    6.7667 H   0  0  0  0  0  0  0  0  0  0  0  0
   -0.0711    2.1227    7.9399 H   0  0  0  0  0  0  0  0  0  0  0  0
    0.4054    2.9403    6.4737 H   0  0  0  0  0  0  0  0  0  0  0  0
    1.5723    2.0157    7.3952 H   0  0  0  0  0  0  0  0  0  0  0  0
   -1.5300   -0.2390    5.3496 H   0  0  0  0  0  0  0  0  0  0  0  0
   -2.0319    1.8134    7.2037 H   0  0  0  0  0  0  0  0  0  0  0  0
   -2.5846    1.8063    4.4336 H   0  0  0  0  0  0  0  0  0  0  0  0
   -1.3260    2.8089    5.0798 H   0  0  0  0  0  0  0  0  0  0  0  0
   -1.1095    0.5513    3.0588 H   0  0  0  0  0  0  0  0  0  0  0  0
   -0.9257    2.2297    2.6987 H   0  0  0  0  0  0  0  0  0  0  0  0
    1.2586    3.3299    2.7674 H   0  0  0  0  0  0  0  0  0  0  0  0
    2.4684    2.8746    3.9459 H   0  0  0  0  0  0  0  0  0  0  0  0
    0.9069    3.4646    4.4656 H   0  0  0  0  0  0  0  0  0  0  0  0
    0.8817    0.6191    1.6579 H   0  0  0  0  0  0  0  0  0  0  0  0
    2.9478    1.6800    1.6136 H   0  0  0  0  0  0  0  0  0  0  0  0
    3.5209    1.0182    3.0955 H   0  0  0  0  0  0  0  0  0  0  0  0
    2.9726   -0.5180    0.5415 H   0  0  0  0  0  0  0  0  0  0  0  0
    4.5542   -0.0782    1.1161 H   0  0  0  0  0  0  0  0  0  0  0  0
    3.7892   -0.9751    4.3439 H   0  0  0  0  0  0  0  0  0  0  0  0
    5.2605   -0.7662    3.4184 H   0  0  0  0  0  0  0  0  0  0  0  0
    4.7910   -2.3503    4.0326 H   0  0  0  0  0  0  0  0  0  0  0  0
    4.6767   -5.5999    0.6221 H   0  0  0  0  0  0  0  0  0  0  0  0
    2.4831   -6.7109    2.1232 H   0  0  0  0  0  0  0  0  0  0  0  0
    3.0219   -8.3187    2.5340 H   0  0  0  0  0  0  0  0  0  0  0  0
    3.2004   -7.7004    0.8959 H   0  0  0  0  0  0  0  0  0  0  0  0
    4.1274   -6.6731    4.4299 H   0  0  0  0  0  0  0  0  0  0  0  0
    5.8153   -6.3392    4.0962 H   0  0  0  0  0  0  0  0  0  0  0  0
    5.2201   -7.9761    4.1553 H   0  0  0  0  0  0  0  0  0  0  0  0
  1  2  1  0
  1 36  1  0
  1 37  1  0
  1 38  1  0
  2 33  1  0
  2  3  1  0
  2 39  1  6
  3  4  1  0
  3 40  1  0
  3 41  1  0
  4  5  1  0
  4 42  1  0
  4 43  1  0
  5 32  1  0
  5  6  1  0
  5 44  1  1
  6  7  1  0
  6 45  1  0
  6 46  1  0
  7  8  1  0
  7 47  1  0
  7 48  1  0
  8 30  1  0
  8  9  1  6
  8 10  1  0
  9 49  1  0
  9 50  1  0
  9 51  1  0
 10 11  2  0
 10 32  1  0
 11 12  1  0
 11 52  1  0
 12 13  1  0
 12 53  1  0
 12 54  1  0
 13 30  1  0
 13 14  1  0
 13 55  1  6
 14 27  1  0
 14 15  1  0
 14 56  1  6
 15 16  1  0
 16 25  1  0
 16 17  1  1
 16 18  1  0
 17 57  1  0
 18 19  1  0
 18 20  1  0
 18 21  1  0
 19 58  1  0
 19 59  1  0
 19 60  1  0
 20 61  1  0
 20 62  1  0
 20 63  1  0
 21 22  1  0
 21 23  1  0
 21 64  1  6
 22 65  1  0
 23 24  1  0
 23 66  1  0
 23 67  1  0
 24 25  1  0
 24 68  1  0
 24 69  1  0
 25 26  1  1
 25 27  1  0
 26 70  1  0
 26 71  1  0
 26 72  1  0
 27 28  1  0
 27 73  1  6
 28 29  1  0
 28 74  1  0
 28 75  1  0
 29 30  1  0
 29 76  1  0
 29 77  1  0
 30 31  1  1
 31 78  1  0
 31 79  1  0
 31 80  1  0
 32 33  1  0
 32 81  1  6
 33 34  1  0
 33 35  1  0
 34 82  1  0
 34 83  1  0
 34 84  1  0
 35 85  1  0
 35 86  1  0
 35 87  1  0
M  END
>  <i_m_ct_stereo_status>  (85) 
1

>  <s_m_source_file>  (85) 
/var/tmp/pbs.5076255.sched01/tmpav68hifr/35m6z7vsub.sdf

>  <i_m_source_file_index>  (85) 
4

>  <i_lp_mmshare_version>  (85) 
48012

>  <i_f3d_flags>  (85) 
0

>  <s_epik_input>  (85) 
W0NIM11DMShbQ0gzXSlbQ0BIXShbQ0gzXSlbQ0gyXVtDSDJdW0NAQEhdKFtDSDJdW0NIMl0yKVtDQEBIXTFDKFtDQF0yM1tDSDNdKT1bQ0hdW0NIMl1bQ0BIXTRbQ0BASF01W0NASF0oW0NIMl1bQ0gyXVtDQF0zNFtDSDNdKVtDQF02KFtDSDNdKVtDQEBdKE81KShbT0hdKUMoW0NIM10pKFtDSDNdKVtDQEBIXShbT0hdKVtDSDJdW0NIMl02

>  <s_epik_cmdline>  (85) 
J2VwaWtfcHl0aG9uJywgJy1waHQnLCAnMi4wJywgJy1waCcsICc3LjAnLCAnLXRuJywgJzgnLCAnLW1hJywgJzIwMCcsICctaW1hZScsICc8aW5maWxlLm1hZT4nLCAnLW9tYWUnLCAnPG91dGZpbGUubWFlPic=

>  <r_lp_tautomer_probability>  (85) 
1

>  <r_epik_Ionization_Penalty>  (85) 
3.89086e-07

>  <r_epik_Ionization_Penalty_Charging>  (85) 
0

>  <r_epik_Ionization_Penalty_Neutral>  (85) 
3.89086e-07

>  <r_epik_State_Penalty>  (85) 
-0

>  <r_epik_Charging_Adjusted_Penalty>  (85) 
0

>  <i_epik_Tot_Q>  (85) 
0

>  <i_epik_Tot_abs_Q>  (85) 
0

>  <s_lp_Force_Field>  (85) 
OPLS3e

>  <r_lp_Energy>  (85) 
75.1123

>  <b_lp_Chiralities_Consistent>  (85) 
1

>  <s_lp_Variant>  (85) 
35:0-1

>  <s_i_glide_gridfile>  (85) 
pfpi4k_grid

>  <i_i_glide_lignum>  (85) 
4

>  <i_i_glide_rotatable_bonds>  (85) 
2

>  <r_i_docking_score>  (85) 
-3.33504

>  <r_i_glide_ligand_efficiency>  (85) 
-0.0952869

>  <r_i_glide_ligand_efficiency_sa>  (85) 
-0.31169

>  <r_i_glide_ligand_efficiency_ln>  (85) 
-0.732115

>  <r_i_glide_gscore>  (85) 
-3.33504

>  <r_i_glide_lipo>  (85) 
-0.626312

>  <r_i_glide_hbond>  (85) 
-0.16

>  <r_i_glide_metal>  (85) 
-0

>  <r_i_glide_rewards>  (85) 
-0.103954

>  <r_i_glide_evdw>  (85) 
-33.5602

>  <r_i_glide_ecoul>  (85) 
-5.10411

>  <r_i_glide_erotb>  (85) 
0

>  <r_i_glide_esite>  (85) 
-0.00114595

>  <r_i_glide_emodel>  (85) 
-46.7723

>  <r_i_glide_energy>  (85) 
-38.6643

>  <r_i_glide_einternal>  (85) 
0.0927054

>  <r_i_glide_intrahb_reward>  (85) 
-0

>  <i_i_glide_confnum>  (85) 
2

>  <i_i_glide_posenum>  (85) 
8

>  <r_i_glide_eff_state_penalty>  (85) 
0

>  <ligand_id>  (85) 
35

>  <original_smiles>  (85) 
CC1CCC2CCC3(C)C(=CCC4C5OC6(O)C(C)(C)C(O)CCC6(C)C5CCC43C)C2C1(C)C

>  <smiles>  (85) 
[H]OC1([H])C([H])([H])C([H])([H])C2(C([H])([H])[H])C(O[H])(OC3([H])C2([H])C([H])([H])C([H])([H])C2(C([H])([H])[H])C3([H])C([H])([H])C([H])=C3C4([H])C([H])(C([H])([H])C([H])([H])C([H])(C([H])([H])[H])C4(C([H])([H])[H])C([H])([H])[H])C([H])([H])C([H])([H])C32C([H])([H])[H])C1(C([H])([H])[H])C([H])([H])[H]

$$$$
35:0:1
     RDKit          3D

 87 92  0  0  1  0  0  0  0  0999 V2000
    5.4761   -9.5085    1.8791 C   0  0  0  0  0  0  0  0  0  0  0  0
    5.6750   -8.0061    1.5684 C   0  0  2  0  0  0  0  0  0  0  0  0
    7.1449   -7.6105    1.7701 C   0  0  0  0  0  0  0  0  0  0  0  0
    7.4038   -6.2452    1.1545 C   0  0  0  0  0  0  0  0  0  0  0  0
    6.4450   -5.1478    1.6493 C   0  0  1  0  0  0  0  0  0  0  0  0
    6.6537   -3.9071    0.7709 C   0  0  0  0  0  0  0  0  0  0  0  0
    5.8402   -2.7252    1.2889 C   0  0  0  0  0  0  0  0  0  0  0  0
    4.3047   -2.9886    1.4162 C   0  0  1  0  0  0  0  0  0  0  0  0
    3.7421   -3.1070   -0.0298 C   0  0  0  0  0  0  0  0  0  0  0  0
    4.0488   -4.3542    2.1250 C   0  0  0  0  0  0  0  0  0  0  0  0
    3.0822   -4.4505    3.0683 C   0  0  0  0  0  0  0  0  0  0  0  0
    2.1172   -3.3611    3.4969 C   0  0  0  0  0  0  0  0  0  0  0  0
    2.1620   -2.1254    2.5881 C   0  0  1  0  0  0  0  0  0  0  0  0
    1.2265   -0.9723    3.0890 C   0  0  1  0  0  0  0  0  0  0  0  0
    1.0932   -0.8274    4.5046 O   0  0  0  0  0  0  0  0  0  0  0  0
    1.1627    0.5101    4.9256 C   0  0  2  0  0  0  0  0  0  0  0  0
    2.4853    0.7741    5.3378 O   0  0  0  0  0  0  0  0  0  0  0  0
    0.2125    0.7100    6.1865 C   0  0  0  0  0  0  0  0  0  0  0  0
    0.4321   -0.4764    7.1614 C   0  0  0  0  0  0  0  0  0  0  0  0
    0.5698    2.0118    6.9649 C   0  0  0  0  0  0  0  0  0  0  0  0
   -1.2707    0.7183    5.7229 C   0  0  1  0  0  0  0  0  0  0  0  0
   -2.1509    0.9426    6.8183 O   0  0  0  0  0  0  0  0  0  0  0  0
   -1.5274    1.7711    4.6427 C   0  0  0  0  0  0  0  0  0  0  0  0
   -0.7069    1.4332    3.3983 C   0  0  0  0  0  0  0  0  0  0  0  0
    0.8350    1.3455    3.6245 C   0  0  1  0  0  0  0  0  0  0  0  0
    1.4203    2.7860    3.6406 C   0  0  0  0  0  0  0  0  0  0  0  0
    1.4515    0.4389    2.5235 C   0  0  1  0  0  0  0  0  0  0  0  0
    2.9238    0.7109    2.1497 C   0  0  0  0  0  0  0  0  0  0  0  0
    3.5675   -0.4576    1.3839 C   0  0  0  0  0  0  0  0  0  0  0  0
    3.6299   -1.7693    2.2185 C   0  0  2  0  0  0  0  0  0  0  0  0
    4.4225   -1.4886    3.5276 C   0  0  0  0  0  0  0  0  0  0  0  0
    4.9390   -5.5552    1.6537 C   0  0  2  0  0  0  0  0  0  0  0  0
    4.7013   -6.9967    2.2784 C   0  0  0  0  0  0  0  0  0  0  0  0
    3.2684   -7.5030    1.9564 C   0  0  0  0  0  0  0  0  0  0  0  0
    4.9761   -7.0272    3.8105 C   0  0  0  0  0  0  0  0  0  0  0  0
    5.6468   -9.7630    2.9259 H   0  0  0  0  0  0  0  0  0  0  0  0
    6.1698  -10.1102    1.2887 H   0  0  0  0  0  0  0  0  0  0  0  0
    4.4798   -9.8547    1.6024 H   0  0  0  0  0  0  0  0  0  0  0  0
    5.4680   -7.9311    0.4983 H   0  0  0  0  0  0  0  0  0  0  0  0
    7.4188   -7.6036    2.8247 H   0  0  0  0  0  0  0  0  0  0  0  0
    7.8039   -8.3405    1.2983 H   0  0  0  0  0  0  0  0  0  0  0  0
    8.4393   -5.9600    1.3404 H   0  0  0  0  0  0  0  0  0  0  0  0
    7.3069   -6.3318    0.0817 H   0  0  0  0  0  0  0  0  0  0  0  0
    6.7393   -4.8984    2.6674 H   0  0  0  0  0  0  0  0  0  0  0  0
    7.7088   -3.6332    0.7678 H   0  0  0  0  0  0  0  0  0  0  0  0
    6.3960   -4.1205   -0.2658 H   0  0  0  0  0  0  0  0  0  0  0  0
    6.2842   -2.4849    2.2511 H   0  0  0  0  0  0  0  0  0  0  0  0
    6.0256   -1.8594    0.6525 H   0  0  0  0  0  0  0  0  0  0  0  0
    3.9678   -2.2290   -0.6333 H   0  0  0  0  0  0  0  0  0  0  0  0
    2.6655   -3.2612   -0.0508 H   0  0  0  0  0  0  0  0  0  0  0  0
    4.1690   -3.9464   -0.5733 H   0  0  0  0  0  0  0  0  0  0  0  0
    2.8917   -5.3654    3.5901 H   0  0  0  0  0  0  0  0  0  0  0  0
    1.1084   -3.7773    3.4948 H   0  0  0  0  0  0  0  0  0  0  0  0
    2.3506   -3.1001    4.5309 H   0  0  0  0  0  0  0  0  0  0  0  0
    1.6957   -2.4236    1.6540 H   0  0  0  0  0  0  0  0  0  0  0  0
    0.2221   -1.2670    2.7865 H   0  0  0  0  0  0  0  0  0  0  0  0
    2.6655    0.2039    6.0725 H   0  0  0  0  0  0  0  0  0  0  0  0
   -0.1454   -0.3449    8.0785 H   0  0  0  0  0  0  0  0  0  0  0  0
    1.4781   -0.5705    7.4557 H   0  0  0  0  0  0  0  0  0  0  0  0
    0.1225   -1.4248    6.7205 H   0  0  0  0  0  0  0  0  0  0  0  0
   -0.0426    2.1201    7.8612 H   0  0  0  0  0  0  0  0  0  0  0  0
    0.4354    2.9192    6.3844 H   0  0  0  0  0  0  0  0  0  0  0  0
    1.6011    2.0055    7.3170 H   0  0  0  0  0  0  0  0  0  0  0  0
   -1.5199   -0.2612    5.3148 H   0  0  0  0  0  0  0  0  0  0  0  0
   -2.0193    1.8260    7.1263 H   0  0  0  0  0  0  0  0  0  0  0  0
   -2.5826    1.7707    4.3734 H   0  0  0  0  0  0  0  0  0  0  0  0
   -1.3129    2.7754    4.9955 H   0  0  0  0  0  0  0  0  0  0  0  0
   -1.0972    0.4989    2.9986 H   0  0  0  0  0  0  0  0  0  0  0  0
   -0.9146    2.1709    2.6216 H   0  0  0  0  0  0  0  0  0  0  0  0
    1.2786    3.2704    2.6716 H   0  0  0  0  0  0  0  0  0  0  0  0
    2.4879    2.8176    3.8517 H   0  0  0  0  0  0  0  0  0  0  0  0
    0.9311    3.4224    4.3706 H   0  0  0  0  0  0  0  0  0  0  0  0
    0.8896    0.5465    1.5918 H   0  0  0  0  0  0  0  0  0  0  0  0
    2.9576    1.5980    1.5245 H   0  0  0  0  0  0  0  0  0  0  0  0
    3.5206    0.9515    3.0257 H   0  0  0  0  0  0  0  0  0  0  0  0
    2.9744   -0.6067    0.4825 H   0  0  0  0  0  0  0  0  0  0  0  0
    4.5589   -0.1633    1.0431 H   0  0  0  0  0  0  0  0  0  0  0  0
    3.8018   -1.0136    4.2775 H   0  0  0  0  0  0  0  0  0  0  0  0
    5.2730   -0.8277    3.3513 H   0  0  0  0  0  0  0  0  0  0  0  0
    4.7995   -2.4031    3.9868 H   0  0  0  0  0  0  0  0  0  0  0  0
    4.6703   -5.6880    0.6073 H   0  0  0  0  0  0  0  0  0  0  0  0
    2.4777   -6.7793    2.1247 H   0  0  0  0  0  0  0  0  0  0  0  0
    3.0161   -8.3838    2.5495 H   0  0  0  0  0  0  0  0  0  0  0  0
    3.1875   -7.7831    0.9054 H   0  0  0  0  0  0  0  0  0  0  0  0
    4.1332   -6.7209    4.4242 H   0  0  0  0  0  0  0  0  0  0  0  0
    5.8194   -6.3924    4.0823 H   0  0  0  0  0  0  0  0  0  0  0  0
    5.2226   -8.0282    4.1596 H   0  0  0  0  0  0  0  0  0  0  0  0
  1  2  1  0
  1 36  1  0
  1 37  1  0
  1 38  1  0
  2 33  1  0
  2  3  1  0
  2 39  1  6
  3  4  1  0
  3 40  1  0
  3 41  1  0
  4  5  1  0
  4 42  1  0
  4 43  1  0
  5 32  1  0
  5  6  1  0
  5 44  1  1
  6  7  1  0
  6 45  1  0
  6 46  1  0
  7  8  1  0
  7 47  1  0
  7 48  1  0
  8 30  1  0
  8  9  1  6
  8 10  1  0
  9 49  1  0
  9 50  1  0
  9 51  1  0
 10 11  2  0
 10 32  1  0
 11 12  1  0
 11 52  1  0
 12 13  1  0
 12 53  1  0
 12 54  1  0
 13 30  1  0
 13 14  1  0
 13 55  1  6
 14 27  1  0
 14 15  1  0
 14 56  1  6
 15 16  1  0
 16 25  1  0
 16 17  1  1
 16 18  1  0
 17 57  1  0
 18 19  1  0
 18 20  1  0
 18 21  1  0
 19 58  1  0
 19 59  1  0
 19 60  1  0
 20 61  1  0
 20 62  1  0
 20 63  1  0
 21 22  1  0
 21 23  1  0
 21 64  1  6
 22 65  1  0
 23 24  1  0
 23 66  1  0
 23 67  1  0
 24 25  1  0
 24 68  1  0
 24 69  1  0
 25 26  1  1
 25 27  1  0
 26 70  1  0
 26 71  1  0
 26 72  1  0
 27 28  1  0
 27 73  1  6
 28 29  1  0
 28 74  1  0
 28 75  1  0
 29 30  1  0
 29 76  1  0
 29 77  1  0
 30 31  1  1
 31 78  1  0
 31 79  1  0
 31 80  1  0
 32 33  1  0
 32 81  1  6
 33 34  1  0
 33 35  1  0
 34 82  1  0
 34 83  1  0
 34 84  1  0
 35 85  1  0
 35 86  1  0
 35 87  1  0
M  END
>  <i_m_ct_stereo_status>  (86) 
1

>  <s_m_source_file>  (86) 
/var/tmp/pbs.5076255.sched01/tmpav68hifr/35m6z7vsub.sdf

>  <i_m_source_file_index>  (86) 
4

>  <i_lp_mmshare_version>  (86) 
48012

>  <i_f3d_flags>  (86) 
0

>  <s_epik_input>  (86) 
W0NIM11DMShbQ0gzXSlbQ0BIXShbQ0gzXSlbQ0gyXVtDSDJdW0NAQEhdKFtDSDJdW0NIMl0yKVtDQEBIXTFDKFtDQF0yM1tDSDNdKT1bQ0hdW0NIMl1bQ0BIXTRbQ0BASF01W0NASF0oW0NIMl1bQ0gyXVtDQF0zNFtDSDNdKVtDQF02KFtDSDNdKVtDQEBdKE81KShbT0hdKUMoW0NIM10pKFtDSDNdKVtDQEBIXShbT0hdKVtDSDJdW0NIMl02

>  <s_epik_cmdline>  (86) 
J2VwaWtfcHl0aG9uJywgJy1waHQnLCAnMi4wJywgJy1waCcsICc3LjAnLCAnLXRuJywgJzgnLCAnLW1hJywgJzIwMCcsICctaW1hZScsICc8aW5maWxlLm1hZT4nLCAnLW9tYWUnLCAnPG91dGZpbGUubWFlPic=

>  <r_lp_tautomer_probability>  (86) 
1

>  <r_epik_Ionization_Penalty>  (86) 
3.89086e-07

>  <r_epik_Ionization_Penalty_Charging>  (86) 
0

>  <r_epik_Ionization_Penalty_Neutral>  (86) 
3.89086e-07

>  <r_epik_State_Penalty>  (86) 
-0

>  <r_epik_Charging_Adjusted_Penalty>  (86) 
0

>  <i_epik_Tot_Q>  (86) 
0

>  <i_epik_Tot_abs_Q>  (86) 
0

>  <s_lp_Force_Field>  (86) 
OPLS3e

>  <r_lp_Energy>  (86) 
75.1123

>  <b_lp_Chiralities_Consistent>  (86) 
1

>  <s_lp_Variant>  (86) 
35:0-1

>  <s_i_glide_gridfile>  (86) 
pfpi4k_grid

>  <i_i_glide_lignum>  (86) 
4

>  <i_i_glide_rotatable_bonds>  (86) 
2

>  <r_i_docking_score>  (86) 
-3.2378

>  <r_i_glide_ligand_efficiency>  (86) 
-0.0925085

>  <r_i_glide_ligand_efficiency_sa>  (86) 
-0.302601

>  <r_i_glide_ligand_efficiency_ln>  (86) 
-0.710768

>  <r_i_glide_gscore>  (86) 
-3.2378

>  <r_i_glide_lipo>  (86) 
-0.642578

>  <r_i_glide_hbond>  (86) 
-0.16

>  <r_i_glide_metal>  (86) 
-0

>  <r_i_glide_rewards>  (86) 
-0.103954

>  <r_i_glide_evdw>  (86) 
-33.5945

>  <r_i_glide_ecoul>  (86) 
-4.33518

>  <r_i_glide_erotb>  (86) 
0

>  <r_i_glide_esite>  (86) 
-0.00126171

>  <r_i_glide_emodel>  (86) 
-45.8503

>  <r_i_glide_energy>  (86) 
-37.9297

>  <r_i_glide_einternal>  (86) 
0.0276092

>  <r_i_glide_intrahb_reward>  (86) 
-0

>  <i_i_glide_confnum>  (86) 
1

>  <i_i_glide_posenum>  (86) 
10

>  <r_i_glide_eff_state_penalty>  (86) 
0

>  <ligand_id>  (86) 
35

>  <original_smiles>  (86) 
CC1CCC2CCC3(C)C(=CCC4C5OC6(O)C(C)(C)C(O)CCC6(C)C5CCC43C)C2C1(C)C

>  <smiles>  (86) 
[H]OC1([H])C([H])([H])C([H])([H])C2(C([H])([H])[H])C(O[H])(OC3([H])C2([H])C([H])([H])C([H])([H])C2(C([H])([H])[H])C3([H])C([H])([H])C([H])=C3C4([H])C([H])(C([H])([H])C([H])([H])C([H])(C([H])([H])[H])C4(C([H])([H])[H])C([H])([H])[H])C([H])([H])C([H])([H])C32C([H])([H])[H])C1(C([H])([H])[H])C([H])([H])[H]

$$$$
35:0:2
     RDKit          3D

 87 92  0  0  1  0  0  0  0  0999 V2000
   -0.7834    4.3720    3.9344 C   0  0  0  0  0  0  0  0  0  0  0  0
    0.3801    3.4280    4.3149 C   0  0  2  0  0  0  0  0  0  0  0  0
    1.6814    3.8838    3.6448 C   0  0  0  0  0  0  0  0  0  0  0  0
    2.8605    3.1773    4.2995 C   0  0  0  0  0  0  0  0  0  0  0  0
    2.7367    1.6402    4.2859 C   0  0  1  0  0  0  0  0  0  0  0  0
    3.8618    1.0691    5.1571 C   0  0  0  0  0  0  0  0  0  0  0  0
    3.8884   -0.4548    5.0979 C   0  0  0  0  0  0  0  0  0  0  0  0
    2.5494   -1.1494    5.5081 C   0  0  1  0  0  0  0  0  0  0  0  0
    2.3641   -0.9235    7.0361 C   0  0  0  0  0  0  0  0  0  0  0  0
    1.3494   -0.4601    4.7935 C   0  0  0  0  0  0  0  0  0  0  0  0
    0.3616   -1.2175    4.2611 C   0  0  0  0  0  0  0  0  0  0  0  0
    0.2366   -2.7230    4.3429 C   0  0  0  0  0  0  0  0  0  0  0  0
    1.2362   -3.3728    5.3031 C   0  0  1  0  0  0  0  0  0  0  0  0
    1.1536   -4.9390    5.3008 C   0  0  1  0  0  0  0  0  0  0  0  0
    0.8393   -5.5639    4.0513 O   0  0  0  0  0  0  0  0  0  0  0  0
    1.6479   -6.6849    3.7880 C   0  0  2  0  0  0  0  0  0  0  0  0
    2.7168   -6.2748    2.9602 O   0  0  0  0  0  0  0  0  0  0  0  0
    0.7964   -7.7665    2.9850 C   0  0  0  0  0  0  0  0  0  0  0  0
    0.0110   -7.0458    1.8635 C   0  0  0  0  0  0  0  0  0  0  0  0
    1.7199   -8.8065    2.2856 C   0  0  0  0  0  0  0  0  0  0  0  0
   -0.2133   -8.4537    3.9495 C   0  0  1  0  0  0  0  0  0  0  0  0
   -0.9656   -9.4548    3.2810 O   0  0  0  0  0  0  0  0  0  0  0  0
    0.4936   -9.0710    5.1605 C   0  0  0  0  0  0  0  0  0  0  0  0
    1.1609   -7.9642    5.9798 C   0  0  0  0  0  0  0  0  0  0  0  0
    2.2073   -7.1067    5.2020 C   0  0  1  0  0  0  0  0  0  0  0  0
    3.5463   -7.8956    5.1381 C   0  0  0  0  0  0  0  0  0  0  0  0
    2.3354   -5.7227    5.8976 C   0  0  1  0  0  0  0  0  0  0  0  0
    3.6919   -4.9954    5.7518 C   0  0  0  0  0  0  0  0  0  0  0  0
    3.5960   -3.4977    6.0918 C   0  0  0  0  0  0  0  0  0  0  0  0
    2.6369   -2.7144    5.1501 C   0  0  2  0  0  0  0  0  0  0  0  0
    3.1222   -2.8963    3.6829 C   0  0  0  0  0  0  0  0  0  0  0  0
    1.3550    1.1055    4.7726 C   0  0  2  0  0  0  0  0  0  0  0  0
    0.1337    1.8858    4.1204 C   0  0  0  0  0  0  0  0  0  0  0  0
   -1.1875    1.5726    4.8773 C   0  0  0  0  0  0  0  0  0  0  0  0
   -0.0106    1.5840    2.6008 C   0  0  0  0  0  0  0  0  0  0  0  0
   -1.0322    4.3336    2.8767 H   0  0  0  0  0  0  0  0  0  0  0  0
   -0.5105    5.4062    4.1531 H   0  0  0  0  0  0  0  0  0  0  0  0
   -1.6877    4.1632    4.5052 H   0  0  0  0  0  0  0  0  0  0  0  0
    0.5208    3.5963    5.3837 H   0  0  0  0  0  0  0  0  0  0  0  0
    1.6669    3.6937    2.5708 H   0  0  0  0  0  0  0  0  0  0  0  0
    1.8068    4.9629    3.7498 H   0  0  0  0  0  0  0  0  0  0  0  0
    3.7748    3.4721    3.7813 H   0  0  0  0  0  0  0  0  0  0  0  0
    2.9555    3.5337    5.3254 H   0  0  0  0  0  0  0  0  0  0  0  0
    2.9025    1.3031    3.2617 H   0  0  0  0  0  0  0  0  0  0  0  0
    4.8227    1.4496    4.8102 H   0  0  0  0  0  0  0  0  0  0  0  0
    3.7579    1.4087    6.1868 H   0  0  0  0  0  0  0  0  0  0  0  0
    4.1682   -0.6862    4.0731 H   0  0  0  0  0  0  0  0  0  0  0  0
    4.7069   -0.8175    5.7191 H   0  0  0  0  0  0  0  0  0  0  0  0
    3.2150   -1.2836    7.6129 H   0  0  0  0  0  0  0  0  0  0  0  0
    1.4653   -1.3970    7.4255 H   0  0  0  0  0  0  0  0  0  0  0  0
    2.2719    0.1297    7.2900 H   0  0  0  0  0  0  0  0  0  0  0  0
   -0.4661   -0.7845    3.7403 H   0  0  0  0  0  0  0  0  0  0  0  0
   -0.7756   -2.9597    4.6660 H   0  0  0  0  0  0  0  0  0  0  0  0
    0.3554   -3.1131    3.3306 H   0  0  0  0  0  0  0  0  0  0  0  0
    0.8946   -3.1144    6.3021 H   0  0  0  0  0  0  0  0  0  0  0  0
    0.2849   -5.1755    5.9170 H   0  0  0  0  0  0  0  0  0  0  0  0
    2.3572   -6.0831    2.1086 H   0  0  0  0  0  0  0  0  0  0  0  0
   -0.5395   -7.7584    1.2436 H   0  0  0  0  0  0  0  0  0  0  0  0
    0.6666   -6.4811    1.1991 H   0  0  0  0  0  0  0  0  0  0  0  0
   -0.7228   -6.3638    2.2819 H   0  0  0  0  0  0  0  0  0  0  0  0
    1.1319   -9.5128    1.6961 H   0  0  0  0  0  0  0  0  0  0  0  0
    2.3109   -9.4041    2.9717 H   0  0  0  0  0  0  0  0  0  0  0  0
    2.4089   -8.3429    1.5780 H   0  0  0  0  0  0  0  0  0  0  0  0
   -0.9228   -7.7073    4.3179 H   0  0  0  0  0  0  0  0  0  0  0  0
   -1.4053   -9.9965    3.9365 H   0  0  0  0  0  0  0  0  0  0  0  0
   -0.2357   -9.5823    5.7890 H   0  0  0  0  0  0  0  0  0  0  0  0
    1.2086   -9.8357    4.8659 H   0  0  0  0  0  0  0  0  0  0  0  0
    0.3635   -7.3394    6.3836 H   0  0  0  0  0  0  0  0  0  0  0  0
    1.6335   -8.4132    6.8552 H   0  0  0  0  0  0  0  0  0  0  0  0
    3.9518   -8.0480    6.1405 H   0  0  0  0  0  0  0  0  0  0  0  0
    4.3181   -7.3914    4.5610 H   0  0  0  0  0  0  0  0  0  0  0  0
    3.4233   -8.8853    4.7101 H   0  0  0  0  0  0  0  0  0  0  0  0
    2.1812   -5.8373    6.9731 H   0  0  0  0  0  0  0  0  0  0  0  0
    4.4158   -5.4540    6.4242 H   0  0  0  0  0  0  0  0  0  0  0  0
    4.1037   -5.1192    4.7535 H   0  0  0  0  0  0  0  0  0  0  0  0
    3.2555   -3.4329    7.1248 H   0  0  0  0  0  0  0  0  0  0  0  0
    4.5932   -3.0612    6.0786 H   0  0  0  0  0  0  0  0  0  0  0  0
    2.7971   -3.8410    3.2636 H   0  0  0  0  0  0  0  0  0  0  0  0
    4.2107   -2.8745    3.6123 H   0  0  0  0  0  0  0  0  0  0  0  0
    2.7308   -2.1255    3.0185 H   0  0  0  0  0  0  0  0  0  0  0  0
    1.2950    1.3813    5.8245 H   0  0  0  0  0  0  0  0  0  0  0  0
   -1.3577    0.5214    5.0857 H   0  0  0  0  0  0  0  0  0  0  0  0
   -2.0566    1.9193    4.3167 H   0  0  0  0  0  0  0  0  0  0  0  0
   -1.2030    2.0684    5.8484 H   0  0  0  0  0  0  0  0  0  0  0  0
   -0.5774    0.6873    2.3640 H   0  0  0  0  0  0  0  0  0  0  0  0
    0.9598    1.4879    2.1114 H   0  0  0  0  0  0  0  0  0  0  0  0
   -0.5321    2.3845    2.0815 H   0  0  0  0  0  0  0  0  0  0  0  0
  1  2  1  0
  1 36  1  0
  1 37  1  0
  1 38  1  0
  2 33  1  0
  2  3  1  0
  2 39  1  1
  3  4  1  0
  3 40  1  0
  3 41  1  0
  4  5  1  0
  4 42  1  0
  4 43  1  0
  5 32  1  0
  5  6  1  0
  5 44  1  6
  6  7  1  0
  6 45  1  0
  6 46  1  0
  7  8  1  0
  7 47  1  0
  7 48  1  0
  8 30  1  0
  8  9  1  1
  8 10  1  0
  9 49  1  0
  9 50  1  0
  9 51  1  0
 10 11  2  0
 10 32  1  0
 11 12  1  0
 11 52  1  0
 12 13  1  0
 12 53  1  0
 12 54  1  0
 13 30  1  0
 13 14  1  0
 13 55  1  1
 14 27  1  0
 14 15  1  0
 14 56  1  1
 15 16  1  0
 16 25  1  0
 16 17  1  6
 16 18  1  0
 17 57  1  0
 18 19  1  0
 18 20  1  0
 18 21  1  0
 19 58  1  0
 19 59  1  0
 19 60  1  0
 20 61  1  0
 20 62  1  0
 20 63  1  0
 21 22  1  0
 21 23  1  0
 21 64  1  1
 22 65  1  0
 23 24  1  0
 23 66  1  0
 23 67  1  0
 24 25  1  0
 24 68  1  0
 24 69  1  0
 25 26  1  6
 25 27  1  0
 26 70  1  0
 26 71  1  0
 26 72  1  0
 27 28  1  0
 27 73  1  1
 28 29  1  0
 28 74  1  0
 28 75  1  0
 29 30  1  0
 29 76  1  0
 29 77  1  0
 30 31  1  6
 31 78  1  0
 31 79  1  0
 31 80  1  0
 32 33  1  0
 32 81  1  1
 33 34  1  0
 33 35  1  0
 34 82  1  0
 34 83  1  0
 34 84  1  0
 35 85  1  0
 35 86  1  0
 35 87  1  0
M  END
>  <i_m_ct_stereo_status>  (87) 
1

>  <s_m_source_file>  (87) 
/var/tmp/pbs.5076255.sched01/tmpav68hifr/35m6z7vsub.sdf

>  <i_m_source_file_index>  (87) 
4

>  <i_lp_mmshare_version>  (87) 
48012

>  <i_f3d_flags>  (87) 
0

>  <s_epik_input>  (87) 
W0NIM11DMShbQ0gzXSlbQ0BIXShbQ0gzXSlbQ0gyXVtDSDJdW0NAQEhdKFtDSDJdW0NIMl0yKVtDQEBIXTFDKFtDQF0yM1tDSDNdKT1bQ0hdW0NIMl1bQ0BIXTRbQ0BASF01W0NASF0oW0NIMl1bQ0gyXVtDQF0zNFtDSDNdKVtDQF02KFtDSDNdKVtDQEBdKE81KShbT0hdKUMoW0NIM10pKFtDSDNdKVtDQEBIXShbT0hdKVtDSDJdW0NIMl02

>  <s_epik_cmdline>  (87) 
J2VwaWtfcHl0aG9uJywgJy1waHQnLCAnMi4wJywgJy1waCcsICc3LjAnLCAnLXRuJywgJzgnLCAnLW1hJywgJzIwMCcsICctaW1hZScsICc8aW5maWxlLm1hZT4nLCAnLW9tYWUnLCAnPG91dGZpbGUubWFlPic=

>  <r_lp_tautomer_probability>  (87) 
1

>  <r_epik_Ionization_Penalty>  (87) 
3.89086e-07

>  <r_epik_Ionization_Penalty_Charging>  (87) 
0

>  <r_epik_Ionization_Penalty_Neutral>  (87) 
3.89086e-07

>  <r_epik_State_Penalty>  (87) 
-0

>  <r_epik_Charging_Adjusted_Penalty>  (87) 
0

>  <i_epik_Tot_Q>  (87) 
0

>  <i_epik_Tot_abs_Q>  (87) 
0

>  <s_lp_Force_Field>  (87) 
OPLS3e

>  <r_lp_Energy>  (87) 
75.1123

>  <b_lp_Chiralities_Consistent>  (87) 
1

>  <s_lp_Variant>  (87) 
35:0-1

>  <s_i_glide_gridfile>  (87) 
pfpi4k_grid

>  <i_i_glide_lignum>  (87) 
4

>  <i_i_glide_rotatable_bonds>  (87) 
2

>  <r_i_docking_score>  (87) 
-2.13014

>  <r_i_glide_ligand_efficiency>  (87) 
-0.0608611

>  <r_i_glide_ligand_efficiency_sa>  (87) 
-0.199081

>  <r_i_glide_ligand_efficiency_ln>  (87) 
-0.467612

>  <r_i_glide_gscore>  (87) 
-2.13014

>  <r_i_glide_lipo>  (87) 
-0.0577413

>  <r_i_glide_hbond>  (87) 
-0.16

>  <r_i_glide_metal>  (87) 
-0

>  <r_i_glide_rewards>  (87) 
-0.103954

>  <r_i_glide_evdw>  (87) 
-29.7585

>  <r_i_glide_ecoul>  (87) 
-2.08422

>  <r_i_glide_erotb>  (87) 
0

>  <r_i_glide_esite>  (87) 
-0.00788216

>  <r_i_glide_emodel>  (87) 
-36.6099

>  <r_i_glide_energy>  (87) 
-31.8428

>  <r_i_glide_einternal>  (87) 
0.620647

>  <r_i_glide_intrahb_reward>  (87) 
-0

>  <i_i_glide_confnum>  (87) 
1

>  <i_i_glide_posenum>  (87) 
2

>  <r_i_glide_eff_state_penalty>  (87) 
0

>  <ligand_id>  (87) 
35

>  <original_smiles>  (87) 
CC1CCC2CCC3(C)C(=CCC4C5OC6(O)C(C)(C)C(O)CCC6(C)C5CCC43C)C2C1(C)C

>  <smiles>  (87) 
[H]OC1([H])C([H])([H])C([H])([H])C2(C([H])([H])[H])C(O[H])(OC3([H])C2([H])C([H])([H])C([H])([H])C2(C([H])([H])[H])C3([H])C([H])([H])C([H])=C3C4([H])C([H])(C([H])([H])C([H])([H])C([H])(C([H])([H])[H])C4(C([H])([H])[H])C([H])([H])[H])C([H])([H])C([H])([H])C32C([H])([H])[H])C1(C([H])([H])[H])C([H])([H])[H]

$$$$
36:0:0
     RDKit          3D

 43 48  0  0  1  0  0  0  0  0999 V2000
   -1.3666   -1.4873    5.5225 C   0  0  0  0  0  0  0  0  0  0  0  0
   -0.8088   -0.3275    6.3612 C   0  0  2  0  0  0  0  0  0  0  0  0
   -1.9397    0.6111    6.5221 O   0  0  0  0  0  0  0  0  0  0  0  0
   -1.7471    1.9650    7.0575 C   0  0  2  0  0  0  0  0  0  0  0  0
   -2.1840    3.1591    6.1449 C   0  0  2  0  0  0  0  0  0  0  0  0
   -2.8477    2.9416    4.7955 C   0  0  0  0  0  0  0  0  0  0  0  0
   -2.3064    3.9271    3.7617 C   0  0  0  0  0  0  0  0  0  0  0  0
   -0.8050    3.7391    3.5345 C   0  0  0  0  0  0  0  0  0  0  0  0
    0.0250    3.7149    4.7799 N   0  0  2  0  0  0  0  0  0  0  0  0
    1.0471    2.6004    4.8777 C   0  0  2  0  0  0  0  0  0  0  0  0
    1.3390    1.4974    3.8621 C   0  0  0  0  0  0  0  0  0  0  0  0
    1.8942    1.6601    2.5893 C   0  0  0  0  0  0  0  0  0  0  0  0
    2.1574    2.9200    2.1116 O   0  0  0  0  0  0  0  0  0  0  0  0
    2.1893    0.4959    1.8472 C   0  0  0  0  0  0  0  0  0  0  0  0
    1.9253   -0.7929    2.3714 C   0  0  0  0  0  0  0  0  0  0  0  0
    1.3756   -0.9536    3.6631 C   0  0  0  0  0  0  0  0  0  0  0  0
    1.0795    0.2016    4.3969 C   0  0  0  0  0  0  0  0  0  0  0  0
    0.5579    0.2781    5.8373 C   0  0  1  0  0  0  0  0  0  0  0  0
    0.2805    1.7191    5.7612 C   0  0  1  0  0  0  0  0  0  0  0  0
   -0.3334    2.4502    6.8329 C   0  0  1  0  0  0  0  0  0  0  0  0
   -0.7420    3.7220    6.1161 C   0  0  2  0  0  0  0  0  0  0  0  0
   -0.6219   -2.2636    5.3607 H   0  0  0  0  0  0  0  0  0  0  0  0
   -1.7340   -1.1517    4.5536 H   0  0  0  0  0  0  0  0  0  0  0  0
   -2.2000   -1.9609    6.0386 H   0  0  0  0  0  0  0  0  0  0  0  0
   -0.5967   -0.7122    7.3605 H   0  0  0  0  0  0  0  0  0  0  0  0
   -2.0362    2.1089    8.0979 H   0  0  0  0  0  0  0  0  0  0  0  0
   -2.7714    3.8300    6.7676 H   0  0  0  0  0  0  0  0  0  0  0  0
   -2.6437    1.9321    4.4290 H   0  0  0  0  0  0  0  0  0  0  0  0
   -3.9320    3.0205    4.8888 H   0  0  0  0  0  0  0  0  0  0  0  0
   -2.8416    3.7986    2.8244 H   0  0  0  0  0  0  0  0  0  0  0  0
   -2.5024    4.9381    4.1059 H   0  0  0  0  0  0  0  0  0  0  0  0
   -0.6613    2.8362    2.9422 H   0  0  0  0  0  0  0  0  0  0  0  0
   -0.4513    4.5691    2.9198 H   0  0  0  0  0  0  0  0  0  0  0  0
    1.9510    2.9335    5.3873 H   0  0  0  0  0  0  0  0  0  0  0  0
    1.4466    3.3327    1.6251 H   0  0  0  0  0  0  0  0  0  0  0  0
    2.6197    0.5732    0.8621 H   0  0  0  0  0  0  0  0  0  0  0  0
    2.1465   -1.6590    1.7746 H   0  0  0  0  0  0  0  0  0  0  0  0
    1.2072   -1.9365    4.0771 H   0  0  0  0  0  0  0  0  0  0  0  0
    1.3713    0.1133    6.5460 H   0  0  0  0  0  0  0  0  0  0  0  0
   -0.5663    1.5762    5.0649 H   0  0  0  0  0  0  0  0  0  0  0  0
    0.2700    2.6072    7.7272 H   0  0  0  0  0  0  0  0  0  0  0  0
   -0.6195    4.6152    6.7350 H   0  0  0  0  0  0  0  0  0  0  0  0
    0.5643    4.5729    4.7438 H   0  0  0  0  0  0  0  0  0  0  0  0
  1  2  1  0
  1 22  1  0
  1 23  1  0
  1 24  1  0
  2 18  1  0
  2  3  1  0
  2 25  1  1
  3  4  1  0
  4 20  1  0
  4  5  1  0
  4 26  1  1
  5 21  1  0
  5  6  1  0
  5 27  1  1
  6  7  1  0
  6 28  1  0
  6 29  1  0
  7  8  1  0
  7 30  1  0
  7 31  1  0
  8  9  1  0
  8 32  1  0
  8 33  1  0
  9 21  1  0
  9 10  1  0
  9 43  1  1
 10 19  1  0
 10 11  1  0
 10 34  1  1
 11 17  2  0
 11 12  1  0
 12 13  1  0
 12 14  2  0
 13 35  1  0
 14 15  1  0
 14 36  1  0
 15 16  2  0
 15 37  1  0
 16 17  1  0
 16 38  1  0
 17 18  1  0
 18 19  1  0
 18 39  1  1
 19 20  1  0
 19 40  1  6
 20 21  1  0
 20 41  1  1
 21 42  1  1
M  CHG  1   9   1
M  END
>  <i_m_ct_stereo_status>  (88) 
1

>  <s_m_source_file>  (88) 
/var/tmp/pbs.5076255.sched01/tmpav68hifr/35m6z7vsub.sdf

>  <i_m_source_file_index>  (88) 
5

>  <i_lp_mmshare_version>  (88) 
48012

>  <i_f3d_flags>  (88) 
0

>  <s_epik_input>  (88) 
W09IXWMxW2NIXVtjSF1bY0hdYyhbQ0BIXShbQ0BASF0oTzIpW0NIM10pW0NASF0zW0NASF00NSljMVtDQEhdM04oW0NIMl1bQ0gyXVtDSDJdNilbQ0BIXTVbQ0BASF02W0NAQEhdMjQ=

>  <s_epik_cmdline>  (88) 
J2VwaWtfcHl0aG9uJywgJy1waHQnLCAnMi4wJywgJy1waCcsICc3LjAnLCAnLXRuJywgJzgnLCAnLW1hJywgJzIwMCcsICctaW1hZScsICc8aW5maWxlLm1hZT4nLCAnLW9tYWUnLCAnPG91dGZpbGUubWFlPic=

>  <r_lp_tautomer_probability>  (88) 
1

>  <r_epik_Ionization_Penalty>  (88) 
0.0469533

>  <r_epik_Ionization_Penalty_Charging>  (88) 
0.0231699

>  <r_epik_Ionization_Penalty_Neutral>  (88) 
0.0237834

>  <r_epik_State_Penalty>  (88) 
0.0604476

>  <r_epik_Charging_Adjusted_Penalty>  (88) 
0.0836176

>  <i_epik_Tot_Q>  (88) 
1

>  <i_epik_Tot_abs_Q>  (88) 
1

>  <s_lp_Force_Field>  (88) 
OPLS3e

>  <r_lp_Energy>  (88) 
114.492

>  <b_lp_Chiralities_Consistent>  (88) 
1

>  <s_lp_Variant>  (88) 
36:0-1

>  <s_i_glide_gridfile>  (88) 
pfpi4k_grid

>  <i_i_glide_lignum>  (88) 
5

>  <i_i_glide_rotatable_bonds>  (88) 
1

>  <r_i_docking_score>  (88) 
-3.50121

>  <r_i_glide_ligand_efficiency>  (88) 
-0.166724

>  <r_i_glide_ligand_efficiency_sa>  (88) 
-0.45998

>  <r_i_glide_ligand_efficiency_ln>  (88) 
-0.865668

>  <r_i_glide_gscore>  (88) 
-3.50121

>  <r_i_glide_lipo>  (88) 
-0.0937209

>  <r_i_glide_hbond>  (88) 
-0.32

>  <r_i_glide_metal>  (88) 
-0

>  <r_i_glide_rewards>  (88) 
-1.47019

>  <r_i_glide_evdw>  (88) 
-16.2558

>  <r_i_glide_ecoul>  (88) 
-5.19247

>  <r_i_glide_erotb>  (88) 
0

>  <r_i_glide_esite>  (88) 
-0.0256474

>  <r_i_glide_emodel>  (88) 
-24.638

>  <r_i_glide_energy>  (88) 
-21.4482

>  <r_i_glide_einternal>  (88) 
3.27376

>  <r_i_glide_intrahb_reward>  (88) 
-0

>  <i_i_glide_confnum>  (88) 
2

>  <i_i_glide_posenum>  (88) 
19

>  <r_i_glide_eff_state_penalty>  (88) 
0

>  <ligand_id>  (88) 
36

>  <original_smiles>  (88) 
CC1OC2C3CCCN4C5c6c(O)cccc6C1C5C2C34

>  <smiles>  (88) 
[H]Oc1c([H])c([H])c([H])c2c1C1([H])C3([H])C2([H])C([H])(C([H])([H])[H])OC2([H])C4([H])C([H])([H])C([H])([H])C([H])([H])[N+]1([H])C4([H])C23[H]

$$$$
36:0:1
     RDKit          3D

 43 48  0  0  1  0  0  0  0  0999 V2000
   -1.3020   -1.5555    5.6351 C   0  0  0  0  0  0  0  0  0  0  0  0
   -0.7149   -0.4297    6.4992 C   0  0  2  0  0  0  0  0  0  0  0  0
   -1.8007    0.5604    6.6546 O   0  0  0  0  0  0  0  0  0  0  0  0
   -1.5586    1.9015    7.2077 C   0  0  2  0  0  0  0  0  0  0  0  0
   -1.9170    3.1144    6.2882 C   0  0  2  0  0  0  0  0  0  0  0  0
   -2.5610    2.9301    4.9232 C   0  0  0  0  0  0  0  0  0  0  0  0
   -1.9341    3.9138    3.9255 C   0  0  0  0  0  0  0  0  0  0  0  0
   -0.4287    3.6602    3.7294 C   0  0  0  0  0  0  0  0  0  0  0  0
    0.3627    3.5788    4.9993 N   0  0  2  0  0  0  0  0  0  0  0  0
    1.3293    2.4162    5.1205 C   0  0  2  0  0  0  0  0  0  0  0  0
    1.6015    1.3020    4.1061 C   0  0  0  0  0  0  0  0  0  0  0  0
    2.2185    1.4375    2.8637 C   0  0  0  0  0  0  0  0  0  0  0  0
    2.6017    2.6703    2.4212 O   0  0  0  0  0  0  0  0  0  0  0  0
    2.4678    0.2716    2.1020 C   0  0  0  0  0  0  0  0  0  0  0  0
    2.1200   -1.0076    2.6036 C   0  0  0  0  0  0  0  0  0  0  0  0
    1.5244   -1.1453    3.8806 C   0  0  0  0  0  0  0  0  0  0  0  0
    1.2626    0.0190    4.6189 C   0  0  0  0  0  0  0  0  0  0  0  0
    0.6962    0.1131    6.0390 C   0  0  1  0  0  0  0  0  0  0  0  0
    0.4894    1.5662    5.9663 C   0  0  1  0  0  0  0  0  0  0  0  0
   -0.1163    2.3194    7.0273 C   0  0  1  0  0  0  0  0  0  0  0  0
   -0.4455    3.6141    6.3088 C   0  0  2  0  0  0  0  0  0  0  0  0
   -0.5917   -2.3679    5.4964 H   0  0  0  0  0  0  0  0  0  0  0  0
   -1.6209   -1.1951    4.6584 H   0  0  0  0  0  0  0  0  0  0  0  0
   -2.1791   -1.9921    6.1078 H   0  0  0  0  0  0  0  0  0  0  0  0
   -0.5509   -0.8315    7.4996 H   0  0  0  0  0  0  0  0  0  0  0  0
   -1.8785    2.0468    8.2401 H   0  0  0  0  0  0  0  0  0  0  0  0
   -2.4886    3.8184    6.8906 H   0  0  0  0  0  0  0  0  0  0  0  0
   -2.4183    1.9120    4.5520 H   0  0  0  0  0  0  0  0  0  0  0  0
   -3.6408    3.0771    4.9873 H   0  0  0  0  0  0  0  0  0  0  0  0
   -2.4423    3.8355    2.9657 H   0  0  0  0  0  0  0  0  0  0  0  0
   -2.0905    4.9325    4.2862 H   0  0  0  0  0  0  0  0  0  0  0  0
   -0.3099    2.7595    3.1318 H   0  0  0  0  0  0  0  0  0  0  0  0
   -0.0129    4.4738    3.1353 H   0  0  0  0  0  0  0  0  0  0  0  0
    2.2297    2.6985    5.6654 H   0  0  0  0  0  0  0  0  0  0  0  0
    2.1014    3.4077    2.7238 H   0  0  0  0  0  0  0  0  0  0  0  0
    2.9281    0.3485    1.1278 H   0  0  0  0  0  0  0  0  0  0  0  0
    2.3160   -1.8836    2.0067 H   0  0  0  0  0  0  0  0  0  0  0  0
    1.2919   -2.1244    4.2798 H   0  0  0  0  0  0  0  0  0  0  0  0
    1.4739   -0.0954    6.7762 H   0  0  0  0  0  0  0  0  0  0  0  0
   -0.3412    1.4749    5.2419 H   0  0  0  0  0  0  0  0  0  0  0  0
    0.4708    2.4372    7.9389 H   0  0  0  0  0  0  0  0  0  0  0  0
   -0.2918    4.4975    6.9317 H   0  0  0  0  0  0  0  0  0  0  0  0
    0.9371    4.4156    5.0016 H   0  0  0  0  0  0  0  0  0  0  0  0
  1  2  1  0
  1 22  1  0
  1 23  1  0
  1 24  1  0
  2 18  1  0
  2  3  1  0
  2 25  1  1
  3  4  1  0
  4 20  1  0
  4  5  1  0
  4 26  1  1
  5 21  1  0
  5  6  1  0
  5 27  1  1
  6  7  1  0
  6 28  1  0
  6 29  1  0
  7  8  1  0
  7 30  1  0
  7 31  1  0
  8  9  1  0
  8 32  1  0
  8 33  1  0
  9 21  1  0
  9 10  1  0
  9 43  1  1
 10 19  1  0
 10 11  1  0
 10 34  1  1
 11 17  2  0
 11 12  1  0
 12 13  1  0
 12 14  2  0
 13 35  1  0
 14 15  1  0
 14 36  1  0
 15 16  2  0
 15 37  1  0
 16 17  1  0
 16 38  1  0
 17 18  1  0
 18 19  1  0
 18 39  1  1
 19 20  1  0
 19 40  1  6
 20 21  1  0
 20 41  1  1
 21 42  1  1
M  CHG  1   9   1
M  END
>  <i_m_ct_stereo_status>  (89) 
1

>  <s_m_source_file>  (89) 
/var/tmp/pbs.5076255.sched01/tmpav68hifr/35m6z7vsub.sdf

>  <i_m_source_file_index>  (89) 
5

>  <i_lp_mmshare_version>  (89) 
48012

>  <i_f3d_flags>  (89) 
0

>  <s_epik_input>  (89) 
W09IXWMxW2NIXVtjSF1bY0hdYyhbQ0BIXShbQ0BASF0oTzIpW0NIM10pW0NASF0zW0NASF00NSljMVtDQEhdM04oW0NIMl1bQ0gyXVtDSDJdNilbQ0BIXTVbQ0BASF02W0NAQEhdMjQ=

>  <s_epik_cmdline>  (89) 
J2VwaWtfcHl0aG9uJywgJy1waHQnLCAnMi4wJywgJy1waCcsICc3LjAnLCAnLXRuJywgJzgnLCAnLW1hJywgJzIwMCcsICctaW1hZScsICc8aW5maWxlLm1hZT4nLCAnLW9tYWUnLCAnPG91dGZpbGUubWFlPic=

>  <r_lp_tautomer_probability>  (89) 
1

>  <r_epik_Ionization_Penalty>  (89) 
0.0469533

>  <r_epik_Ionization_Penalty_Charging>  (89) 
0.0231699

>  <r_epik_Ionization_Penalty_Neutral>  (89) 
0.0237834

>  <r_epik_State_Penalty>  (89) 
0.0604476

>  <r_epik_Charging_Adjusted_Penalty>  (89) 
0.0836176

>  <i_epik_Tot_Q>  (89) 
1

>  <i_epik_Tot_abs_Q>  (89) 
1

>  <s_lp_Force_Field>  (89) 
OPLS3e

>  <r_lp_Energy>  (89) 
114.492

>  <b_lp_Chiralities_Consistent>  (89) 
1

>  <s_lp_Variant>  (89) 
36:0-1

>  <s_i_glide_gridfile>  (89) 
pfpi4k_grid

>  <i_i_glide_lignum>  (89) 
5

>  <i_i_glide_rotatable_bonds>  (89) 
1

>  <r_i_docking_score>  (89) 
-3.02065

>  <r_i_glide_ligand_efficiency>  (89) 
-0.14384

>  <r_i_glide_ligand_efficiency_sa>  (89) 
-0.396844

>  <r_i_glide_ligand_efficiency_ln>  (89) 
-0.746849

>  <r_i_glide_gscore>  (89) 
-3.02065

>  <r_i_glide_lipo>  (89) 
-0.0809388

>  <r_i_glide_hbond>  (89) 
-0.16

>  <r_i_glide_metal>  (89) 
-0

>  <r_i_glide_rewards>  (89) 
-1.47019

>  <r_i_glide_evdw>  (89) 
-17.2922

>  <r_i_glide_ecoul>  (89) 
-2.86503

>  <r_i_glide_erotb>  (89) 
0

>  <r_i_glide_esite>  (89) 
-0.0151561

>  <r_i_glide_emodel>  (89) 
-23.5067

>  <r_i_glide_energy>  (89) 
-20.1572

>  <r_i_glide_einternal>  (89) 
0.549591

>  <r_i_glide_intrahb_reward>  (89) 
-0

>  <i_i_glide_confnum>  (89) 
2

>  <i_i_glide_posenum>  (89) 
1

>  <r_i_glide_eff_state_penalty>  (89) 
0

>  <ligand_id>  (89) 
36

>  <original_smiles>  (89) 
CC1OC2C3CCCN4C5c6c(O)cccc6C1C5C2C34

>  <smiles>  (89) 
[H]Oc1c([H])c([H])c([H])c2c1C1([H])C3([H])C2([H])C([H])(C([H])([H])[H])OC2([H])C4([H])C([H])([H])C([H])([H])C([H])([H])[N+]1([H])C4([H])C23[H]

$$$$
36:0:2
     RDKit          3D

 43 48  0  0  1  0  0  0  0  0999 V2000
    0.9160    0.5536    2.1040 C   0  0  0  0  0  0  0  0  0  0  0  0
    1.9260    1.5515    2.6898 C   0  0  2  0  0  0  0  0  0  0  0  0
    2.8031    0.7405    3.5551 O   0  0  0  0  0  0  0  0  0  0  0  0
    3.7773    1.3611    4.4596 C   0  0  2  0  0  0  0  0  0  0  0  0
    3.6490    0.9623    5.9614 C   0  0  2  0  0  0  0  0  0  0  0  0
    2.6652   -0.0901    6.4325 C   0  0  0  0  0  0  0  0  0  0  0  0
    2.0505    0.3727    7.7630 C   0  0  0  0  0  0  0  0  0  0  0  0
    1.2574    1.6876    7.6024 C   0  0  0  0  0  0  0  0  0  0  0  0
    1.9986    2.7921    6.9325 N   0  0  2  0  0  0  0  0  0  0  0  0
    1.2606    3.5380    5.8475 C   0  0  2  0  0  0  0  0  0  0  0  0
   -0.1545    3.3025    5.3294 C   0  0  0  0  0  0  0  0  0  0  0  0
   -1.3597    3.5180    6.0115 C   0  0  0  0  0  0  0  0  0  0  0  0
   -1.3659    3.9153    7.3266 O   0  0  0  0  0  0  0  0  0  0  0  0
   -2.5734    3.3239    5.3242 C   0  0  0  0  0  0  0  0  0  0  0  0
   -2.5782    2.9394    3.9511 C   0  0  0  0  0  0  0  0  0  0  0  0
   -1.3606    2.7396    3.2574 C   0  0  0  0  0  0  0  0  0  0  0  0
   -0.1600    2.9134    3.9502 C   0  0  0  0  0  0  0  0  0  0  0  0
    1.2621    2.8248    3.3718 C   0  0  1  0  0  0  0  0  0  0  0  0
    1.8990    2.8764    4.6988 C   0  0  1  0  0  0  0  0  0  0  0  0
    3.3099    2.7320    4.8906 C   0  0  1  0  0  0  0  0  0  0  0  0
    3.3782    2.4351    6.3761 C   0  0  2  0  0  0  0  0  0  0  0  0
    0.2046    1.0332    1.4336 H   0  0  0  0  0  0  0  0  0  0  0  0
    0.3629    0.0176    2.8748 H   0  0  0  0  0  0  0  0  0  0  0  0
    1.4370   -0.1942    1.5074 H   0  0  0  0  0  0  0  0  0  0  0  0
    2.5406    1.9212    1.8698 H   0  0  0  0  0  0  0  0  0  0  0  0
    4.8133    1.3814    4.1253 H   0  0  0  0  0  0  0  0  0  0  0  0
    4.6558    0.7440    6.3143 H   0  0  0  0  0  0  0  0  0  0  0  0
    1.8734   -0.2418    5.6974 H   0  0  0  0  0  0  0  0  0  0  0  0
    3.1602   -1.0563    6.5493 H   0  0  0  0  0  0  0  0  0  0  0  0
    1.3918   -0.4053    8.1457 H   0  0  0  0  0  0  0  0  0  0  0  0
    2.8487    0.4931    8.5059 H   0  0  0  0  0  0  0  0  0  0  0  0
    0.3361    1.4624    7.0762 H   0  0  0  0  0  0  0  0  0  0  0  0
    0.9585    2.0342    8.5871 H   0  0  0  0  0  0  0  0  0  0  0  0
    1.5258    4.5916    5.8232 H   0  0  0  0  0  0  0  0  0  0  0  0
   -2.2296    3.9667    7.6963 H   0  0  0  0  0  0  0  0  0  0  0  0
   -3.5194    3.4575    5.8225 H   0  0  0  0  0  0  0  0  0  0  0  0
   -3.5108    2.7883    3.4438 H   0  0  0  0  0  0  0  0  0  0  0  0
   -1.3568    2.4774    2.2028 H   0  0  0  0  0  0  0  0  0  0  0  0
    1.5064    3.7403    2.8326 H   0  0  0  0  0  0  0  0  0  0  0  0
    1.5355    1.8667    4.9609 H   0  0  0  0  0  0  0  0  0  0  0  0
    3.9280    3.5712    4.5668 H   0  0  0  0  0  0  0  0  0  0  0  0
    4.2358    2.9087    6.8554 H   0  0  0  0  0  0  0  0  0  0  0  0
    2.1554    3.4736    7.6667 H   0  0  0  0  0  0  0  0  0  0  0  0
  1  2  1  0
  1 22  1  0
  1 23  1  0
  1 24  1  0
  2 18  1  0
  2  3  1  0
  2 25  1  6
  3  4  1  0
  4 20  1  0
  4  5  1  0
  4 26  1  6
  5 21  1  0
  5  6  1  0
  5 27  1  1
  6  7  1  0
  6 28  1  0
  6 29  1  0
  7  8  1  0
  7 30  1  0
  7 31  1  0
  8  9  1  0
  8 32  1  0
  8 33  1  0
  9 21  1  0
  9 10  1  0
  9 43  1  1
 10 19  1  0
 10 11  1  0
 10 34  1  6
 11 17  2  0
 11 12  1  0
 12 13  1  0
 12 14  2  0
 13 35  1  0
 14 15  1  0
 14 36  1  0
 15 16  2  0
 15 37  1  0
 16 17  1  0
 16 38  1  0
 17 18  1  0
 18 19  1  0
 18 39  1  6
 19 20  1  0
 19 40  1  1
 20 21  1  0
 20 41  1  1
 21 42  1  1
M  CHG  1   9   1
M  END
>  <i_m_ct_stereo_status>  (90) 
1

>  <s_m_source_file>  (90) 
/var/tmp/pbs.5076255.sched01/tmpav68hifr/35m6z7vsub.sdf

>  <i_m_source_file_index>  (90) 
5

>  <i_lp_mmshare_version>  (90) 
48012

>  <i_f3d_flags>  (90) 
0

>  <s_epik_input>  (90) 
W09IXWMxW2NIXVtjSF1bY0hdYyhbQ0BIXShbQ0BASF0oTzIpW0NIM10pW0NASF0zW0NASF00NSljMVtDQEhdM04oW0NIMl1bQ0gyXVtDSDJdNilbQ0BIXTVbQ0BASF02W0NAQEhdMjQ=

>  <s_epik_cmdline>  (90) 
J2VwaWtfcHl0aG9uJywgJy1waHQnLCAnMi4wJywgJy1waCcsICc3LjAnLCAnLXRuJywgJzgnLCAnLW1hJywgJzIwMCcsICctaW1hZScsICc8aW5maWxlLm1hZT4nLCAnLW9tYWUnLCAnPG91dGZpbGUubWFlPic=

>  <r_lp_tautomer_probability>  (90) 
1

>  <r_epik_Ionization_Penalty>  (90) 
0.0469533

>  <r_epik_Ionization_Penalty_Charging>  (90) 
0.0231699

>  <r_epik_Ionization_Penalty_Neutral>  (90) 
0.0237834

>  <r_epik_State_Penalty>  (90) 
0.0604476

>  <r_epik_Charging_Adjusted_Penalty>  (90) 
0.0836176

>  <i_epik_Tot_Q>  (90) 
1

>  <i_epik_Tot_abs_Q>  (90) 
1

>  <s_lp_Force_Field>  (90) 
OPLS3e

>  <r_lp_Energy>  (90) 
114.492

>  <b_lp_Chiralities_Consistent>  (90) 
1

>  <s_lp_Variant>  (90) 
36:0-1

>  <s_i_glide_gridfile>  (90) 
pfpi4k_grid

>  <i_i_glide_lignum>  (90) 
5

>  <i_i_glide_rotatable_bonds>  (90) 
1

>  <r_i_docking_score>  (90) 
-2.54739

>  <r_i_glide_ligand_efficiency>  (90) 
-0.121304

>  <r_i_glide_ligand_efficiency_sa>  (90) 
-0.334669

>  <r_i_glide_ligand_efficiency_ln>  (90) 
-0.629837

>  <r_i_glide_gscore>  (90) 
-2.54739

>  <r_i_glide_lipo>  (90) 
-0.020982

>  <r_i_glide_hbond>  (90) 
0

>  <r_i_glide_metal>  (90) 
-0

>  <r_i_glide_rewards>  (90) 
-1.47019

>  <r_i_glide_evdw>  (90) 
-17.6361

>  <r_i_glide_ecoul>  (90) 
-1.16279

>  <r_i_glide_erotb>  (90) 
0

>  <r_i_glide_esite>  (90) 
0

>  <r_i_glide_emodel>  (90) 
-22.1857

>  <r_i_glide_energy>  (90) 
-18.7989

>  <r_i_glide_einternal>  (90) 
0.0452059

>  <r_i_glide_intrahb_reward>  (90) 
-0

>  <i_i_glide_confnum>  (90) 
2

>  <i_i_glide_posenum>  (90) 
3

>  <r_i_glide_eff_state_penalty>  (90) 
0

>  <ligand_id>  (90) 
36

>  <original_smiles>  (90) 
CC1OC2C3CCCN4C5c6c(O)cccc6C1C5C2C34

>  <smiles>  (90) 
[H]Oc1c([H])c([H])c([H])c2c1C1([H])C3([H])C2([H])C([H])(C([H])([H])[H])OC2([H])C4([H])C([H])([H])C([H])([H])C([H])([H])[N+]1([H])C4([H])C23[H]

$$$$
36:1:0
     RDKit          3D

 42 47  0  0  1  0  0  0  0  0999 V2000
   -0.5652   -1.4035    6.1165 C   0  0  0  0  0  0  0  0  0  0  0  0
    0.1050   -0.3010    6.9541 C   0  0  2  0  0  0  0  0  0  0  0  0
   -0.9975    0.5435    7.4618 O   0  0  0  0  0  0  0  0  0  0  0  0
   -0.7533    1.8248    8.1244 C   0  0  2  0  0  0  0  0  0  0  0  0
   -1.4326    3.0738    7.4859 C   0  0  2  0  0  0  0  0  0  0  0  0
   -2.4429    2.9587    6.3367 C   0  0  0  0  0  0  0  0  0  0  0  0
   -1.8616    3.2226    4.9227 C   0  0  0  0  0  0  0  0  0  0  0  0
   -0.6942    4.2351    4.8422 C   0  0  0  0  0  0  0  0  0  0  0  0
    0.4347    3.9705    5.7449 N   0  0  0  0  0  0  0  0  0  0  0  0
    1.4358    2.9006    5.4390 C   0  0  2  0  0  0  0  0  0  0  0  0
    1.5104    1.9419    4.2430 C   0  0  0  0  0  0  0  0  0  0  0  0
    1.7087    2.2855    2.8924 C   0  0  0  0  0  0  0  0  0  0  0  0
    1.8206    3.5863    2.4843 O   0  0  0  0  0  0  0  0  0  0  0  0
    1.8383    1.2136    1.9742 C   0  0  0  0  0  0  0  0  0  0  0  0
    1.7802   -0.1255    2.3923 C   0  0  0  0  0  0  0  0  0  0  0  0
    1.5913   -0.4656    3.7445 C   0  0  0  0  0  0  0  0  0  0  0  0
    1.4362    0.5846    4.6711 C   0  0  0  0  0  0  0  0  0  0  0  0
    1.2740    0.4571    6.1958 C   0  0  1  0  0  0  0  0  0  0  0  0
    0.9213    1.8673    6.3658 C   0  0  1  0  0  0  0  0  0  0  0  0
    0.5477    2.4015    7.6447 C   0  0  1  0  0  0  0  0  0  0  0  0
   -0.0499    3.6934    7.1545 C   0  0  2  0  0  0  0  0  0  0  0  0
    0.1635   -2.0871    5.6790 H   0  0  0  0  0  0  0  0  0  0  0  0
   -1.1816   -0.9900    5.3130 H   0  0  0  0  0  0  0  0  0  0  0  0
   -1.2112   -2.0180    6.7389 H   0  0  0  0  0  0  0  0  0  0  0  0
    0.5604   -0.7741    7.8296 H   0  0  0  0  0  0  0  0  0  0  0  0
   -0.7794    1.8422    9.2136 H   0  0  0  0  0  0  0  0  0  0  0  0
   -1.8382    3.6471    8.3155 H   0  0  0  0  0  0  0  0  0  0  0  0
   -2.9166    1.9803    6.3659 H   0  0  0  0  0  0  0  0  0  0  0  0
   -3.2456    3.6743    6.5144 H   0  0  0  0  0  0  0  0  0  0  0  0
   -1.5564    2.2839    4.4678 H   0  0  0  0  0  0  0  0  0  0  0  0
   -2.6706    3.5894    4.2889 H   0  0  0  0  0  0  0  0  0  0  0  0
   -0.3336    4.3461    3.8194 H   0  0  0  0  0  0  0  0  0  0  0  0
   -1.0738    5.2102    5.1326 H   0  0  0  0  0  0  0  0  0  0  0  0
    2.4355    3.1933    5.7633 H   0  0  0  0  0  0  0  0  0  0  0  0
    1.2136    3.8234    1.7551 H   0  0  0  0  0  0  0  0  0  0  0  0
    1.9944    1.4225    0.9297 H   0  0  0  0  0  0  0  0  0  0  0  0
    1.8915   -0.9027    1.6413 H   0  0  0  0  0  0  0  0  0  0  0  0
    1.5865   -1.4970    4.0672 H   0  0  0  0  0  0  0  0  0  0  0  0
    2.2439    0.2833    6.6539 H   0  0  0  0  0  0  0  0  0  0  0  0
   -0.0505    1.7486    5.8745 H   0  0  0  0  0  0  0  0  0  0  0  0
    1.3391    2.5229    8.3766 H   0  0  0  0  0  0  0  0  0  0  0  0
    0.1965    4.5184    7.8209 H   0  0  0  0  0  0  0  0  0  0  0  0
  1  2  1  0
  1 22  1  0
  1 23  1  0
  1 24  1  0
  2 18  1  0
  2  3  1  0
  2 25  1  1
  3  4  1  0
  4 20  1  0
  4  5  1  0
  4 26  1  1
  5 21  1  0
  5  6  1  0
  5 27  1  1
  6  7  1  0
  6 28  1  0
  6 29  1  0
  7  8  1  0
  7 30  1  0
  7 31  1  0
  8  9  1  0
  8 32  1  0
  8 33  1  0
  9 21  1  0
  9 10  1  0
 10 19  1  0
 10 11  1  0
 10 34  1  1
 11 17  2  0
 11 12  1  0
 12 13  1  0
 12 14  2  0
 13 35  1  0
 14 15  1  0
 14 36  1  0
 15 16  2  0
 15 37  1  0
 16 17  1  0
 16 38  1  0
 17 18  1  0
 18 19  1  0
 18 39  1  1
 19 20  1  0
 19 40  1  6
 20 21  1  0
 20 41  1  1
 21 42  1  1
M  END
>  <i_m_ct_stereo_status>  (91) 
1

>  <s_m_source_file>  (91) 
/var/tmp/pbs.5076255.sched01/tmpav68hifr/35m6z7vsub.sdf

>  <i_m_source_file_index>  (91) 
6

>  <i_lp_mmshare_version>  (91) 
48012

>  <i_f3d_flags>  (91) 
0

>  <s_epik_input>  (91) 
W09IXWMxW2NIXVtjSF1bY0hdYyhbQ0BIXShbQ0BASF0oTzIpW0NIM10pW0NASF0zW0NASF00NSljMVtDQEhdM04oW0NIMl1bQ0gyXVtDSDJdNilbQ0BIXTVbQ0BASF02W0NAQEhdMjQ=

>  <s_epik_cmdline>  (91) 
J2VwaWtfcHl0aG9uJywgJy1waHQnLCAnMi4wJywgJy1waCcsICc3LjAnLCAnLXRuJywgJzgnLCAnLW1hJywgJzIwMCcsICctaW1hZScsICc8aW5maWxlLm1hZT4nLCAnLW9tYWUnLCAnPG91dGZpbGUubWFlPic=

>  <r_epik_Ionization_Penalty>  (91) 
1.93233

>  <r_epik_Ionization_Penalty_Charging>  (91) 
0

>  <r_epik_Ionization_Penalty_Neutral>  (91) 
1.93233

>  <r_epik_State_Penalty>  (91) 
1.44699

>  <r_epik_Charging_Adjusted_Penalty>  (91) 
1.44699

>  <i_epik_Tot_Q>  (91) 
0

>  <i_epik_Tot_abs_Q>  (91) 
0

>  <s_lp_Force_Field>  (91) 
OPLS3e

>  <r_lp_Energy>  (91) 
121.36

>  <b_lp_Chiralities_Consistent>  (91) 
1

>  <s_lp_Variant>  (91) 
36:0-2

>  <s_i_glide_gridfile>  (91) 
pfpi4k_grid

>  <i_i_glide_lignum>  (91) 
6

>  <i_i_glide_rotatable_bonds>  (91) 
1

>  <r_i_docking_score>  (91) 
-3.65665

>  <r_i_glide_ligand_efficiency>  (91) 
-0.174126

>  <r_i_glide_ligand_efficiency_sa>  (91) 
-0.4804

>  <r_i_glide_ligand_efficiency_ln>  (91) 
-0.904098

>  <r_i_glide_gscore>  (91) 
-3.65665

>  <r_i_glide_lipo>  (91) 
-0.145696

>  <r_i_glide_hbond>  (91) 
-0.272325

>  <r_i_glide_metal>  (91) 
-0

>  <r_i_glide_rewards>  (91) 
-1.47706

>  <r_i_glide_evdw>  (91) 
-15.2648

>  <r_i_glide_ecoul>  (91) 
-6.6555

>  <r_i_glide_erotb>  (91) 
0

>  <r_i_glide_esite>  (91) 
0

>  <r_i_glide_emodel>  (91) 
-25.1043

>  <r_i_glide_energy>  (91) 
-21.9203

>  <r_i_glide_einternal>  (91) 
2.14412

>  <r_i_glide_intrahb_reward>  (91) 
-0

>  <i_i_glide_confnum>  (91) 
2

>  <i_i_glide_posenum>  (91) 
24

>  <r_i_glide_eff_state_penalty>  (91) 
0

>  <ligand_id>  (91) 
36

>  <original_smiles>  (91) 
CC1OC2C3CCCN4C5c6c(O)cccc6C1C5C2C34

>  <smiles>  (91) 
[H]Oc1c([H])c([H])c([H])c2c1C1([H])N3C([H])([H])C([H])([H])C([H])([H])C4([H])C5([H])OC([H])(C([H])([H])[H])C2([H])C1([H])C5([H])C34[H]

$$$$
36:1:1
     RDKit          3D

 42 47  0  0  1  0  0  0  0  0999 V2000
    2.3695   -5.8567    1.2855 C   0  0  0  0  0  0  0  0  0  0  0  0
    3.5558   -5.5927    2.2192 C   0  0  2  0  0  0  0  0  0  0  0  0
    2.9591   -5.2139    3.5154 O   0  0  0  0  0  0  0  0  0  0  0  0
    3.7632   -4.6748    4.6094 C   0  0  2  0  0  0  0  0  0  0  0  0
    3.3536   -3.2661    5.1513 C   0  0  2  0  0  0  0  0  0  0  0  0
    2.0761   -2.5501    4.6941 C   0  0  0  0  0  0  0  0  0  0  0  0
    2.2928   -1.4703    3.6050 C   0  0  0  0  0  0  0  0  0  0  0  0
    3.6429   -0.7149    3.6495 C   0  0  0  0  0  0  0  0  0  0  0  0
    4.8400   -1.5671    3.6594 N   0  0  0  0  0  0  0  0  0  0  0  0
    5.3182   -2.2478    2.4142 C   0  0  2  0  0  0  0  0  0  0  0  0
    4.7474   -2.2044    0.9987 C   0  0  0  0  0  0  0  0  0  0  0  0
    4.6711   -1.1003    0.1435 C   0  0  0  0  0  0  0  0  0  0  0  0
    5.0743    0.1177    0.5874 O   0  0  0  0  0  0  0  0  0  0  0  0
    4.2149   -1.2955   -1.1734 C   0  0  0  0  0  0  0  0  0  0  0  0
    3.8528   -2.5903   -1.6272 C   0  0  0  0  0  0  0  0  0  0  0  0
    3.9521   -3.7079   -0.7643 C   0  0  0  0  0  0  0  0  0  0  0  0
    4.3871   -3.5145    0.5527 C   0  0  0  0  0  0  0  0  0  0  0  0
    4.6313   -4.5895    1.6276 C   0  0  1  0  0  0  0  0  0  0  0  0
    4.7998   -3.6065    2.6961 C   0  0  1  0  0  0  0  0  0  0  0  0
    4.9870   -4.0038    4.0587 C   0  0  1  0  0  0  0  0  0  0  0  0
    4.7104   -2.6645    4.6988 C   0  0  2  0  0  0  0  0  0  0  0  0
    2.6850   -6.1392    0.2783 H   0  0  0  0  0  0  0  0  0  0  0  0
    1.7282   -4.9778    1.2070 H   0  0  0  0  0  0  0  0  0  0  0  0
    1.7627   -6.6762    1.6705 H   0  0  0  0  0  0  0  0  0  0  0  0
    4.0707   -6.5423    2.3727 H   0  0  0  0  0  0  0  0  0  0  0  0
    4.0548   -5.3640    5.4034 H   0  0  0  0  0  0  0  0  0  0  0  0
    3.4025   -3.3453    6.2342 H   0  0  0  0  0  0  0  0  0  0  0  0
    1.3497   -3.2783    4.3423 H   0  0  0  0  0  0  0  0  0  0  0  0
    1.6241   -2.0755    5.5616 H   0  0  0  0  0  0  0  0  0  0  0  0
    2.1545   -1.9047    2.6167 H   0  0  0  0  0  0  0  0  0  0  0  0
    1.4940   -0.7331    3.7009 H   0  0  0  0  0  0  0  0  0  0  0  0
    3.7171    0.0082    2.8361 H   0  0  0  0  0  0  0  0  0  0  0  0
    3.6670   -0.1366    4.5700 H   0  0  0  0  0  0  0  0  0  0  0  0
    6.4056   -2.2928    2.3843 H   0  0  0  0  0  0  0  0  0  0  0  0
    5.0459    0.8002   -0.0937 H   0  0  0  0  0  0  0  0  0  0  0  0
    4.1233   -0.4543   -1.8555 H   0  0  0  0  0  0  0  0  0  0  0  0
    3.4912   -2.7263   -2.6417 H   0  0  0  0  0  0  0  0  0  0  0  0
    3.7094   -4.6995   -1.1131 H   0  0  0  0  0  0  0  0  0  0  0  0
    5.5888   -5.0697    1.4489 H   0  0  0  0  0  0  0  0  0  0  0  0
    3.7414   -3.3215    2.6889 H   0  0  0  0  0  0  0  0  0  0  0  0
    5.9475   -4.4353    4.3201 H   0  0  0  0  0  0  0  0  0  0  0  0
    5.3796   -2.4798    5.5399 H   0  0  0  0  0  0  0  0  0  0  0  0
  1  2  1  0
  1 22  1  0
  1 23  1  0
  1 24  1  0
  2 18  1  0
  2  3  1  0
  2 25  1  1
  3  4  1  0
  4 20  1  0
  4  5  1  0
  4 26  1  1
  5 21  1  0
  5  6  1  0
  5 27  1  1
  6  7  1  0
  6 28  1  0
  6 29  1  0
  7  8  1  0
  7 30  1  0
  7 31  1  0
  8  9  1  0
  8 32  1  0
  8 33  1  0
  9 21  1  0
  9 10  1  0
 10 19  1  0
 10 11  1  0
 10 34  1  6
 11 17  2  0
 11 12  1  0
 12 13  1  0
 12 14  2  0
 13 35  1  0
 14 15  1  0
 14 36  1  0
 15 16  2  0
 15 37  1  0
 16 17  1  0
 16 38  1  0
 17 18  1  0
 18 19  1  0
 18 39  1  6
 19 20  1  0
 19 40  1  1
 20 21  1  0
 20 41  1  6
 21 42  1  1
M  END
>  <i_m_ct_stereo_status>  (92) 
1

>  <s_m_source_file>  (92) 
/var/tmp/pbs.5076255.sched01/tmpav68hifr/35m6z7vsub.sdf

>  <i_m_source_file_index>  (92) 
6

>  <i_lp_mmshare_version>  (92) 
48012

>  <i_f3d_flags>  (92) 
0

>  <s_epik_input>  (92) 
W09IXWMxW2NIXVtjSF1bY0hdYyhbQ0BIXShbQ0BASF0oTzIpW0NIM10pW0NASF0zW0NASF00NSljMVtDQEhdM04oW0NIMl1bQ0gyXVtDSDJdNilbQ0BIXTVbQ0BASF02W0NAQEhdMjQ=

>  <s_epik_cmdline>  (92) 
J2VwaWtfcHl0aG9uJywgJy1waHQnLCAnMi4wJywgJy1waCcsICc3LjAnLCAnLXRuJywgJzgnLCAnLW1hJywgJzIwMCcsICctaW1hZScsICc8aW5maWxlLm1hZT4nLCAnLW9tYWUnLCAnPG91dGZpbGUubWFlPic=

>  <r_epik_Ionization_Penalty>  (92) 
1.93233

>  <r_epik_Ionization_Penalty_Charging>  (92) 
0

>  <r_epik_Ionization_Penalty_Neutral>  (92) 
1.93233

>  <r_epik_State_Penalty>  (92) 
1.44699

>  <r_epik_Charging_Adjusted_Penalty>  (92) 
1.44699

>  <i_epik_Tot_Q>  (92) 
0

>  <i_epik_Tot_abs_Q>  (92) 
0

>  <s_lp_Force_Field>  (92) 
OPLS3e

>  <r_lp_Energy>  (92) 
121.36

>  <b_lp_Chiralities_Consistent>  (92) 
1

>  <s_lp_Variant>  (92) 
36:0-2

>  <s_i_glide_gridfile>  (92) 
pfpi4k_grid

>  <i_i_glide_lignum>  (92) 
6

>  <i_i_glide_rotatable_bonds>  (92) 
1

>  <r_i_docking_score>  (92) 
-3.57044

>  <r_i_glide_ligand_efficiency>  (92) 
-0.170021

>  <r_i_glide_ligand_efficiency_sa>  (92) 
-0.469075

>  <r_i_glide_ligand_efficiency_ln>  (92) 
-0.882784

>  <r_i_glide_gscore>  (92) 
-3.57044

>  <r_i_glide_lipo>  (92) 
-0.207577

>  <r_i_glide_hbond>  (92) 
-0.388112

>  <r_i_glide_metal>  (92) 
-0

>  <r_i_glide_rewards>  (92) 
-1.47706

>  <r_i_glide_evdw>  (92) 
-14.9192

>  <r_i_glide_ecoul>  (92) 
-5.01155

>  <r_i_glide_erotb>  (92) 
0

>  <r_i_glide_esite>  (92) 
0

>  <r_i_glide_emodel>  (92) 
-24.988

>  <r_i_glide_energy>  (92) 
-19.9308

>  <r_i_glide_einternal>  (92) 
0.0447456

>  <r_i_glide_intrahb_reward>  (92) 
-0

>  <i_i_glide_confnum>  (92) 
1

>  <i_i_glide_posenum>  (92) 
27

>  <r_i_glide_eff_state_penalty>  (92) 
0

>  <ligand_id>  (92) 
36

>  <original_smiles>  (92) 
CC1OC2C3CCCN4C5c6c(O)cccc6C1C5C2C34

>  <smiles>  (92) 
[H]Oc1c([H])c([H])c([H])c2c1C1([H])N3C([H])([H])C([H])([H])C([H])([H])C4([H])C5([H])OC([H])(C([H])([H])[H])C2([H])C1([H])C5([H])C34[H]

$$$$
36:1:2
     RDKit          3D

 42 47  0  0  1  0  0  0  0  0999 V2000
    1.9533   -5.7382    0.4102 C   0  0  0  0  0  0  0  0  0  0  0  0
    3.2681   -5.8794    1.1810 C   0  0  2  0  0  0  0  0  0  0  0  0
    2.8811   -5.7152    2.5958 O   0  0  0  0  0  0  0  0  0  0  0  0
    3.8768   -5.5549    3.6527 C   0  0  2  0  0  0  0  0  0  0  0  0
    3.7949   -4.2541    4.5175 C   0  0  2  0  0  0  0  0  0  0  0  0
    2.6359   -3.2538    4.3934 C   0  0  0  0  0  0  0  0  0  0  0  0
    2.9394   -2.0058    3.5196 C   0  0  0  0  0  0  0  0  0  0  0  0
    4.4071   -1.5157    3.5235 C   0  0  0  0  0  0  0  0  0  0  0  0
    5.4121   -2.5350    3.2009 N   0  0  0  0  0  0  0  0  0  0  0  0
    5.6359   -2.9901    1.7859 C   0  0  2  0  0  0  0  0  0  0  0  0
    4.9533   -2.5428    0.5004 C   0  0  0  0  0  0  0  0  0  0  0  0
    5.0043   -1.2692   -0.1016 C   0  0  0  0  0  0  0  0  0  0  0  0
    5.6724   -0.2484    0.4827 O   0  0  0  0  0  0  0  0  0  0  0  0
    4.3778   -1.0879   -1.3541 C   0  0  0  0  0  0  0  0  0  0  0  0
    3.7347   -2.1659   -1.9934 C   0  0  0  0  0  0  0  0  0  0  0  0
    3.6963   -3.4435   -1.3948 C   0  0  0  0  0  0  0  0  0  0  0  0
    4.3038   -3.6330   -0.1413 C   0  0  0  0  0  0  0  0  0  0  0  0
    4.4453   -4.9533    0.6451 C   0  0  1  0  0  0  0  0  0  0  0  0
    4.9041   -4.2742    1.8663 C   0  0  1  0  0  0  0  0  0  0  0  0
    5.1506   -4.9796    3.0830 C   0  0  1  0  0  0  0  0  0  0  0  0
    5.1860   -3.7947    4.0060 C   0  0  2  0  0  0  0  0  0  0  0  0
    2.0949   -5.8189   -0.6630 H   0  0  0  0  0  0  0  0  0  0  0  0
    1.5220   -4.7673    0.6097 H   0  0  0  0  0  0  0  0  0  0  0  0
    1.2453   -6.5138    0.7076 H   0  0  0  0  0  0  0  0  0  0  0  0
    3.6046   -6.9099    1.0837 H   0  0  0  0  0  0  0  0  0  0  0  0
    4.1017   -6.4417    4.2383 H   0  0  0  0  0  0  0  0  0  0  0  0
    3.9296   -4.5738    5.5543 H   0  0  0  0  0  0  0  0  0  0  0  0
    1.7465   -3.7534    4.0093 H   0  0  0  0  0  0  0  0  0  0  0  0
    2.3735   -2.9137    5.3964 H   0  0  0  0  0  0  0  0  0  0  0  0
    2.6260   -2.1876    2.4944 H   0  0  0  0  0  0  0  0  0  0  0  0
    2.3062   -1.1890    3.8689 H   0  0  0  0  0  0  0  0  0  0  0  0
    4.5330   -0.6521    2.8731 H   0  0  0  0  0  0  0  0  0  0  0  0
    4.6358   -1.1620    4.5305 H   0  0  0  0  0  0  0  0  0  0  0  0
    6.6966   -3.1974    1.6203 H   0  0  0  0  0  0  0  0  0  0  0  0
    5.5064    0.5888    0.0527 H   0  0  0  0  0  0  0  0  0  0  0  0
    4.3896   -0.1183   -1.8307 H   0  0  0  0  0  0  0  0  0  0  0  0
    3.2586   -2.0134   -2.9507 H   0  0  0  0  0  0  0  0  0  0  0  0
    3.2185   -4.2520   -1.9085 H   0  0  0  0  0  0  0  0  0  0  0  0
    5.2706   -5.5403    0.2413 H   0  0  0  0  0  0  0  0  0  0  0  0
    3.9134   -3.8283    2.0543 H   0  0  0  0  0  0  0  0  0  0  0  0
    6.0376   -5.6173    3.1255 H   0  0  0  0  0  0  0  0  0  0  0  0
    5.9504   -3.9061    4.7757 H   0  0  0  0  0  0  0  0  0  0  0  0
  1  2  1  0
  1 22  1  0
  1 23  1  0
  1 24  1  0
  2 18  1  0
  2  3  1  0
  2 25  1  1
  3  4  1  0
  4 20  1  0
  4  5  1  0
  4 26  1  1
  5 21  1  0
  5  6  1  0
  5 27  1  1
  6  7  1  0
  6 28  1  0
  6 29  1  0
  7  8  1  0
  7 30  1  0
  7 31  1  0
  8  9  1  0
  8 32  1  0
  8 33  1  0
  9 21  1  0
  9 10  1  0
 10 19  1  0
 10 11  1  0
 10 34  1  6
 11 17  2  0
 11 12  1  0
 12 13  1  0
 12 14  2  0
 13 35  1  0
 14 15  1  0
 14 36  1  0
 15 16  2  0
 15 37  1  0
 16 17  1  0
 16 38  1  0
 17 18  1  0
 18 19  1  0
 18 39  1  6
 19 20  1  0
 19 40  1  1
 20 21  1  0
 20 41  1  6
 21 42  1  1
M  END
>  <i_m_ct_stereo_status>  (93) 
1

>  <s_m_source_file>  (93) 
/var/tmp/pbs.5076255.sched01/tmpav68hifr/35m6z7vsub.sdf

>  <i_m_source_file_index>  (93) 
6

>  <i_lp_mmshare_version>  (93) 
48012

>  <i_f3d_flags>  (93) 
0

>  <s_epik_input>  (93) 
W09IXWMxW2NIXVtjSF1bY0hdYyhbQ0BIXShbQ0BASF0oTzIpW0NIM10pW0NASF0zW0NASF00NSljMVtDQEhdM04oW0NIMl1bQ0gyXVtDSDJdNilbQ0BIXTVbQ0BASF02W0NAQEhdMjQ=

>  <s_epik_cmdline>  (93) 
J2VwaWtfcHl0aG9uJywgJy1waHQnLCAnMi4wJywgJy1waCcsICc3LjAnLCAnLXRuJywgJzgnLCAnLW1hJywgJzIwMCcsICctaW1hZScsICc8aW5maWxlLm1hZT4nLCAnLW9tYWUnLCAnPG91dGZpbGUubWFlPic=

>  <r_epik_Ionization_Penalty>  (93) 
1.93233

>  <r_epik_Ionization_Penalty_Charging>  (93) 
0

>  <r_epik_Ionization_Penalty_Neutral>  (93) 
1.93233

>  <r_epik_State_Penalty>  (93) 
1.44699

>  <r_epik_Charging_Adjusted_Penalty>  (93) 
1.44699

>  <i_epik_Tot_Q>  (93) 
0

>  <i_epik_Tot_abs_Q>  (93) 
0

>  <s_lp_Force_Field>  (93) 
OPLS3e

>  <r_lp_Energy>  (93) 
121.36

>  <b_lp_Chiralities_Consistent>  (93) 
1

>  <s_lp_Variant>  (93) 
36:0-2

>  <s_i_glide_gridfile>  (93) 
pfpi4k_grid

>  <i_i_glide_lignum>  (93) 
6

>  <i_i_glide_rotatable_bonds>  (93) 
1

>  <r_i_docking_score>  (93) 
-3.38796

>  <r_i_glide_ligand_efficiency>  (93) 
-0.161332

>  <r_i_glide_ligand_efficiency_sa>  (93) 
-0.445102

>  <r_i_glide_ligand_efficiency_ln>  (93) 
-0.837667

>  <r_i_glide_gscore>  (93) 
-3.38796

>  <r_i_glide_lipo>  (93) 
-0.248159

>  <r_i_glide_hbond>  (93) 
-0.32

>  <r_i_glide_metal>  (93) 
-0

>  <r_i_glide_rewards>  (93) 
-1.47706

>  <r_i_glide_evdw>  (93) 
-15.0814

>  <r_i_glide_ecoul>  (93) 
-3.92451

>  <r_i_glide_erotb>  (93) 
0

>  <r_i_glide_esite>  (93) 
0

>  <r_i_glide_emodel>  (93) 
-23.7839

>  <r_i_glide_energy>  (93) 
-19.0059

>  <r_i_glide_einternal>  (93) 
0.0379209

>  <r_i_glide_intrahb_reward>  (93) 
-0

>  <i_i_glide_confnum>  (93) 
1

>  <i_i_glide_posenum>  (93) 
21

>  <r_i_glide_eff_state_penalty>  (93) 
0

>  <ligand_id>  (93) 
36

>  <original_smiles>  (93) 
CC1OC2C3CCCN4C5c6c(O)cccc6C1C5C2C34

>  <smiles>  (93) 
[H]Oc1c([H])c([H])c([H])c2c1C1([H])N3C([H])([H])C([H])([H])C([H])([H])C4([H])C5([H])OC([H])(C([H])([H])[H])C2([H])C1([H])C5([H])C34[H]

$$$$
38:0:0
     RDKit          3D

 73 78  0  0  1  0  0  0  0  0999 V2000
    6.2711   -9.8556    1.1338 C   0  0  0  0  0  0  0  0  0  0  0  0
    5.8877   -8.5686    1.9081 C   0  0  0  0  0  0  0  0  0  0  0  0
    7.1904   -8.1117    2.6134 C   0  0  0  0  0  0  0  0  0  0  0  0
    4.5912   -8.6767    2.8300 C   0  0  2  0  0  0  0  0  0  0  0  0
    4.6499   -9.9285    3.7107 C   0  0  0  0  0  0  0  0  0  0  0  0
    3.4689   -9.7342    4.6759 C   0  0  2  0  0  0  0  0  0  0  0  0
    2.1570  -10.1349    3.9047 C   0  0  0  0  0  0  0  0  0  0  0  0
    2.2506  -11.5700    3.3078 C   0  0  0  0  0  0  0  0  0  0  0  0
    0.9094  -10.2570    4.8228 C   0  0  0  0  0  0  0  0  0  0  0  0
    1.9344   -9.1250    2.7512 C   0  0  0  0  0  0  0  0  0  0  0  0
    3.2171   -8.5936    2.0272 C   0  0  2  0  0  0  0  0  0  0  0  0
    3.2875   -9.4257    0.8811 O   0  0  0  0  0  0  0  0  0  0  0  0
    2.9426   -7.1475    1.5016 C   0  0  0  0  0  0  0  0  0  0  0  0
    3.0623   -5.9697    2.5290 C   0  0  2  0  0  0  0  0  0  0  0  0
    3.1574   -4.6502    1.7250 C   0  0  0  0  0  0  0  0  0  0  0  0
    4.3261   -6.1748    3.3741 C   0  0  0  0  0  0  0  0  0  0  0  0
    4.5255   -7.6038    3.9461 C   0  0  1  0  0  0  0  0  0  0  0  0
    3.6855   -8.2277    5.1381 C   0  0  2  0  0  0  0  0  0  0  0  0
    4.5956   -8.2753    6.4001 C   0  0  0  0  0  0  0  0  0  0  0  0
    2.3899   -7.4845    5.6175 C   0  0  0  0  0  0  0  0  0  0  0  0
    2.4551   -5.9561    5.7804 C   0  0  2  0  0  0  0  0  0  0  0  0
    1.7966   -5.4626    7.0851 C   0  0  0  0  0  0  0  0  0  0  0  0
    2.0346   -3.9523    7.2617 C   0  0  0  0  0  0  0  0  0  0  0  0
    1.6451   -3.1032    6.0310 C   0  0  2  0  0  0  0  0  0  0  0  0
    0.1709   -2.7684    5.8808 C   0  0  0  0  0  0  0  0  0  0  0  0
   -0.6094   -2.6057    6.8172 O   0  0  0  0  0  0  0  0  0  0  0  0
   -0.1037   -2.6643    4.5846 O   0  0  0  0  0  0  0  0  0  0  0  0
    1.0157   -2.9376    3.7518 C   0  0  0  0  0  0  0  0  0  0  0  0
    1.9893   -3.7016    4.6591 C   0  0  2  0  0  0  0  0  0  0  0  0
    1.7504   -5.2354    4.5997 C   0  0  1  0  0  0  0  0  0  0  0  0
    1.8635   -5.8928    3.3144 O   0  0  0  0  0  0  0  0  0  0  0  0
    6.5835  -10.6545    1.8062 H   0  0  0  0  0  0  0  0  0  0  0  0
    7.1140   -9.6537    0.4749 H   0  0  0  0  0  0  0  0  0  0  0  0
    5.4896  -10.2551    0.4953 H   0  0  0  0  0  0  0  0  0  0  0  0
    5.6866   -7.8083    1.1533 H   0  0  0  0  0  0  0  0  0  0  0  0
    7.4507   -8.7667    3.4451 H   0  0  0  0  0  0  0  0  0  0  0  0
    7.1393   -7.0907    2.9857 H   0  0  0  0  0  0  0  0  0  0  0  0
    8.0371   -8.1272    1.9251 H   0  0  0  0  0  0  0  0  0  0  0  0
    4.6526  -10.8503    3.1396 H   0  0  0  0  0  0  0  0  0  0  0  0
    5.5868   -9.9576    4.2653 H   0  0  0  0  0  0  0  0  0  0  0  0
    3.5721  -10.4188    5.5189 H   0  0  0  0  0  0  0  0  0  0  0  0
    1.2761  -11.9446    2.9915 H   0  0  0  0  0  0  0  0  0  0  0  0
    2.6326  -12.2778    4.0439 H   0  0  0  0  0  0  0  0  0  0  0  0
    2.8792  -11.6471    2.4261 H   0  0  0  0  0  0  0  0  0  0  0  0
    0.0194  -10.4762    4.2287 H   0  0  0  0  0  0  0  0  0  0  0  0
    0.6579   -9.3876    5.4153 H   0  0  0  0  0  0  0  0  0  0  0  0
    1.0259  -11.0768    5.5340 H   0  0  0  0  0  0  0  0  0  0  0  0
    1.2505   -9.5707    2.0287 H   0  0  0  0  0  0  0  0  0  0  0  0
    1.3321   -8.2894    3.0833 H   0  0  0  0  0  0  0  0  0  0  0  0
    3.5231  -10.3122    1.1319 H   0  0  0  0  0  0  0  0  0  0  0  0
    3.6402   -6.9584    0.6850 H   0  0  0  0  0  0  0  0  0  0  0  0
    1.9563   -7.1124    1.0352 H   0  0  0  0  0  0  0  0  0  0  0  0
    3.9416   -4.7008    0.9684 H   0  0  0  0  0  0  0  0  0  0  0  0
    3.3992   -3.7881    2.3400 H   0  0  0  0  0  0  0  0  0  0  0  0
    2.2244   -4.4336    1.2044 H   0  0  0  0  0  0  0  0  0  0  0  0
    5.1621   -5.9940    2.6997 H   0  0  0  0  0  0  0  0  0  0  0  0
    4.4701   -5.3935    4.1138 H   0  0  0  0  0  0  0  0  0  0  0  0
    5.5234   -7.5274    4.3691 H   0  0  0  0  0  0  0  0  0  0  0  0
    4.8761   -7.2761    6.7351 H   0  0  0  0  0  0  0  0  0  0  0  0
    5.5222   -8.8239    6.2256 H   0  0  0  0  0  0  0  0  0  0  0  0
    4.0948   -8.7722    7.2343 H   0  0  0  0  0  0  0  0  0  0  0  0
    1.5513   -7.6444    4.9672 H   0  0  0  0  0  0  0  0  0  0  0  0
    2.0702   -7.9366    6.5574 H   0  0  0  0  0  0  0  0  0  0  0  0
    3.4934   -5.6557    5.8774 H   0  0  0  0  0  0  0  0  0  0  0  0
    0.7252   -5.6797    7.0900 H   0  0  0  0  0  0  0  0  0  0  0  0
    2.2190   -5.9901    7.9437 H   0  0  0  0  0  0  0  0  0  0  0  0
    1.5097   -3.6019    8.1512 H   0  0  0  0  0  0  0  0  0  0  0  0
    3.0935   -3.7908    7.4613 H   0  0  0  0  0  0  0  0  0  0  0  0
    2.1370   -2.1371    6.1246 H   0  0  0  0  0  0  0  0  0  0  0  0
    0.7210   -3.5175    2.8811 H   0  0  0  0  0  0  0  0  0  0  0  0
    1.4512   -1.9998    3.4075 H   0  0  0  0  0  0  0  0  0  0  0  0
    3.0269   -3.4726    4.4278 H   0  0  0  0  0  0  0  0  0  0  0  0
    0.6829   -5.3682    4.7866 H   0  0  0  0  0  0  0  0  0  0  0  0
  1  2  1  0
  1 32  1  0
  1 33  1  0
  1 34  1  0
  2  3  1  0
  4  2  1  6
  2 35  1  0
  3 36  1  0
  3 37  1  0
  3 38  1  0
  4 11  1  0
  4 17  1  0
  4  5  1  0
  5  6  1  0
  5 39  1  0
  5 40  1  0
  6 18  1  0
  6  7  1  0
  6 41  1  1
  7  8  1  0
  7  9  1  0
  7 10  1  0
  8 42  1  0
  8 43  1  0
  8 44  1  0
  9 45  1  0
  9 46  1  0
  9 47  1  0
 10 11  1  0
 10 48  1  0
 10 49  1  0
 11 12  1  6
 11 13  1  0
 12 50  1  0
 13 14  1  0
 13 51  1  0
 13 52  1  0
 14 31  1  0
 14 15  1  6
 14 16  1  0
 15 53  1  0
 15 54  1  0
 15 55  1  0
 16 17  1  0
 16 56  1  0
 16 57  1  0
 17 18  1  0
 17 58  1  1
 18 19  1  1
 18 20  1  0
 19 59  1  0
 19 60  1  0
 19 61  1  0
 20 21  1  0
 20 62  1  0
 20 63  1  0
 21 30  1  0
 21 22  1  0
 21 64  1  1
 22 23  1  0
 22 65  1  0
 22 66  1  0
 23 24  1  0
 23 67  1  0
 23 68  1  0
 24 29  1  0
 24 25  1  0
 24 69  1  1
 25 26  2  0
 25 27  1  0
 27 28  1  0
 28 29  1  0
 28 70  1  0
 28 71  1  0
 29 30  1  0
 29 72  1  6
 30 31  1  0
 30 73  1  1
M  END
>  <i_m_ct_stereo_status>  (94) 
1

>  <s_m_source_file>  (94) 
/var/tmp/pbs.5076255.sched01/tmpav68hifr/35m6z7vsub.sdf

>  <i_m_source_file_index>  (94) 
8

>  <i_lp_mmshare_version>  (94) 
48012

>  <i_f3d_flags>  (94) 
0

>  <s_epik_input>  (94) 
W0NIM11bQ0hdKFtDSDNdKVtDQEBdMTJbQ0BAXTMoW09IXSlbQ0gyXUMoW0NIM10pKFtDSDNdKVtDQEBIXShbQ0gyXTEpW0NAQF00KFtDSDNdKVtDQEBIXTJbQ0gyXVtDQF0oW0NIMl0zKShbQ0gzXSlPW0NASF01W0NASF0oW0NIMl00KVtDSDJdW0NIMl1bQ0BIXTZbQ0BASF01W0NIMl1PQzY9Tw==

>  <s_epik_cmdline>  (94) 
J2VwaWtfcHl0aG9uJywgJy1waHQnLCAnMi4wJywgJy1waCcsICc3LjAnLCAnLXRuJywgJzgnLCAnLW1hJywgJzIwMCcsICctaW1hZScsICc8aW5maWxlLm1hZT4nLCAnLW9tYWUnLCAnPG91dGZpbGUubWFlPic=

>  <r_lp_tautomer_probability>  (94) 
1

>  <r_epik_Ionization_Penalty>  (94) 
1.39695e-06

>  <r_epik_Ionization_Penalty_Charging>  (94) 
0

>  <r_epik_Ionization_Penalty_Neutral>  (94) 
1.39695e-06

>  <r_epik_State_Penalty>  (94) 
-0

>  <r_epik_Charging_Adjusted_Penalty>  (94) 
0

>  <i_epik_Tot_Q>  (94) 
0

>  <i_epik_Tot_abs_Q>  (94) 
0

>  <s_epik_Chemistry_Notes>  (94) 
This compound has an ester and may undergo hydrolysis at high or low pH.

>  <s_lp_Force_Field>  (94) 
OPLS3e

>  <r_lp_Energy>  (94) 
102.521

>  <b_lp_Chiralities_Consistent>  (94) 
1

>  <s_lp_Variant>  (94) 
38:0-1

>  <s_i_glide_gridfile>  (94) 
pfpi4k_grid

>  <i_i_glide_lignum>  (94) 
8

>  <i_i_glide_rotatable_bonds>  (94) 
2

>  <r_i_docking_score>  (94) 
-2.48091

>  <r_i_glide_ligand_efficiency>  (94) 
-0.0800293

>  <r_i_glide_ligand_efficiency_sa>  (94) 
-0.251403

>  <r_i_glide_ligand_efficiency_ln>  (94) 
-0.559521

>  <r_i_glide_gscore>  (94) 
-2.48091

>  <r_i_glide_lipo>  (94) 
-0.220577

>  <r_i_glide_hbond>  (94) 
-0.123333

>  <r_i_glide_metal>  (94) 
-0

>  <r_i_glide_rewards>  (94) 
-0.473046

>  <r_i_glide_evdw>  (94) 
-19.1931

>  <r_i_glide_ecoul>  (94) 
-4.61123

>  <r_i_glide_erotb>  (94) 
0

>  <r_i_glide_esite>  (94) 
-0.0126138

>  <r_i_glide_emodel>  (94) 
-27.9873

>  <r_i_glide_energy>  (94) 
-23.8043

>  <r_i_glide_einternal>  (94) 
0.0333663

>  <r_i_glide_intrahb_reward>  (94) 
-0

>  <i_i_glide_confnum>  (94) 
2

>  <i_i_glide_posenum>  (94) 
30

>  <r_i_glide_eff_state_penalty>  (94) 
0

>  <ligand_id>  (94) 
38

>  <original_smiles>  (94) 
CC(C)C12CC3C(C)(C)CC1(O)CC1(C)CC2C3(C)CC2CCC3C(=O)OCC3C2O1

>  <smiles>  (94) 
[H]OC12C([H])([H])C3(C([H])([H])[H])OC4([H])C([H])(C([H])([H])C([H])([H])C5([H])C(=O)OC([H])([H])C45[H])C([H])([H])C4(C([H])([H])[H])C([H])(C([H])([H])C1(C([H])(C([H])([H])[H])C([H])([H])[H])C4([H])C3([H])[H])C(C([H])([H])[H])(C([H])([H])[H])C2([H])[H]

$$$$
38:0:1
     RDKit          3D

 73 78  0  0  1  0  0  0  0  0999 V2000
    5.6036  -10.2984    4.7955 C   0  0  0  0  0  0  0  0  0  0  0  0
    4.1786   -9.8501    5.2323 C   0  0  0  0  0  0  0  0  0  0  0  0
    3.4794  -11.1546    5.6844 C   0  0  0  0  0  0  0  0  0  0  0  0
    3.3231   -8.9036    4.2577 C   0  0  2  0  0  0  0  0  0  0  0  0
    1.8742   -8.8046    4.7944 C   0  0  0  0  0  0  0  0  0  0  0  0
    1.2355   -7.6877    3.9535 C   0  0  2  0  0  0  0  0  0  0  0  0
    0.8517   -8.3177    2.5657 C   0  0  0  0  0  0  0  0  0  0  0  0
   -0.0624   -9.5738    2.7298 C   0  0  0  0  0  0  0  0  0  0  0  0
   -0.0301   -7.3944    1.6819 C   0  0  0  0  0  0  0  0  0  0  0  0
    2.1688   -8.7358    1.8377 C   0  0  0  0  0  0  0  0  0  0  0  0
    3.3510   -9.2957    2.7133 C   0  0  2  0  0  0  0  0  0  0  0  0
    3.2047  -10.7034    2.6198 O   0  0  0  0  0  0  0  0  0  0  0  0
    4.7009   -8.9208    2.0304 C   0  0  0  0  0  0  0  0  0  0  0  0
    5.2519   -7.4808    2.3087 C   0  0  2  0  0  0  0  0  0  0  0  0
    6.7563   -7.5135    1.9541 C   0  0  0  0  0  0  0  0  0  0  0  0
    5.0686   -7.0578    3.7907 C   0  0  0  0  0  0  0  0  0  0  0  0
    3.6734   -7.3929    4.3807 C   0  0  1  0  0  0  0  0  0  0  0  0
    2.3560   -6.5643    4.0430 C   0  0  2  0  0  0  0  0  0  0  0  0
    2.0058   -5.6779    5.2705 C   0  0  0  0  0  0  0  0  0  0  0  0
    2.3852   -5.5591    2.8347 C   0  0  0  0  0  0  0  0  0  0  0  0
    3.6091   -4.6413    2.6734 C   0  0  2  0  0  0  0  0  0  0  0  0
    3.2543   -3.1812    2.3514 C   0  0  0  0  0  0  0  0  0  0  0  0
    4.5220   -2.3120    2.3755 C   0  0  0  0  0  0  0  0  0  0  0  0
    5.6785   -2.8588    1.5223 C   0  0  2  0  0  0  0  0  0  0  0  0
    5.5995   -2.5439    0.0138 C   0  0  0  0  0  0  0  0  0  0  0  0
    5.1599   -1.5388   -0.4716 O   0  0  0  0  0  0  0  0  0  0  0  0
    6.1960   -3.5753   -0.6328 O   0  0  0  0  0  0  0  0  0  0  0  0
    6.6660   -4.5922    0.2263 C   0  0  0  0  0  0  0  0  0  0  0  0
    5.8910   -4.3740    1.5414 C   0  0  2  0  0  0  0  0  0  0  0  0
    4.5471   -5.1458    1.5463 C   0  0  1  0  0  0  0  0  0  0  0  0
    4.6114   -6.5804    1.3871 O   0  0  0  0  0  0  0  0  0  0  0  0
    5.5282  -11.0272    3.9815 H   0  0  0  0  0  0  0  0  0  0  0  0
    6.0983  -10.8391    5.6146 H   0  0  0  0  0  0  0  0  0  0  0  0
    6.2692   -9.4955    4.4932 H   0  0  0  0  0  0  0  0  0  0  0  0
    4.3164   -9.2808    6.1522 H   0  0  0  0  0  0  0  0  0  0  0  0
    3.1996  -11.8026    4.8583 H   0  0  0  0  0  0  0  0  0  0  0  0
    2.5965  -10.9673    6.2846 H   0  0  0  0  0  0  0  0  0  0  0  0
    4.1436  -11.7453    6.3080 H   0  0  0  0  0  0  0  0  0  0  0  0
    1.3366   -9.7452    4.7961 H   0  0  0  0  0  0  0  0  0  0  0  0
    1.8762   -8.5111    5.8424 H   0  0  0  0  0  0  0  0  0  0  0  0
    0.3065   -7.3525    4.4159 H   0  0  0  0  0  0  0  0  0  0  0  0
   -0.5399   -9.8690    1.7954 H   0  0  0  0  0  0  0  0  0  0  0  0
   -0.8744   -9.3937    3.4335 H   0  0  0  0  0  0  0  0  0  0  0  0
    0.4698  -10.4688    3.0532 H   0  0  0  0  0  0  0  0  0  0  0  0
   -0.2020   -7.8549    0.7100 H   0  0  0  0  0  0  0  0  0  0  0  0
    0.3748   -6.4186    1.4702 H   0  0  0  0  0  0  0  0  0  0  0  0
   -1.0062   -7.2405    2.1366 H   0  0  0  0  0  0  0  0  0  0  0  0
    1.9148   -9.4722    1.0773 H   0  0  0  0  0  0  0  0  0  0  0  0
    2.5367   -7.9213    1.2171 H   0  0  0  0  0  0  0  0  0  0  0  0
    3.4376  -11.0193    1.7534 H   0  0  0  0  0  0  0  0  0  0  0  0
    5.4482   -9.6475    2.3205 H   0  0  0  0  0  0  0  0  0  0  0  0
    4.5809   -9.0782    0.9571 H   0  0  0  0  0  0  0  0  0  0  0  0
    7.2715   -8.3110    2.4883 H   0  0  0  0  0  0  0  0  0  0  0  0
    7.2878   -6.6023    2.2165 H   0  0  0  0  0  0  0  0  0  0  0  0
    6.9120   -7.6956    0.8892 H   0  0  0  0  0  0  0  0  0  0  0  0
    5.7934   -7.5645    4.4027 H   0  0  0  0  0  0  0  0  0  0  0  0
    5.3643   -6.0248    3.9598 H   0  0  0  0  0  0  0  0  0  0  0  0
    3.8355   -7.2379    5.4471 H   0  0  0  0  0  0  0  0  0  0  0  0
    2.7791   -4.9337    5.4621 H   0  0  0  0  0  0  0  0  0  0  0  0
    1.8901   -6.2584    6.1872 H   0  0  0  0  0  0  0  0  0  0  0  0
    1.0683   -5.1411    5.1239 H   0  0  0  0  0  0  0  0  0  0  0  0
    2.3075   -6.0479    1.8817 H   0  0  0  0  0  0  0  0  0  0  0  0
    1.4886   -4.9413    2.8829 H   0  0  0  0  0  0  0  0  0  0  0  0
    4.0999   -4.5534    3.6316 H   0  0  0  0  0  0  0  0  0  0  0  0
    2.7663   -3.1098    1.3775 H   0  0  0  0  0  0  0  0  0  0  0  0
    2.5468   -2.8007    3.0927 H   0  0  0  0  0  0  0  0  0  0  0  0
    4.2618   -1.3004    2.0755 H   0  0  0  0  0  0  0  0  0  0  0  0
    4.8799   -2.2397    3.4013 H   0  0  0  0  0  0  0  0  0  0  0  0
    6.5931   -2.3653    1.8243 H   0  0  0  0  0  0  0  0  0  0  0  0
    6.4878   -5.5772   -0.1872 H   0  0  0  0  0  0  0  0  0  0  0  0
    7.7367   -4.4731    0.3891 H   0  0  0  0  0  0  0  0  0  0  0  0
    6.4936   -4.6218    2.4185 H   0  0  0  0  0  0  0  0  0  0  0  0
    4.0509   -4.8744    0.6153 H   0  0  0  0  0  0  0  0  0  0  0  0
  1  2  1  0
  1 32  1  0
  1 33  1  0
  1 34  1  0
  2  3  1  0
  4  2  1  1
  2 35  1  0
  3 36  1  0
  3 37  1  0
  3 38  1  0
  4 11  1  0
  4 17  1  0
  4  5  1  0
  5  6  1  0
  5 39  1  0
  5 40  1  0
  6 18  1  0
  6  7  1  0
  6 41  1  1
  7  8  1  0
  7  9  1  0
  7 10  1  0
  8 42  1  0
  8 43  1  0
  8 44  1  0
  9 45  1  0
  9 46  1  0
  9 47  1  0
 10 11  1  0
 10 48  1  0
 10 49  1  0
 11 12  1  1
 11 13  1  0
 12 50  1  0
 13 14  1  0
 13 51  1  0
 13 52  1  0
 14 31  1  0
 14 15  1  6
 14 16  1  0
 15 53  1  0
 15 54  1  0
 15 55  1  0
 16 17  1  0
 16 56  1  0
 16 57  1  0
 17 18  1  0
 17 58  1  1
 18 19  1  1
 18 20  1  0
 19 59  1  0
 19 60  1  0
 19 61  1  0
 20 21  1  0
 20 62  1  0
 20 63  1  0
 21 30  1  0
 21 22  1  0
 21 64  1  1
 22 23  1  0
 22 65  1  0
 22 66  1  0
 23 24  1  0
 23 67  1  0
 23 68  1  0
 24 29  1  0
 24 25  1  0
 24 69  1  1
 25 26  2  0
 25 27  1  0
 27 28  1  0
 28 29  1  0
 28 70  1  0
 28 71  1  0
 29 30  1  0
 29 72  1  1
 30 31  1  0
 30 73  1  6
M  END
>  <i_m_ct_stereo_status>  (95) 
1

>  <s_m_source_file>  (95) 
/var/tmp/pbs.5076255.sched01/tmpav68hifr/35m6z7vsub.sdf

>  <i_m_source_file_index>  (95) 
8

>  <i_lp_mmshare_version>  (95) 
48012

>  <i_f3d_flags>  (95) 
0

>  <s_epik_input>  (95) 
W0NIM11bQ0hdKFtDSDNdKVtDQEBdMTJbQ0BAXTMoW09IXSlbQ0gyXUMoW0NIM10pKFtDSDNdKVtDQEBIXShbQ0gyXTEpW0NAQF00KFtDSDNdKVtDQEBIXTJbQ0gyXVtDQF0oW0NIMl0zKShbQ0gzXSlPW0NASF01W0NASF0oW0NIMl00KVtDSDJdW0NIMl1bQ0BIXTZbQ0BASF01W0NIMl1PQzY9Tw==

>  <s_epik_cmdline>  (95) 
J2VwaWtfcHl0aG9uJywgJy1waHQnLCAnMi4wJywgJy1waCcsICc3LjAnLCAnLXRuJywgJzgnLCAnLW1hJywgJzIwMCcsICctaW1hZScsICc8aW5maWxlLm1hZT4nLCAnLW9tYWUnLCAnPG91dGZpbGUubWFlPic=

>  <r_lp_tautomer_probability>  (95) 
1

>  <r_epik_Ionization_Penalty>  (95) 
1.39695e-06

>  <r_epik_Ionization_Penalty_Charging>  (95) 
0

>  <r_epik_Ionization_Penalty_Neutral>  (95) 
1.39695e-06

>  <r_epik_State_Penalty>  (95) 
-0

>  <r_epik_Charging_Adjusted_Penalty>  (95) 
0

>  <i_epik_Tot_Q>  (95) 
0

>  <i_epik_Tot_abs_Q>  (95) 
0

>  <s_epik_Chemistry_Notes>  (95) 
This compound has an ester and may undergo hydrolysis at high or low pH.

>  <s_lp_Force_Field>  (95) 
OPLS3e

>  <r_lp_Energy>  (95) 
102.521

>  <b_lp_Chiralities_Consistent>  (95) 
1

>  <s_lp_Variant>  (95) 
38:0-1

>  <s_i_glide_gridfile>  (95) 
pfpi4k_grid

>  <i_i_glide_lignum>  (95) 
8

>  <i_i_glide_rotatable_bonds>  (95) 
2

>  <r_i_docking_score>  (95) 
-2.26558

>  <r_i_glide_ligand_efficiency>  (95) 
-0.0730833

>  <r_i_glide_ligand_efficiency_sa>  (95) 
-0.229582

>  <r_i_glide_ligand_efficiency_ln>  (95) 
-0.510958

>  <r_i_glide_gscore>  (95) 
-2.26558

>  <r_i_glide_lipo>  (95) 
-0.366276

>  <r_i_glide_hbond>  (95) 
-0.16

>  <r_i_glide_metal>  (95) 
-0

>  <r_i_glide_rewards>  (95) 
-0.49281

>  <r_i_glide_evdw>  (95) 
-20.8845

>  <r_i_glide_ecoul>  (95) 
-1.34847

>  <r_i_glide_erotb>  (95) 
0

>  <r_i_glide_esite>  (95) 
0

>  <r_i_glide_emodel>  (95) 
-25.1197

>  <r_i_glide_energy>  (95) 
-22.233

>  <r_i_glide_einternal>  (95) 
1.28724

>  <r_i_glide_intrahb_reward>  (95) 
-0

>  <i_i_glide_confnum>  (95) 
2

>  <i_i_glide_posenum>  (95) 
2

>  <r_i_glide_eff_state_penalty>  (95) 
0

>  <ligand_id>  (95) 
38

>  <original_smiles>  (95) 
CC(C)C12CC3C(C)(C)CC1(O)CC1(C)CC2C3(C)CC2CCC3C(=O)OCC3C2O1

>  <smiles>  (95) 
[H]OC12C([H])([H])C3(C([H])([H])[H])OC4([H])C([H])(C([H])([H])C([H])([H])C5([H])C(=O)OC([H])([H])C45[H])C([H])([H])C4(C([H])([H])[H])C([H])(C([H])([H])C1(C([H])(C([H])([H])[H])C([H])([H])[H])C4([H])C3([H])[H])C(C([H])([H])[H])(C([H])([H])[H])C2([H])[H]

$$$$
38:0:2
     RDKit          3D

 73 78  0  0  1  0  0  0  0  0999 V2000
    4.9676   -7.3885    2.5228 C   0  0  0  0  0  0  0  0  0  0  0  0
    4.0319   -8.3112    3.3462 C   0  0  0  0  0  0  0  0  0  0  0  0
    4.2137   -9.7050    2.6965 C   0  0  0  0  0  0  0  0  0  0  0  0
    2.5140   -7.8669    3.6203 C   0  0  2  0  0  0  0  0  0  0  0  0
    1.7333   -9.0543    4.2254 C   0  0  0  0  0  0  0  0  0  0  0  0
    0.3923   -8.4412    4.6642 C   0  0  2  0  0  0  0  0  0  0  0  0
   -0.4935   -8.2848    3.3696 C   0  0  0  0  0  0  0  0  0  0  0  0
   -0.6577   -9.6381    2.6170 C   0  0  0  0  0  0  0  0  0  0  0  0
   -1.9742   -7.9211    3.6681 C   0  0  0  0  0  0  0  0  0  0  0  0
    0.1741   -7.2600    2.4289 C   0  0  0  0  0  0  0  0  0  0  0  0
    1.7377   -7.2406    2.3889 C   0  0  2  0  0  0  0  0  0  0  0  0
    2.0046   -8.0475    1.2796 O   0  0  0  0  0  0  0  0  0  0  0  0
    2.2045   -5.7944    2.0586 C   0  0  0  0  0  0  0  0  0  0  0  0
    2.3142   -4.7962    3.2602 C   0  0  2  0  0  0  0  0  0  0  0  0
    3.2122   -3.6272    2.8034 C   0  0  0  0  0  0  0  0  0  0  0  0
    2.8863   -5.4712    4.5275 C   0  0  0  0  0  0  0  0  0  0  0  0
    2.3500   -6.8931    4.8169 C   0  0  1  0  0  0  0  0  0  0  0  0
    0.9007   -7.1465    5.4361 C   0  0  2  0  0  0  0  0  0  0  0  0
    1.0746   -7.5567    6.9288 C   0  0  0  0  0  0  0  0  0  0  0  0
   -0.1302   -5.9569    5.4765 C   0  0  0  0  0  0  0  0  0  0  0  0
    0.3726   -4.5724    5.9250 C   0  0  2  0  0  0  0  0  0  0  0  0
   -0.5623   -3.8652    6.9181 C   0  0  0  0  0  0  0  0  0  0  0  0
    0.1067   -2.5749    7.4295 C   0  0  0  0  0  0  0  0  0  0  0  0
    0.6098   -1.6296    6.3106 C   0  0  2  0  0  0  0  0  0  0  0  0
   -0.4244   -0.7517    5.6321 C   0  0  0  0  0  0  0  0  0  0  0  0
   -1.4209   -0.2936    6.1910 O   0  0  0  0  0  0  0  0  0  0  0  0
   -0.0527   -0.5611    4.3693 O   0  0  0  0  0  0  0  0  0  0  0  0
    1.1540   -1.2346    4.0357 C   0  0  0  0  0  0  0  0  0  0  0  0
    1.2928   -2.3123    5.1209 C   0  0  2  0  0  0  0  0  0  0  0  0
    0.5722   -3.6216    4.7114 C   0  0  1  0  0  0  0  0  0  0  0  0
    1.0067   -4.2631    3.4924 O   0  0  0  0  0  0  0  0  0  0  0  0
    4.6896   -7.3884    1.4769 H   0  0  0  0  0  0  0  0  0  0  0  0
    5.9921   -7.7565    2.5410 H   0  0  0  0  0  0  0  0  0  0  0  0
    5.0385   -6.3520    2.8546 H   0  0  0  0  0  0  0  0  0  0  0  0
    4.4958   -8.4067    4.3289 H   0  0  0  0  0  0  0  0  0  0  0  0
    3.7467   -9.7900    1.7159 H   0  0  0  0  0  0  0  0  0  0  0  0
    3.8522  -10.5247    3.3131 H   0  0  0  0  0  0  0  0  0  0  0  0
    5.2721   -9.9056    2.5203 H   0  0  0  0  0  0  0  0  0  0  0  0
    1.6522   -9.9115    3.5690 H   0  0  0  0  0  0  0  0  0  0  0  0
    2.2517   -9.4560    5.0944 H   0  0  0  0  0  0  0  0  0  0  0  0
   -0.1317   -9.1272    5.3382 H   0  0  0  0  0  0  0  0  0  0  0  0
   -1.4568   -9.6079    1.8723 H   0  0  0  0  0  0  0  0  0  0  0  0
   -0.9067  -10.4407    3.3058 H   0  0  0  0  0  0  0  0  0  0  0  0
    0.2274   -9.9586    2.0770 H   0  0  0  0  0  0  0  0  0  0  0  0
   -2.5306   -7.7670    2.7387 H   0  0  0  0  0  0  0  0  0  0  0  0
   -2.1446   -7.0325    4.2623 H   0  0  0  0  0  0  0  0  0  0  0  0
   -2.4719   -8.7376    4.1954 H   0  0  0  0  0  0  0  0  0  0  0  0
   -0.2196   -7.4165    1.4282 H   0  0  0  0  0  0  0  0  0  0  0  0
   -0.1907   -6.2627    2.6343 H   0  0  0  0  0  0  0  0  0  0  0  0
    1.6440   -8.9082    1.4390 H   0  0  0  0  0  0  0  0  0  0  0  0
    3.1638   -5.8226    1.5559 H   0  0  0  0  0  0  0  0  0  0  0  0
    1.5493   -5.3864    1.2881 H   0  0  0  0  0  0  0  0  0  0  0  0
    4.1679   -3.9910    2.4318 H   0  0  0  0  0  0  0  0  0  0  0  0
    3.4520   -2.9279    3.5972 H   0  0  0  0  0  0  0  0  0  0  0  0
    2.7477   -3.0657    1.9897 H   0  0  0  0  0  0  0  0  0  0  0  0
    3.9657   -5.5715    4.4171 H   0  0  0  0  0  0  0  0  0  0  0  0
    2.8859   -4.8147    5.3858 H   0  0  0  0  0  0  0  0  0  0  0  0
    3.0424   -7.2577    5.5780 H   0  0  0  0  0  0  0  0  0  0  0  0
    1.5109   -6.7486    7.5171 H   0  0  0  0  0  0  0  0  0  0  0  0
    1.7244   -8.4251    7.0482 H   0  0  0  0  0  0  0  0  0  0  0  0
    0.1202   -7.8198    7.3892 H   0  0  0  0  0  0  0  0  0  0  0  0
   -0.5877   -5.7710    4.5260 H   0  0  0  0  0  0  0  0  0  0  0  0
   -0.9704   -6.2518    6.1072 H   0  0  0  0  0  0  0  0  0  0  0  0
    1.2716   -4.7088    6.5115 H   0  0  0  0  0  0  0  0  0  0  0  0
   -1.5273   -3.6415    6.4570 H   0  0  0  0  0  0  0  0  0  0  0  0
   -0.7675   -4.5262    7.7666 H   0  0  0  0  0  0  0  0  0  0  0  0
   -0.5778   -2.0459    8.0879 H   0  0  0  0  0  0  0  0  0  0  0  0
    0.9595   -2.8514    8.0527 H   0  0  0  0  0  0  0  0  0  0  0  0
    1.3171   -0.9372    6.7627 H   0  0  0  0  0  0  0  0  0  0  0  0
    1.1040   -1.6412    3.0264 H   0  0  0  0  0  0  0  0  0  0  0  0
    1.9855   -0.5310    4.0770 H   0  0  0  0  0  0  0  0  0  0  0  0
    2.3343   -2.5077    5.3708 H   0  0  0  0  0  0  0  0  0  0  0  0
   -0.4374   -3.3174    4.4352 H   0  0  0  0  0  0  0  0  0  0  0  0
  1  2  1  0
  1 32  1  0
  1 33  1  0
  1 34  1  0
  2  3  1  0
  4  2  1  6
  2 35  1  0
  3 36  1  0
  3 37  1  0
  3 38  1  0
  4 11  1  0
  4 17  1  0
  4  5  1  0
  5  6  1  0
  5 39  1  0
  5 40  1  0
  6 18  1  0
  6  7  1  0
  6 41  1  1
  7  8  1  0
  7  9  1  0
  7 10  1  0
  8 42  1  0
  8 43  1  0
  8 44  1  0
  9 45  1  0
  9 46  1  0
  9 47  1  0
 10 11  1  0
 10 48  1  0
 10 49  1  0
 11 12  1  6
 11 13  1  0
 12 50  1  0
 13 14  1  0
 13 51  1  0
 13 52  1  0
 14 31  1  0
 14 15  1  6
 14 16  1  0
 15 53  1  0
 15 54  1  0
 15 55  1  0
 16 17  1  0
 16 56  1  0
 16 57  1  0
 17 18  1  0
 17 58  1  1
 18 19  1  1
 18 20  1  0
 19 59  1  0
 19 60  1  0
 19 61  1  0
 20 21  1  0
 20 62  1  0
 20 63  1  0
 21 30  1  0
 21 22  1  0
 21 64  1  1
 22 23  1  0
 22 65  1  0
 22 66  1  0
 23 24  1  0
 23 67  1  0
 23 68  1  0
 24 29  1  0
 24 25  1  0
 24 69  1  1
 25 26  2  0
 25 27  1  0
 27 28  1  0
 28 29  1  0
 28 70  1  0
 28 71  1  0
 29 30  1  0
 29 72  1  1
 30 31  1  0
 30 73  1  6
M  END
>  <i_m_ct_stereo_status>  (96) 
1

>  <s_m_source_file>  (96) 
/var/tmp/pbs.5076255.sched01/tmpav68hifr/35m6z7vsub.sdf

>  <i_m_source_file_index>  (96) 
8

>  <i_lp_mmshare_version>  (96) 
48012

>  <i_f3d_flags>  (96) 
0

>  <s_epik_input>  (96) 
W0NIM11bQ0hdKFtDSDNdKVtDQEBdMTJbQ0BAXTMoW09IXSlbQ0gyXUMoW0NIM10pKFtDSDNdKVtDQEBIXShbQ0gyXTEpW0NAQF00KFtDSDNdKVtDQEBIXTJbQ0gyXVtDQF0oW0NIMl0zKShbQ0gzXSlPW0NASF01W0NASF0oW0NIMl00KVtDSDJdW0NIMl1bQ0BIXTZbQ0BASF01W0NIMl1PQzY9Tw==

>  <s_epik_cmdline>  (96) 
J2VwaWtfcHl0aG9uJywgJy1waHQnLCAnMi4wJywgJy1waCcsICc3LjAnLCAnLXRuJywgJzgnLCAnLW1hJywgJzIwMCcsICctaW1hZScsICc8aW5maWxlLm1hZT4nLCAnLW9tYWUnLCAnPG91dGZpbGUubWFlPic=

>  <r_lp_tautomer_probability>  (96) 
1

>  <r_epik_Ionization_Penalty>  (96) 
1.39695e-06

>  <r_epik_Ionization_Penalty_Charging>  (96) 
0

>  <r_epik_Ionization_Penalty_Neutral>  (96) 
1.39695e-06

>  <r_epik_State_Penalty>  (96) 
-0

>  <r_epik_Charging_Adjusted_Penalty>  (96) 
0

>  <i_epik_Tot_Q>  (96) 
0

>  <i_epik_Tot_abs_Q>  (96) 
0

>  <s_epik_Chemistry_Notes>  (96) 
This compound has an ester and may undergo hydrolysis at high or low pH.

>  <s_lp_Force_Field>  (96) 
OPLS3e

>  <r_lp_Energy>  (96) 
102.521

>  <b_lp_Chiralities_Consistent>  (96) 
1

>  <s_lp_Variant>  (96) 
38:0-1

>  <s_i_glide_gridfile>  (96) 
pfpi4k_grid

>  <i_i_glide_lignum>  (96) 
8

>  <i_i_glide_rotatable_bonds>  (96) 
2

>  <r_i_docking_score>  (96) 
-1.9874

>  <r_i_glide_ligand_efficiency>  (96) 
-0.0641096

>  <r_i_glide_ligand_efficiency_sa>  (96) 
-0.201393

>  <r_i_glide_ligand_efficiency_ln>  (96) 
-0.448219

>  <r_i_glide_gscore>  (96) 
-1.9874

>  <r_i_glide_lipo>  (96) 
-0.0579345

>  <r_i_glide_hbond>  (96) 
-0.12932

>  <r_i_glide_metal>  (96) 
-0

>  <r_i_glide_rewards>  (96) 
-0.473046

>  <r_i_glide_evdw>  (96) 
-20.8721

>  <r_i_glide_ecoul>  (96) 
-1.68599

>  <r_i_glide_erotb>  (96) 
0

>  <r_i_glide_esite>  (96) 
-0.0305913

>  <r_i_glide_emodel>  (96) 
-25.1377

>  <r_i_glide_energy>  (96) 
-22.5581

>  <r_i_glide_einternal>  (96) 
1.05406

>  <r_i_glide_intrahb_reward>  (96) 
-0

>  <i_i_glide_confnum>  (96) 
2

>  <i_i_glide_posenum>  (96) 
29

>  <r_i_glide_eff_state_penalty>  (96) 
0

>  <ligand_id>  (96) 
38

>  <original_smiles>  (96) 
CC(C)C12CC3C(C)(C)CC1(O)CC1(C)CC2C3(C)CC2CCC3C(=O)OCC3C2O1

>  <smiles>  (96) 
[H]OC12C([H])([H])C3(C([H])([H])[H])OC4([H])C([H])(C([H])([H])C([H])([H])C5([H])C(=O)OC([H])([H])C45[H])C([H])([H])C4(C([H])([H])[H])C([H])(C([H])([H])C1(C([H])(C([H])([H])[H])C([H])([H])[H])C4([H])C3([H])[H])C(C([H])([H])[H])(C([H])([H])[H])C2([H])[H]

$$$$
39:0:0
     RDKit          3D

 76 82  0  0  1  0  0  0  0  0999 V2000
    5.9295   -6.1798    6.9930 C   0  0  0  0  0  0  0  0  0  0  0  0
    4.7058   -6.7236    6.8555 C   0  0  0  0  0  0  0  0  0  0  0  0
    4.5705   -8.3391    6.8606 C   0  0  1  0  0  0  0  0  0  0  0  0
    3.6642   -8.6597    8.0777 C   0  0  0  0  0  0  0  0  0  0  0  0
    2.2755   -7.9544    8.1377 C   0  0  0  0  0  0  0  0  0  0  0  0
    1.6048   -7.5330    6.7840 C   0  0  2  0  0  0  0  0  0  0  0  0
    1.7582   -8.4007    5.5195 C   0  0  2  0  0  0  0  0  0  0  0  0
    1.6487   -9.8157    6.2320 C   0  0  0  0  0  0  0  0  0  0  0  0
    2.7822   -7.2126    4.9450 C   0  0  1  0  0  0  0  0  0  0  0  0
    3.2294   -6.3968    3.5986 C   0  0  1  0  0  0  0  0  0  0  0  0
    2.9161   -4.8790    3.3893 C   0  0  0  0  0  0  0  0  0  0  0  0
    4.7920   -6.5136    3.3432 C   0  0  0  0  0  0  0  0  0  0  0  0
    5.2292   -7.9655    3.1465 C   0  0  1  0  0  0  0  0  0  0  0  0
    5.7707   -8.5327    1.8363 C   0  0  1  0  0  0  0  0  0  0  0  0
    7.2802   -8.2748    1.6782 C   0  0  0  0  0  0  0  0  0  0  0  0
    5.3430  -10.0257    2.0035 C   0  0  1  0  0  0  0  0  0  0  0  0
    6.2170  -10.9394    1.3480 O   0  0  0  0  0  0  0  0  0  0  0  0
    5.0639  -10.2477    3.5297 C   0  0  1  0  0  0  0  0  0  0  0  0
    5.8135  -11.3989    3.9036 O   0  0  0  0  0  0  0  0  0  0  0  0
    5.5138   -8.9815    4.2578 C   0  0  2  0  0  0  0  0  0  0  0  0
    4.6125   -9.3656    5.4643 C   0  0  2  0  0  0  0  0  0  0  0  0
    3.6133  -10.0578    4.2538 C   0  0  2  0  0  0  0  0  0  0  0  0
    3.2777  -11.3981    4.5985 O   0  0  0  0  0  0  0  0  0  0  0  0
    2.1038   -9.4920    3.4568 C   0  0  0  0  0  0  0  0  0  0  0  0
    2.1533   -9.0406    1.9324 C   0  0  0  0  0  0  0  0  0  0  0  0
    1.2345  -10.7647    3.0965 C   0  0  0  0  0  0  0  0  0  0  0  0
    0.9914   -8.5377    4.3181 C   0  0  2  0  0  0  0  0  0  0  0  0
    0.4137   -7.0084    4.1124 C   0  0  1  0  0  0  0  0  0  0  0  0
   -1.0026   -7.0246    4.0730 O   0  0  0  0  0  0  0  0  0  0  0  0
    0.9460   -5.9077    5.1898 C   0  0  0  0  0  0  0  0  0  0  0  0
    0.3532   -4.7260    5.4133 C   0  0  0  0  0  0  0  0  0  0  0  0
    2.1997   -6.4070    5.9991 C   0  0  1  0  0  0  0  0  0  0  0  0
    3.4592   -5.7192    6.6425 C   0  0  1  0  0  0  0  0  0  0  0  0
    3.1492   -5.0111    7.8258 O   0  0  0  0  0  0  0  0  0  0  0  0
    6.0677   -5.1072    6.9824 H   0  0  0  0  0  0  0  0  0  0  0  0
    6.8153   -6.7904    7.1132 H   0  0  0  0  0  0  0  0  0  0  0  0
    5.5395   -8.6010    7.2911 H   0  0  0  0  0  0  0  0  0  0  0  0
    3.5959   -9.7307    8.2536 H   0  0  0  0  0  0  0  0  0  0  0  0
    4.1992   -8.3191    8.9661 H   0  0  0  0  0  0  0  0  0  0  0  0
    1.6053   -8.5919    8.7122 H   0  0  0  0  0  0  0  0  0  0  0  0
    2.3451   -7.1021    8.8061 H   0  0  0  0  0  0  0  0  0  0  0  0
    0.5453   -7.3601    6.9844 H   0  0  0  0  0  0  0  0  0  0  0  0
    1.1397  -10.5901    5.6845 H   0  0  0  0  0  0  0  0  0  0  0  0
    0.9554   -9.8004    7.0750 H   0  0  0  0  0  0  0  0  0  0  0  0
    2.5561  -10.2658    6.6005 H   0  0  0  0  0  0  0  0  0  0  0  0
    3.7176   -7.4797    5.0376 H   0  0  0  0  0  0  0  0  0  0  0  0
    2.7137   -6.7794    2.7437 H   0  0  0  0  0  0  0  0  0  0  0  0
    3.2074   -4.2241    4.2041 H   0  0  0  0  0  0  0  0  0  0  0  0
    1.8682   -4.6881    3.1655 H   0  0  0  0  0  0  0  0  0  0  0  0
    3.4335   -4.4989    2.5073 H   0  0  0  0  0  0  0  0  0  0  0  0
    5.0520   -5.9862    2.4270 H   0  0  0  0  0  0  0  0  0  0  0  0
    5.3737   -6.0489    4.1370 H   0  0  0  0  0  0  0  0  0  0  0  0
    4.2417   -8.2161    2.8979 H   0  0  0  0  0  0  0  0  0  0  0  0
    5.2556   -8.1059    0.9754 H   0  0  0  0  0  0  0  0  0  0  0  0
    7.8609   -8.7311    2.4810 H   0  0  0  0  0  0  0  0  0  0  0  0
    7.4886   -7.2053    1.6878 H   0  0  0  0  0  0  0  0  0  0  0  0
    7.6519   -8.6601    0.7275 H   0  0  0  0  0  0  0  0  0  0  0  0
    4.4092  -10.1818    1.4737 H   0  0  0  0  0  0  0  0  0  0  0  0
    5.6223  -11.5486    0.9101 H   0  0  0  0  0  0  0  0  0  0  0  0
    5.4471  -12.1208    3.4163 H   0  0  0  0  0  0  0  0  0  0  0  0
    6.5671   -9.0197    4.5419 H   0  0  0  0  0  0  0  0  0  0  0  0
    5.0610  -10.2515    5.9177 H   0  0  0  0  0  0  0  0  0  0  0  0
    2.7440  -11.3654    5.3780 H   0  0  0  0  0  0  0  0  0  0  0  0
    1.1949   -8.5980    1.6568 H   0  0  0  0  0  0  0  0  0  0  0  0
    2.2953   -9.8666    1.2329 H   0  0  0  0  0  0  0  0  0  0  0  0
    2.8803   -8.3393    1.5520 H   0  0  0  0  0  0  0  0  0  0  0  0
    0.3413  -10.5007    2.5296 H   0  0  0  0  0  0  0  0  0  0  0  0
    0.8510  -11.3666    3.9099 H   0  0  0  0  0  0  0  0  0  0  0  0
    1.7984  -11.4775    2.4951 H   0  0  0  0  0  0  0  0  0  0  0  0
    0.0978   -9.1407    4.4991 H   0  0  0  0  0  0  0  0  0  0  0  0
    0.6574   -6.6611    3.1149 H   0  0  0  0  0  0  0  0  0  0  0  0
   -1.2935   -7.7681    4.5821 H   0  0  0  0  0  0  0  0  0  0  0  0
   -0.5149   -4.4286    4.8412 H   0  0  0  0  0  0  0  0  0  0  0  0
    0.7296   -4.0356    6.1570 H   0  0  0  0  0  0  0  0  0  0  0  0
    3.8414   -4.9390    5.9943 H   0  0  0  0  0  0  0  0  0  0  0  0
    2.9025   -5.6401    8.4860 H   0  0  0  0  0  0  0  0  0  0  0  0
  1  2  2  0
  1 35  1  0
  1 36  1  0
  2 33  1  0
  2  3  1  0
  3 21  1  0
  3  4  1  0
  3 37  1  1
  4  5  1  0
  4 38  1  0
  4 39  1  0
  5  6  1  0
  5 40  1  0
  5 41  1  0
  6 32  1  0
  6  7  1  0
  6 42  1  1
  7 27  1  0
  7  8  1  1
  7  9  1  0
  8 43  1  0
  8 44  1  0
  8 45  1  0
  9 32  1  0
  9 10  1  0
  9 46  1  1
 10 11  1  0
 10 12  1  0
 10 47  1  6
 11 48  1  0
 11 49  1  0
 11 50  1  0
 12 13  1  0
 12 51  1  0
 12 52  1  0
 13 20  1  0
 13 14  1  0
 13 53  1  6
 14 15  1  0
 14 16  1  0
 14 54  1  6
 15 55  1  0
 15 56  1  0
 15 57  1  0
 16 17  1  0
 16 18  1  0
 16 58  1  6
 17 59  1  0
 18 22  1  0
 18 19  1  1
 18 20  1  0
 19 60  1  0
 20 21  1  0
 20 61  1  1
 21 22  1  0
 21 62  1  1
 22 23  1  1
 22 24  1  0
 23 63  1  0
 24 25  1  0
 24 26  1  0
 24 27  1  0
 25 64  1  0
 25 65  1  0
 25 66  1  0
 26 67  1  0
 26 68  1  0
 26 69  1  0
 27 28  1  0
 27 70  1  1
 28 29  1  0
 28 30  1  0
 28 71  1  6
 29 72  1  0
 30 31  2  0
 32 30  1  6
 31 73  1  0
 31 74  1  0
 32 33  1  0
 33 34  1  0
 33 75  1  6
 34 76  1  0
M  END
>  <i_m_ct_stereo_status>  (97) 
1

>  <s_m_source_file>  (97) 
/var/tmp/pbs.5076255.sched01/tmpav68hifr/35m6z7vsub.sdf

>  <i_m_source_file_index>  (97) 
9

>  <i_lp_mmshare_version>  (97) 
48012

>  <i_f3d_flags>  (97) 
0

>  <s_epik_input>  (97) 
W0NIMl09QzFbQ0BIXShbT0hdKVtDQEhdMkMoW0NIM10pKFtDSDNdKVtDQF0oW09IXSkoW0NAQEhdM1tDQEhdKFtDSDJdW0NIMl00KUMoPVtDSDJdKVtDQEBIXTVbT0hdKUMoW09IXSkoW0NASF0oW09IXSlbQ0BASF02W0NIM10pW0NASF0zW0NASF02W0NIMl1bQ0BIXShbQ0gzXSlbQ0BASF03QzIoW0NAQEhdNFtDQEBdMTU3KVtDSDNd

>  <s_epik_cmdline>  (97) 
J2VwaWtfcHl0aG9uJywgJy1waHQnLCAnMi4wJywgJy1waCcsICc3LjAnLCAnLXRuJywgJzgnLCAnLW1hJywgJzIwMCcsICctaW1hZScsICc8aW5maWxlLm1hZT4nLCAnLW9tYWUnLCAnPG91dGZpbGUubWFlPic=

>  <r_lp_tautomer_probability>  (97) 
1

>  <r_epik_Ionization_Penalty>  (97) 
1.58808e-06

>  <r_epik_Ionization_Penalty_Charging>  (97) 
0

>  <r_epik_Ionization_Penalty_Neutral>  (97) 
1.58808e-06

>  <r_epik_State_Penalty>  (97) 
-0

>  <r_epik_Charging_Adjusted_Penalty>  (97) 
0

>  <i_epik_Tot_Q>  (97) 
0

>  <i_epik_Tot_abs_Q>  (97) 
0

>  <s_lp_Force_Field>  (97) 
OPLS3e

>  <r_lp_Energy>  (97) 
483.002

>  <b_lp_Chiralities_Consistent>  (97) 
1

>  <s_lp_Variant>  (97) 
39:0-1

>  <s_i_glide_gridfile>  (97) 
pfpi4k_grid

>  <i_i_glide_lignum>  (97) 
9

>  <i_i_glide_rotatable_bonds>  (97) 
5

>  <r_i_docking_score>  (97) 
-2.7432

>  <r_i_glide_ligand_efficiency>  (97) 
-0.0806823

>  <r_i_glide_ligand_efficiency_sa>  (97) 
-0.261379

>  <r_i_glide_ligand_efficiency_ln>  (97) 
-0.606049

>  <r_i_glide_gscore>  (97) 
-2.7432

>  <r_i_glide_lipo>  (97) 
-0.358875

>  <r_i_glide_hbond>  (97) 
0

>  <r_i_glide_metal>  (97) 
-0

>  <r_i_glide_rewards>  (97) 
-0.200176

>  <r_i_glide_evdw>  (97) 
-18.9812

>  <r_i_glide_ecoul>  (97) 
-8.23391

>  <r_i_glide_erotb>  (97) 
0

>  <r_i_glide_esite>  (97) 
0

>  <r_i_glide_emodel>  (97) 
-31.1294

>  <r_i_glide_energy>  (97) 
-27.2151

>  <r_i_glide_einternal>  (97) 
2.52681

>  <r_i_glide_intrahb_reward>  (97) 
-0

>  <i_i_glide_confnum>  (97) 
1

>  <i_i_glide_posenum>  (97) 
40

>  <r_i_glide_eff_state_penalty>  (97) 
0

>  <ligand_id>  (97) 
39

>  <original_smiles>  (97) 
C=C1C2CCC3C4(C)C5C(C)CC6C(C)C(O)C7(O)C6C2C7(O)C(C)(C)C4C(O)C(=C)C35C1O

>  <smiles>  (97) 
[H]OC1([H])C(=C([H])[H])C23C([H])(O[H])C(=C([H])[H])C4([H])C([H])([H])C([H])([H])C2([H])C2(C([H])([H])[H])C3([H])C([H])(C([H])([H])[H])C([H])([H])C3([H])C([H])(C([H])([H])[H])C([H])(O[H])C5(O[H])C3([H])C4([H])C5(O[H])C(C([H])([H])[H])(C([H])([H])[H])C12[H]

$$$$
39:0:1
     RDKit          3D

 76 82  0  0  1  0  0  0  0  0999 V2000
    5.3633   -7.0028    7.7017 C   0  0  0  0  0  0  0  0  0  0  0  0
    4.1280   -7.4291    7.3942 C   0  0  0  0  0  0  0  0  0  0  0  0
    3.9351   -8.9682    6.9244 C   0  0  1  0  0  0  0  0  0  0  0  0
    2.9866   -9.5868    7.9793 C   0  0  0  0  0  0  0  0  0  0  0  0
    1.6221   -8.8754    8.2228 C   0  0  0  0  0  0  0  0  0  0  0  0
    1.0012   -8.0519    7.0433 C   0  0  2  0  0  0  0  0  0  0  0  0
    1.1598   -8.5191    5.5835 C   0  0  2  0  0  0  0  0  0  0  0  0
    0.9764  -10.0691    5.8545 C   0  0  0  0  0  0  0  0  0  0  0  0
    2.2412   -7.2578    5.3952 C   0  0  1  0  0  0  0  0  0  0  0  0
    2.7534   -6.1060    4.3502 C   0  0  1  0  0  0  0  0  0  0  0  0
    2.4972   -4.5841    4.5886 C   0  0  0  0  0  0  0  0  0  0  0  0
    4.3172   -6.2140    4.0965 C   0  0  0  0  0  0  0  0  0  0  0  0
    4.7071   -7.5654    3.4899 C   0  0  1  0  0  0  0  0  0  0  0  0
    5.2552   -7.7530    2.0770 C   0  0  1  0  0  0  0  0  0  0  0  0
    6.7790   -7.5261    2.0244 C   0  0  0  0  0  0  0  0  0  0  0  0
    4.7599   -9.2088    1.7979 C   0  0  1  0  0  0  0  0  0  0  0  0
    5.6704   -9.9100    0.9681 O   0  0  0  0  0  0  0  0  0  0  0  0
    4.4344   -9.8591    3.1869 C   0  0  1  0  0  0  0  0  0  0  0  0
    5.1132  -11.1154    3.2111 O   0  0  0  0  0  0  0  0  0  0  0  0
    4.9214   -8.8762    4.2568 C   0  0  2  0  0  0  0  0  0  0  0  0
    3.9770   -9.5479    5.2922 C   0  0  2  0  0  0  0  0  0  0  0  0
    2.9795   -9.8137    3.9231 C   0  0  2  0  0  0  0  0  0  0  0  0
    2.5741  -11.1768    3.8830 O   0  0  0  0  0  0  0  0  0  0  0  0
    1.5163   -8.9783    3.2991 C   0  0  0  0  0  0  0  0  0  0  0  0
    1.6239   -8.1082    1.9712 C   0  0  0  0  0  0  0  0  0  0  0  0
    0.6043  -10.0473    2.5745 C   0  0  0  0  0  0  0  0  0  0  0  0
    0.4231   -8.2699    4.3846 C   0  0  2  0  0  0  0  0  0  0  0  0
   -0.0891   -6.7240    4.6163 C   0  0  1  0  0  0  0  0  0  0  0  0
   -1.4970   -6.6877    4.5392 O   0  0  0  0  0  0  0  0  0  0  0  0
    0.4428   -6.0110    5.9795 C   0  0  0  0  0  0  0  0  0  0  0  0
   -0.1175   -4.9182    6.5314 C   0  0  0  0  0  0  0  0  0  0  0  0
    1.6575   -6.7704    6.6285 C   0  0  1  0  0  0  0  0  0  0  0  0
    2.9225   -6.3556    7.4623 C   0  0  1  0  0  0  0  0  0  0  0  0
    2.6037   -6.0078    8.7949 O   0  0  0  0  0  0  0  0  0  0  0  0
    5.5431   -5.9804    8.0053 H   0  0  0  0  0  0  0  0  0  0  0  0
    6.2235   -7.6589    7.6503 H   0  0  0  0  0  0  0  0  0  0  0  0
    4.8797   -9.3894    7.2723 H   0  0  0  0  0  0  0  0  0  0  0  0
    2.8774  -10.6573    7.8317 H   0  0  0  0  0  0  0  0  0  0  0  0
    3.5069   -9.5471    8.9377 H   0  0  0  0  0  0  0  0  0  0  0  0
    0.9169   -9.6284    8.5735 H   0  0  0  0  0  0  0  0  0  0  0  0
    1.7030   -8.2606    9.1135 H   0  0  0  0  0  0  0  0  0  0  0  0
   -0.0598   -7.9037    7.2698 H   0  0  0  0  0  0  0  0  0  0  0  0
    0.4602  -10.6312    5.0986 H   0  0  0  0  0  0  0  0  0  0  0  0
    0.2613  -10.2674    6.6488 H   0  0  0  0  0  0  0  0  0  0  0  0
    1.8560  -10.6471    6.0807 H   0  0  0  0  0  0  0  0  0  0  0  0
    3.1631   -7.5803    5.4165 H   0  0  0  0  0  0  0  0  0  0  0  0
    2.2444   -6.2059    3.4133 H   0  0  0  0  0  0  0  0  0  0  0  0
    2.7890   -4.2104    5.5615 H   0  0  0  0  0  0  0  0  0  0  0  0
    1.4650   -4.2942    4.4131 H   0  0  0  0  0  0  0  0  0  0  0  0
    3.0516   -3.9891    3.8650 H   0  0  0  0  0  0  0  0  0  0  0  0
    4.6171   -5.4532    3.3785 H   0  0  0  0  0  0  0  0  0  0  0  0
    4.8881   -6.0238    5.0010 H   0  0  0  0  0  0  0  0  0  0  0  0
    3.7163   -7.6885    3.1686 H   0  0  0  0  0  0  0  0  0  0  0  0
    4.7820   -7.0647    1.3761 H   0  0  0  0  0  0  0  0  0  0  0  0
    7.3239   -8.2281    2.6583 H   0  0  0  0  0  0  0  0  0  0  0  0
    7.0286   -6.5165    2.3559 H   0  0  0  0  0  0  0  0  0  0  0  0
    7.1600   -7.6351    1.0077 H   0  0  0  0  0  0  0  0  0  0  0  0
    3.8526   -9.1779    1.2072 H   0  0  0  0  0  0  0  0  0  0  0  0
    5.2366  -10.7149    0.6841 H   0  0  0  0  0  0  0  0  0  0  0  0
    4.8597  -11.5950    2.4343 H   0  0  0  0  0  0  0  0  0  0  0  0
    5.9638   -9.0372    4.5360 H   0  0  0  0  0  0  0  0  0  0  0  0
    4.3758  -10.5486    5.4730 H   0  0  0  0  0  0  0  0  0  0  0  0
    2.7954  -11.5152    3.0310 H   0  0  0  0  0  0  0  0  0  0  0  0
    0.6888   -7.5642    1.8191 H   0  0  0  0  0  0  0  0  0  0  0  0
    1.7590   -8.7012    1.0642 H   0  0  0  0  0  0  0  0  0  0  0  0
    2.3869   -7.3566    1.8218 H   0  0  0  0  0  0  0  0  0  0  0  0
   -0.2677   -9.5939    2.1011 H   0  0  0  0  0  0  0  0  0  0  0  0
    0.1894  -10.8487    3.1715 H   0  0  0  0  0  0  0  0  0  0  0  0
    1.1508  -10.5661    1.7947 H   0  0  0  0  0  0  0  0  0  0  0  0
   -0.4950   -8.8622    4.3709 H   0  0  0  0  0  0  0  0  0  0  0  0
    0.1935   -6.1104    3.7690 H   0  0  0  0  0  0  0  0  0  0  0  0
   -1.8219   -7.4877    4.9298 H   0  0  0  0  0  0  0  0  0  0  0  0
   -0.9610   -4.4350    6.0624 H   0  0  0  0  0  0  0  0  0  0  0  0
    0.2681   -4.4941    7.4499 H   0  0  0  0  0  0  0  0  0  0  0  0
    3.3529   -5.4380    7.0759 H   0  0  0  0  0  0  0  0  0  0  0  0
    2.2607   -6.7761    9.2245 H   0  0  0  0  0  0  0  0  0  0  0  0
  1  2  2  0
  1 35  1  0
  1 36  1  0
  2 33  1  0
  2  3  1  0
  3 21  1  0
  3  4  1  0
  3 37  1  1
  4  5  1  0
  4 38  1  0
  4 39  1  0
  5  6  1  0
  5 40  1  0
  5 41  1  0
  6 32  1  0
  6  7  1  0
  6 42  1  1
  7 27  1  0
  7  8  1  1
  7  9  1  0
  8 43  1  0
  8 44  1  0
  8 45  1  0
  9 32  1  0
  9 10  1  0
  9 46  1  1
 10 11  1  0
 10 12  1  0
 10 47  1  6
 11 48  1  0
 11 49  1  0
 11 50  1  0
 12 13  1  0
 12 51  1  0
 12 52  1  0
 13 20  1  0
 13 14  1  0
 13 53  1  6
 14 15  1  0
 14 16  1  0
 14 54  1  6
 15 55  1  0
 15 56  1  0
 15 57  1  0
 16 17  1  0
 16 18  1  0
 16 58  1  6
 17 59  1  0
 18 22  1  0
 18 19  1  1
 18 20  1  0
 19 60  1  0
 20 21  1  0
 20 61  1  1
 21 22  1  0
 21 62  1  1
 22 23  1  1
 22 24  1  0
 23 63  1  0
 24 25  1  0
 24 26  1  0
 24 27  1  0
 25 64  1  0
 25 65  1  0
 25 66  1  0
 26 67  1  0
 26 68  1  0
 26 69  1  0
 27 28  1  0
 27 70  1  1
 28 29  1  0
 28 30  1  0
 28 71  1  6
 29 72  1  0
 30 31  2  0
 32 30  1  6
 31 73  1  0
 31 74  1  0
 32 33  1  0
 33 34  1  0
 33 75  1  6
 34 76  1  0
M  END
>  <i_m_ct_stereo_status>  (98) 
1

>  <s_m_source_file>  (98) 
/var/tmp/pbs.5076255.sched01/tmpav68hifr/35m6z7vsub.sdf

>  <i_m_source_file_index>  (98) 
9

>  <i_lp_mmshare_version>  (98) 
48012

>  <i_f3d_flags>  (98) 
0

>  <s_epik_input>  (98) 
W0NIMl09QzFbQ0BIXShbT0hdKVtDQEhdMkMoW0NIM10pKFtDSDNdKVtDQF0oW09IXSkoW0NAQEhdM1tDQEhdKFtDSDJdW0NIMl00KUMoPVtDSDJdKVtDQEBIXTVbT0hdKUMoW09IXSkoW0NASF0oW09IXSlbQ0BASF02W0NIM10pW0NASF0zW0NASF02W0NIMl1bQ0BIXShbQ0gzXSlbQ0BASF03QzIoW0NAQEhdNFtDQEBdMTU3KVtDSDNd

>  <s_epik_cmdline>  (98) 
J2VwaWtfcHl0aG9uJywgJy1waHQnLCAnMi4wJywgJy1waCcsICc3LjAnLCAnLXRuJywgJzgnLCAnLW1hJywgJzIwMCcsICctaW1hZScsICc8aW5maWxlLm1hZT4nLCAnLW9tYWUnLCAnPG91dGZpbGUubWFlPic=

>  <r_lp_tautomer_probability>  (98) 
1

>  <r_epik_Ionization_Penalty>  (98) 
1.58808e-06

>  <r_epik_Ionization_Penalty_Charging>  (98) 
0

>  <r_epik_Ionization_Penalty_Neutral>  (98) 
1.58808e-06

>  <r_epik_State_Penalty>  (98) 
-0

>  <r_epik_Charging_Adjusted_Penalty>  (98) 
0

>  <i_epik_Tot_Q>  (98) 
0

>  <i_epik_Tot_abs_Q>  (98) 
0

>  <s_lp_Force_Field>  (98) 
OPLS3e

>  <r_lp_Energy>  (98) 
483.002

>  <b_lp_Chiralities_Consistent>  (98) 
1

>  <s_lp_Variant>  (98) 
39:0-1

>  <s_i_glide_gridfile>  (98) 
pfpi4k_grid

>  <i_i_glide_lignum>  (98) 
9

>  <i_i_glide_rotatable_bonds>  (98) 
5

>  <r_i_docking_score>  (98) 
-2.32314

>  <r_i_glide_ligand_efficiency>  (98) 
-0.0683277

>  <r_i_glide_ligand_efficiency_sa>  (98) 
-0.221355

>  <r_i_glide_ligand_efficiency_ln>  (98) 
-0.513247

>  <r_i_glide_gscore>  (98) 
-2.32314

>  <r_i_glide_lipo>  (98) 
-0.215321

>  <r_i_glide_hbond>  (98) 
0

>  <r_i_glide_metal>  (98) 
-0

>  <r_i_glide_rewards>  (98) 
-0.200176

>  <r_i_glide_evdw>  (98) 
-18.4267

>  <r_i_glide_ecoul>  (98) 
-6.57539

>  <r_i_glide_erotb>  (98) 
0

>  <r_i_glide_esite>  (98) 
0

>  <r_i_glide_emodel>  (98) 
-28.7863

>  <r_i_glide_energy>  (98) 
-25.0021

>  <r_i_glide_einternal>  (98) 
1.52631

>  <r_i_glide_intrahb_reward>  (98) 
-0

>  <i_i_glide_confnum>  (98) 
2

>  <i_i_glide_posenum>  (98) 
15

>  <r_i_glide_eff_state_penalty>  (98) 
0

>  <ligand_id>  (98) 
39

>  <original_smiles>  (98) 
C=C1C2CCC3C4(C)C5C(C)CC6C(C)C(O)C7(O)C6C2C7(O)C(C)(C)C4C(O)C(=C)C35C1O

>  <smiles>  (98) 
[H]OC1([H])C(=C([H])[H])C23C([H])(O[H])C(=C([H])[H])C4([H])C([H])([H])C([H])([H])C2([H])C2(C([H])([H])[H])C3([H])C([H])(C([H])([H])[H])C([H])([H])C3([H])C([H])(C([H])([H])[H])C([H])(O[H])C5(O[H])C3([H])C4([H])C5(O[H])C(C([H])([H])[H])(C([H])([H])[H])C12[H]

$$$$
39:0:2
     RDKit          3D

 76 82  0  0  1  0  0  0  0  0999 V2000
    5.6411   -9.5411    1.4758 C   0  0  0  0  0  0  0  0  0  0  0  0
    5.4624   -9.5379    2.8146 C   0  0  0  0  0  0  0  0  0  0  0  0
    4.2738  -10.4504    3.4380 C   0  0  1  0  0  0  0  0  0  0  0  0
    4.9961  -11.4510    4.3769 C   0  0  0  0  0  0  0  0  0  0  0  0
    5.9284  -10.8483    5.4700 C   0  0  0  0  0  0  0  0  0  0  0  0
    5.6045   -9.4129    6.0087 C   0  0  2  0  0  0  0  0  0  0  0  0
    4.1487   -8.9325    6.1558 C   0  0  2  0  0  0  0  0  0  0  0  0
    3.5398  -10.2963    6.6897 C   0  0  0  0  0  0  0  0  0  0  0  0
    4.4351   -7.9617    4.8224 C   0  0  1  0  0  0  0  0  0  0  0  0
    4.1270   -6.4901    4.1722 C   0  0  1  0  0  0  0  0  0  0  0  0
    5.2276   -5.3964    4.0026 C   0  0  0  0  0  0  0  0  0  0  0  0
    3.4764   -6.6291    2.7292 C   0  0  0  0  0  0  0  0  0  0  0  0
    2.1456   -7.3809    2.7701 C   0  0  1  0  0  0  0  0  0  0  0  0
    0.7869   -6.7487    2.4753 C   0  0  1  0  0  0  0  0  0  0  0  0
    0.4877   -6.7403    0.9622 C   0  0  0  0  0  0  0  0  0  0  0  0
   -0.1235   -7.6607    3.3547 C   0  0  1  0  0  0  0  0  0  0  0  0
   -1.4091   -7.8110    2.7734 O   0  0  0  0  0  0  0  0  0  0  0  0
    0.6884   -8.9679    3.6423 C   0  0  1  0  0  0  0  0  0  0  0  0
   -0.1839  -10.0431    3.2928 O   0  0  0  0  0  0  0  0  0  0  0  0
    1.9679   -8.9061    2.7996 C   0  0  2  0  0  0  0  0  0  0  0  0
    2.6430   -9.9357    3.7490 C   0  0  2  0  0  0  0  0  0  0  0  0
    1.6543   -9.1964    4.9423 C   0  0  2  0  0  0  0  0  0  0  0  0
    0.9172  -10.1764    5.6699 O   0  0  0  0  0  0  0  0  0  0  0  0
    1.9977   -7.9750    6.2156 C   0  0  0  0  0  0  0  0  0  0  0  0
    1.4119   -6.5053    6.0629 C   0  0  0  0  0  0  0  0  0  0  0  0
    1.0442   -8.2688    7.4455 C   0  0  0  0  0  0  0  0  0  0  0  0
    3.5277   -7.9223    6.9532 C   0  0  2  0  0  0  0  0  0  0  0  0
    4.7099   -6.7728    7.0296 C   0  0  1  0  0  0  0  0  0  0  0  0
    5.0534   -6.5269    8.3791 O   0  0  0  0  0  0  0  0  0  0  0  0
    6.0441   -7.0920    6.1579 C   0  0  0  0  0  0  0  0  0  0  0  0
    7.2304   -6.4790    6.3490 C   0  0  0  0  0  0  0  0  0  0  0  0
    5.8304   -8.2376    5.1080 C   0  0  1  0  0  0  0  0  0  0  0  0
    6.4140   -8.5719    3.6873 C   0  0  1  0  0  0  0  0  0  0  0  0
    7.7480   -9.0382    3.7349 O   0  0  0  0  0  0  0  0  0  0  0  0
    6.3987   -8.9335    1.0037 H   0  0  0  0  0  0  0  0  0  0  0  0
    5.0173  -10.1469    0.8339 H   0  0  0  0  0  0  0  0  0  0  0  0
    4.0839  -11.1115    2.5915 H   0  0  0  0  0  0  0  0  0  0  0  0
    4.3107  -12.1969    4.7724 H   0  0  0  0  0  0  0  0  0  0  0  0
    5.6494  -12.0585    3.7457 H   0  0  0  0  0  0  0  0  0  0  0  0
    5.9766  -11.5597    6.2939 H   0  0  0  0  0  0  0  0  0  0  0  0
    6.9542  -10.8890    5.1142 H   0  0  0  0  0  0  0  0  0  0  0  0
    6.1330   -9.2906    6.9600 H   0  0  0  0  0  0  0  0  0  0  0  0
    2.7611  -10.2183    7.4256 H   0  0  0  0  0  0  0  0  0  0  0  0
    4.2430  -10.8338    7.3253 H   0  0  0  0  0  0  0  0  0  0  0  0
    3.1793  -11.0037    5.9642 H   0  0  0  0  0  0  0  0  0  0  0  0
    4.0517   -8.3501    4.0138 H   0  0  0  0  0  0  0  0  0  0  0  0
    3.4584   -5.9407    4.8031 H   0  0  0  0  0  0  0  0  0  0  0  0
    6.1339   -5.7199    3.5070 H   0  0  0  0  0  0  0  0  0  0  0  0
    5.5083   -4.9297    4.9428 H   0  0  0  0  0  0  0  0  0  0  0  0
    4.8484   -4.5657    3.4119 H   0  0  0  0  0  0  0  0  0  0  0  0
    3.2597   -5.6360    2.3385 H   0  0  0  0  0  0  0  0  0  0  0  0
    4.1567   -7.0971    2.0224 H   0  0  0  0  0  0  0  0  0  0  0  0
    2.0715   -7.1562    3.7914 H   0  0  0  0  0  0  0  0  0  0  0  0
    0.7368   -5.7270    2.8467 H   0  0  0  0  0  0  0  0  0  0  0  0
    0.4787   -7.7495    0.5451 H   0  0  0  0  0  0  0  0  0  0  0  0
    1.2519   -6.1764    0.4229 H   0  0  0  0  0  0  0  0  0  0  0  0
   -0.4796   -6.2868    0.7428 H   0  0  0  0  0  0  0  0  0  0  0  0
   -0.3354   -7.1857    4.3031 H   0  0  0  0  0  0  0  0  0  0  0  0
   -1.8143   -8.5615    3.1901 H   0  0  0  0  0  0  0  0  0  0  0  0
   -0.6717  -10.2714    4.0797 H   0  0  0  0  0  0  0  0  0  0  0  0
    1.8341   -9.3430    1.8080 H   0  0  0  0  0  0  0  0  0  0  0  0
    2.1280  -10.8867    3.5887 H   0  0  0  0  0  0  0  0  0  0  0  0
    1.5311  -10.7345    6.1330 H   0  0  0  0  0  0  0  0  0  0  0  0
    1.8345   -5.8644    6.8399 H   0  0  0  0  0  0  0  0  0  0  0  0
    0.3299   -6.4493    6.1994 H   0  0  0  0  0  0  0  0  0  0  0  0
    1.5224   -5.9231    5.1599 H   0  0  0  0  0  0  0  0  0  0  0  0
    1.1432   -7.5117    8.2245 H   0  0  0  0  0  0  0  0  0  0  0  0
    1.1774   -9.2030    7.9765 H   0  0  0  0  0  0  0  0  0  0  0  0
   -0.0064   -8.2923    7.1481 H   0  0  0  0  0  0  0  0  0  0  0  0
    3.4200   -8.2556    7.9885 H   0  0  0  0  0  0  0  0  0  0  0  0
    4.3060   -5.8169    6.7141 H   0  0  0  0  0  0  0  0  0  0  0  0
    5.3530   -7.3424    8.7567 H   0  0  0  0  0  0  0  0  0  0  0  0
    7.3291   -5.7053    7.0967 H   0  0  0  0  0  0  0  0  0  0  0  0
    8.1015   -6.7438    5.7636 H   0  0  0  0  0  0  0  0  0  0  0  0
    6.5014   -7.6679    3.0956 H   0  0  0  0  0  0  0  0  0  0  0  0
    8.1526   -8.8655    2.8949 H   0  0  0  0  0  0  0  0  0  0  0  0
  1  2  2  0
  1 35  1  0
  1 36  1  0
  2 33  1  0
  2  3  1  0
  3 21  1  0
  3  4  1  0
  3 37  1  6
  4  5  1  0
  4 38  1  0
  4 39  1  0
  5  6  1  0
  5 40  1  0
  5 41  1  0
  6 32  1  0
  6  7  1  0
  6 42  1  1
  7 27  1  0
  7  8  1  6
  7  9  1  0
  8 43  1  0
  8 44  1  0
  8 45  1  0
  9 32  1  0
  9 10  1  0
  9 46  1  6
 10 11  1  0
 10 12  1  0
 10 47  1  1
 11 48  1  0
 11 49  1  0
 11 50  1  0
 12 13  1  0
 12 51  1  0
 12 52  1  0
 13 20  1  0
 13 14  1  0
 13 53  1  1
 14 15  1  0
 14 16  1  0
 14 54  1  1
 15 55  1  0
 15 56  1  0
 15 57  1  0
 16 17  1  0
 16 18  1  0
 16 58  1  1
 17 59  1  0
 18 22  1  0
 18 19  1  6
 18 20  1  0
 19 60  1  0
 20 21  1  0
 20 61  1  6
 21 22  1  0
 21 62  1  6
 22 23  1  1
 22 24  1  0
 23 63  1  0
 24 25  1  0
 24 26  1  0
 24 27  1  0
 25 64  1  0
 25 65  1  0
 25 66  1  0
 26 67  1  0
 26 68  1  0
 26 69  1  0
 27 28  1  0
 27 70  1  1
 28 29  1  0
 28 30  1  0
 28 71  1  6
 29 72  1  0
 30 31  2  0
 32 30  1  1
 31 73  1  0
 31 74  1  0
 32 33  1  0
 33 34  1  0
 33 75  1  6
 34 76  1  0
M  END
>  <i_m_ct_stereo_status>  (99) 
1

>  <s_m_source_file>  (99) 
/var/tmp/pbs.5076255.sched01/tmpav68hifr/35m6z7vsub.sdf

>  <i_m_source_file_index>  (99) 
9

>  <i_lp_mmshare_version>  (99) 
48012

>  <i_f3d_flags>  (99) 
0

>  <s_epik_input>  (99) 
W0NIMl09QzFbQ0BIXShbT0hdKVtDQEhdMkMoW0NIM10pKFtDSDNdKVtDQF0oW09IXSkoW0NAQEhdM1tDQEhdKFtDSDJdW0NIMl00KUMoPVtDSDJdKVtDQEBIXTVbT0hdKUMoW09IXSkoW0NASF0oW09IXSlbQ0BASF02W0NIM10pW0NASF0zW0NASF02W0NIMl1bQ0BIXShbQ0gzXSlbQ0BASF03QzIoW0NAQEhdNFtDQEBdMTU3KVtDSDNd

>  <s_epik_cmdline>  (99) 
J2VwaWtfcHl0aG9uJywgJy1waHQnLCAnMi4wJywgJy1waCcsICc3LjAnLCAnLXRuJywgJzgnLCAnLW1hJywgJzIwMCcsICctaW1hZScsICc8aW5maWxlLm1hZT4nLCAnLW9tYWUnLCAnPG91dGZpbGUubWFlPic=

>  <r_lp_tautomer_probability>  (99) 
1

>  <r_epik_Ionization_Penalty>  (99) 
1.58808e-06

>  <r_epik_Ionization_Penalty_Charging>  (99) 
0

>  <r_epik_Ionization_Penalty_Neutral>  (99) 
1.58808e-06

>  <r_epik_State_Penalty>  (99) 
-0

>  <r_epik_Charging_Adjusted_Penalty>  (99) 
0

>  <i_epik_Tot_Q>  (99) 
0

>  <i_epik_Tot_abs_Q>  (99) 
0

>  <s_lp_Force_Field>  (99) 
OPLS3e

>  <r_lp_Energy>  (99) 
483.002

>  <b_lp_Chiralities_Consistent>  (99) 
1

>  <s_lp_Variant>  (99) 
39:0-1

>  <s_i_glide_gridfile>  (99) 
pfpi4k_grid

>  <i_i_glide_lignum>  (99) 
9

>  <i_i_glide_rotatable_bonds>  (99) 
5

>  <r_i_docking_score>  (99) 
-1.92418

>  <r_i_glide_ligand_efficiency>  (99) 
-0.0565937

>  <r_i_glide_ligand_efficiency_sa>  (99) 
-0.183342

>  <r_i_glide_ligand_efficiency_ln>  (99) 
-0.425106

>  <r_i_glide_gscore>  (99) 
-1.92418

>  <r_i_glide_lipo>  (99) 
-0.00711145

>  <r_i_glide_hbond>  (99) 
0

>  <r_i_glide_metal>  (99) 
-0

>  <r_i_glide_rewards>  (99) 
-0.200176

>  <r_i_glide_evdw>  (99) 
-21.1881

>  <r_i_glide_ecoul>  (99) 
-4.38328

>  <r_i_glide_erotb>  (99) 
0

>  <r_i_glide_esite>  (99) 
0

>  <r_i_glide_emodel>  (99) 
-28.2221

>  <r_i_glide_energy>  (99) 
-25.5714

>  <r_i_glide_einternal>  (99) 
2.1623

>  <r_i_glide_intrahb_reward>  (99) 
-0

>  <i_i_glide_confnum>  (99) 
1

>  <i_i_glide_posenum>  (99) 
14

>  <r_i_glide_eff_state_penalty>  (99) 
0

>  <ligand_id>  (99) 
39

>  <original_smiles>  (99) 
C=C1C2CCC3C4(C)C5C(C)CC6C(C)C(O)C7(O)C6C2C7(O)C(C)(C)C4C(O)C(=C)C35C1O

>  <smiles>  (99) 
[H]OC1([H])C(=C([H])[H])C23C([H])(O[H])C(=C([H])[H])C4([H])C([H])([H])C([H])([H])C2([H])C2(C([H])([H])[H])C3([H])C([H])(C([H])([H])[H])C([H])([H])C3([H])C([H])(C([H])([H])[H])C([H])(O[H])C5(O[H])C3([H])C4([H])C5(O[H])C(C([H])([H])[H])(C([H])([H])[H])C12[H]

$$$$
39:1:0
     RDKit          3D

 76 82  0  0  1  0  0  0  0  0999 V2000
    1.5707   -1.2694    5.8138 C   0  0  0  0  0  0  0  0  0  0  0  0
    1.6196   -0.1031    6.4928 C   0  0  0  0  0  0  0  0  0  0  0  0
    0.2753    0.7488    6.5998 C   0  0  1  0  0  0  0  0  0  0  0  0
    0.0110    0.9885    8.0279 C   0  0  0  0  0  0  0  0  0  0  0  0
    0.8978    2.1602    8.2790 C   0  0  0  0  0  0  0  0  0  0  0  0
    2.0906    2.4445    7.2105 C   0  0  2  0  0  0  0  0  0  0  0  0
    2.7329    3.5218    6.1325 C   0  0  2  0  0  0  0  0  0  0  0  0
    2.9486    4.2462    4.7539 C   0  0  0  0  0  0  0  0  0  0  0  0
    3.6431    2.2685    5.7622 C   0  0  2  0  0  0  0  0  0  0  0  0
    3.6408    1.4232    4.3555 C   0  0  1  0  0  0  0  0  0  0  0  0
    4.6294    0.2421    4.4009 C   0  0  0  0  0  0  0  0  0  0  0  0
    2.3784    1.0135    3.4214 C   0  0  0  0  0  0  0  0  0  0  0  0
    1.2002    2.0327    3.2030 C   0  0  1  0  0  0  0  0  0  0  0  0
   -0.1937    1.8962    2.5016 C   0  0  1  0  0  0  0  0  0  0  0  0
   -0.7879    0.4846    2.5167 C   0  0  0  0  0  0  0  0  0  0  0  0
   -1.0833    3.0091    3.2392 C   0  0  1  0  0  0  0  0  0  0  0  0
   -2.3556    2.5495    3.6776 O   0  0  0  0  0  0  0  0  0  0  0  0
   -0.1599    3.6740    4.3479 C   0  0  2  0  0  0  0  0  0  0  0  0
    0.2908    4.8180    3.6597 O   0  0  0  0  0  0  0  0  0  0  0  0
    0.7965    2.5190    4.5259 C   0  0  2  0  0  0  0  0  0  0  0  0
   -0.0518    2.1158    5.7355 C   0  0  2  0  0  0  0  0  0  0  0  0
   -0.0849    3.7569    5.9773 C   0  0  2  0  0  0  0  0  0  0  0  0
   -1.3674    4.1392    6.4343 O   0  0  0  0  0  0  0  0  0  0  0  0
    1.0196    4.8783    6.8516 C   0  0  0  0  0  0  0  0  0  0  0  0
    0.7913    6.2986    6.2275 C   0  0  0  0  0  0  0  0  0  0  0  0
    0.4370    5.2821    8.2946 C   0  0  0  0  0  0  0  0  0  0  0  0
    2.7689    4.7288    6.9358 C   0  0  2  0  0  0  0  0  0  0  0  0
    4.0917    4.1835    7.8150 C   0  0  1  0  0  0  0  0  0  0  0  0
    4.4931    4.9763    8.9326 O   0  0  0  0  0  0  0  0  0  0  0  0
    4.2816    2.5945    8.0898 C   0  0  0  0  0  0  0  0  0  0  0  0
    5.0916    2.0859    9.0336 C   0  0  0  0  0  0  0  0  0  0  0  0
    3.3560    1.7216    7.1553 C   0  0  1  0  0  0  0  0  0  0  0  0
    2.9590    0.2345    7.2832 C   0  0  1  0  0  0  0  0  0  0  0  0
    2.8376   -0.1530    8.6378 O   0  0  0  0  0  0  0  0  0  0  0  0
    2.4297   -1.9222    5.7514 H   0  0  0  0  0  0  0  0  0  0  0  0
    0.6699   -1.5850    5.3039 H   0  0  0  0  0  0  0  0  0  0  0  0
   -0.4950    0.0307    6.3062 H   0  0  0  0  0  0  0  0  0  0  0  0
   -1.0378    1.2369    8.2035 H   0  0  0  0  0  0  0  0  0  0  0  0
    0.2461    0.1239    8.6524 H   0  0  0  0  0  0  0  0  0  0  0  0
    0.1585    2.9314    8.3620 H   0  0  0  0  0  0  0  0  0  0  0  0
    1.2486    1.9956    9.3086 H   0  0  0  0  0  0  0  0  0  0  0  0
    2.2051    2.9932    8.1160 H   0  0  0  0  0  0  0  0  0  0  0  0
    2.8605    3.7098    3.8387 H   0  0  0  0  0  0  0  0  0  0  0  0
    3.9961    4.5585    4.6999 H   0  0  0  0  0  0  0  0  0  0  0  0
    2.4633    5.1887    4.6035 H   0  0  0  0  0  0  0  0  0  0  0  0
    4.6723    2.6271    5.7891 H   0  0  0  0  0  0  0  0  0  0  0  0
    4.1899    2.0841    3.6890 H   0  0  0  0  0  0  0  0  0  0  0  0
    4.1644   -0.6725    4.7584 H   0  0  0  0  0  0  0  0  0  0  0  0
    5.4938    0.4541    5.0308 H   0  0  0  0  0  0  0  0  0  0  0  0
    5.0133    0.0192    3.4054 H   0  0  0  0  0  0  0  0  0  0  0  0
    2.7779    0.7965    2.4328 H   0  0  0  0  0  0  0  0  0  0  0  0
    1.9772    0.0594    3.7369 H   0  0  0  0  0  0  0  0  0  0  0  0
    1.6303    2.8255    2.5950 H   0  0  0  0  0  0  0  0  0  0  0  0
   -0.0790    2.1458    1.4491 H   0  0  0  0  0  0  0  0  0  0  0  0
   -0.9813    0.0993    3.5218 H   0  0  0  0  0  0  0  0  0  0  0  0
   -0.1102   -0.2115    2.0148 H   0  0  0  0  0  0  0  0  0  0  0  0
   -1.7291    0.4901    1.9632 H   0  0  0  0  0  0  0  0  0  0  0  0
   -1.3602    3.7393    2.4786 H   0  0  0  0  0  0  0  0  0  0  0  0
   -2.7667    2.0470    2.9864 H   0  0  0  0  0  0  0  0  0  0  0  0
    0.3101    4.5975    2.7332 H   0  0  0  0  0  0  0  0  0  0  0  0
    0.4745    1.4907    4.5507 H   0  0  0  0  0  0  0  0  0  0  0  0
   -1.1099    1.9193    5.5374 H   0  0  0  0  0  0  0  0  0  0  0  0
   -1.4544    3.7855    7.3016 H   0  0  0  0  0  0  0  0  0  0  0  0
    1.3383    7.0725    6.7642 H   0  0  0  0  0  0  0  0  0  0  0  0
   -0.2625    6.5736    6.2452 H   0  0  0  0  0  0  0  0  0  0  0  0
    1.0915    6.4563    5.2035 H   0  0  0  0  0  0  0  0  0  0  0  0
    0.7615    6.2714    8.6159 H   0  0  0  0  0  0  0  0  0  0  0  0
    0.7706    4.6721    9.1320 H   0  0  0  0  0  0  0  0  0  0  0  0
   -0.6483    5.3349    8.3510 H   0  0  0  0  0  0  0  0  0  0  0  0
    2.5358    4.8835    7.9697 H   0  0  0  0  0  0  0  0  0  0  0  0
    4.9261    4.3863    7.1425 H   0  0  0  0  0  0  0  0  0  0  0  0
    3.8111    4.9601    9.5894 H   0  0  0  0  0  0  0  0  0  0  0  0
    5.6840    2.7328    9.6655 H   0  0  0  0  0  0  0  0  0  0  0  0
    5.1853    1.0197    9.1868 H   0  0  0  0  0  0  0  0  0  0  0  0
    3.7660   -0.3803    6.8885 H   0  0  0  0  0  0  0  0  0  0  0  0
    3.6949   -0.1162    9.0327 H   0  0  0  0  0  0  0  0  0  0  0  0
  1  2  2  0
  1 35  1  0
  1 36  1  0
  2 33  1  0
  2  3  1  0
  3 21  1  0
  3  4  1  0
  3 37  1  6
  4  5  1  0
  4 38  1  0
  4 39  1  0
  5  6  1  0
  5 40  1  0
  5 41  1  0
  6 32  1  0
  6  7  1  0
  6 42  1  6
  7 27  1  0
  7  8  1  6
  7  9  1  0
  8 43  1  0
  8 44  1  0
  8 45  1  0
  9 32  1  0
  9 10  1  0
  9 46  1  1
 10 11  1  0
 10 12  1  0
 10 47  1  6
 11 48  1  0
 11 49  1  0
 11 50  1  0
 12 13  1  0
 12 51  1  0
 12 52  1  0
 13 20  1  0
 13 14  1  0
 13 53  1  6
 14 15  1  0
 14 16  1  0
 14 54  1  6
 15 55  1  0
 15 56  1  0
 15 57  1  0
 16 17  1  0
 16 18  1  0
 16 58  1  6
 17 59  1  0
 18 22  1  0
 18 19  1  6
 18 20  1  0
 19 60  1  0
 20 21  1  0
 20 61  1  1
 21 22  1  0
 21 62  1  6
 22 23  1  1
 22 24  1  0
 23 63  1  0
 24 25  1  0
 24 26  1  0
 24 27  1  0
 25 64  1  0
 25 65  1  0
 25 66  1  0
 26 67  1  0
 26 68  1  0
 26 69  1  0
 27 28  1  0
 27 70  1  6
 28 29  1  0
 28 30  1  0
 28 71  1  6
 29 72  1  0
 30 31  2  0
 32 30  1  1
 31 73  1  0
 31 74  1  0
 32 33  1  0
 33 34  1  0
 33 75  1  6
 34 76  1  0
M  END
>  <i_m_ct_stereo_status>  (100) 
1

>  <s_m_source_file>  (100) 
/var/tmp/pbs.5076255.sched01/tmpav68hifr/35m6z7vsub.sdf

>  <i_m_source_file_index>  (100) 
10

>  <i_lp_mmshare_version>  (100) 
48012

>  <i_f3d_flags>  (100) 
0

>  <s_epik_input>  (100) 
W0NIMl09QzFbQ0BIXShbT0hdKVtDQEhdMkMoW0NIM10pKFtDSDNdKVtDQF0oW09IXSkoW0NAQEhdM1tDQEhdKFtDSDJdW0NIMl00KUMoPVtDSDJdKVtDQEBIXTVbT0hdKUMoW09IXSkoW0NASF0oW09IXSlbQ0BASF02W0NIM10pW0NASF0zW0NASF02W0NIMl1bQ0BIXShbQ0gzXSlbQ0BASF03QzIoW0NAQEhdNFtDQEBdMTU3KVtDSDNd

>  <s_epik_cmdline>  (100) 
J2VwaWtfcHl0aG9uJywgJy1waHQnLCAnMi4wJywgJy1waCcsICc3LjAnLCAnLXRuJywgJzgnLCAnLW1hJywgJzIwMCcsICctaW1hZScsICc8aW5maWxlLm1hZT4nLCAnLW9tYWUnLCAnPG91dGZpbGUubWFlPic=

>  <r_lp_tautomer_probability>  (100) 
1

>  <r_epik_Ionization_Penalty>  (100) 
1.58808e-06

>  <r_epik_Ionization_Penalty_Charging>  (100) 
0

>  <r_epik_Ionization_Penalty_Neutral>  (100) 
1.58808e-06

>  <r_epik_State_Penalty>  (100) 
-0

>  <r_epik_Charging_Adjusted_Penalty>  (100) 
0

>  <i_epik_Tot_Q>  (100) 
0

>  <i_epik_Tot_abs_Q>  (100) 
0

>  <s_lp_Force_Field>  (100) 
OPLS3e

>  <r_lp_Energy>  (100) 
638.12

>  <b_lp_Chiralities_Consistent>  (100) 
1

>  <s_lp_Variant>  (100) 
39:0-2

>  <s_i_glide_gridfile>  (100) 
pfpi4k_grid

>  <i_i_glide_lignum>  (100) 
10

>  <i_i_glide_rotatable_bonds>  (100) 
5

>  <r_i_docking_score>  (100) 
-2.17566

>  <r_i_glide_ligand_efficiency>  (100) 
-0.0639899

>  <r_i_glide_ligand_efficiency_sa>  (100) 
-0.207303

>  <r_i_glide_ligand_efficiency_ln>  (100) 
-0.480664

>  <r_i_glide_gscore>  (100) 
-2.17566

>  <r_i_glide_lipo>  (100) 
-0.0525384

>  <r_i_glide_hbond>  (100) 
0

>  <r_i_glide_metal>  (100) 
-0

>  <r_i_glide_rewards>  (100) 
-0.200176

>  <r_i_glide_evdw>  (100) 
-16.6619

>  <r_i_glide_ecoul>  (100) 
-7.26565

>  <r_i_glide_erotb>  (100) 
0

>  <r_i_glide_esite>  (100) 
0

>  <r_i_glide_emodel>  (100) 
-26.275

>  <r_i_glide_energy>  (100) 
-23.9276

>  <r_i_glide_einternal>  (100) 
2.03488

>  <r_i_glide_intrahb_reward>  (100) 
-0

>  <i_i_glide_confnum>  (100) 
2

>  <i_i_glide_posenum>  (100) 
8

>  <r_i_glide_eff_state_penalty>  (100) 
0

>  <ligand_id>  (100) 
39

>  <original_smiles>  (100) 
C=C1C2CCC3C4(C)C5C(C)CC6C(C)C(O)C7(O)C6C2C7(O)C(C)(C)C4C(O)C(=C)C35C1O

>  <smiles>  (100) 
[H]OC1([H])C(=C([H])[H])C23C([H])(O[H])C(=C([H])[H])C4([H])C([H])([H])C([H])([H])C2([H])C2(C([H])([H])[H])C3([H])C([H])(C([H])([H])[H])C([H])([H])C3([H])C([H])(C([H])([H])[H])C([H])(O[H])C5(O[H])C3([H])C4([H])C5(O[H])C(C([H])([H])[H])(C([H])([H])[H])C12[H]

$$$$
39:1:1
     RDKit          3D

 76 82  0  0  1  0  0  0  0  0999 V2000
   -0.7539    1.2044    2.5769 C   0  0  0  0  0  0  0  0  0  0  0  0
   -0.3133    1.8910    3.6560 C   0  0  0  0  0  0  0  0  0  0  0  0
    1.2178    2.3249    3.6696 C   0  0  1  0  0  0  0  0  0  0  0  0
    1.2739    3.7821    3.8527 C   0  0  0  0  0  0  0  0  0  0  0  0
    1.1204    3.8773    5.3311 C   0  0  0  0  0  0  0  0  0  0  0  0
    0.5147    2.5862    6.1069 C   0  0  2  0  0  0  0  0  0  0  0  0
    0.7744    1.4393    7.2654 C   0  0  2  0  0  0  0  0  0  0  0  0
    1.2679    0.0784    7.8814 C   0  0  0  0  0  0  0  0  0  0  0  0
   -0.5566    0.8198    6.6563 C   0  0  2  0  0  0  0  0  0  0  0  0
   -0.7208   -0.5857    5.8305 C   0  0  1  0  0  0  0  0  0  0  0  0
   -2.1698   -0.7894    5.3584 C   0  0  0  0  0  0  0  0  0  0  0  0
    0.2817   -1.2254    4.7323 C   0  0  0  0  0  0  0  0  0  0  0  0
    1.8355   -1.1411    4.9437 C   0  0  1  0  0  0  0  0  0  0  0  0
    3.0468   -1.5267    4.0269 C   0  0  1  0  0  0  0  0  0  0  0  0
    2.7718   -1.4436    2.5076 C   0  0  0  0  0  0  0  0  0  0  0  0
    4.2184   -0.5726    4.5744 C   0  0  1  0  0  0  0  0  0  0  0  0
    4.9529    0.1002    3.5749 O   0  0  0  0  0  0  0  0  0  0  0  0
    3.5904    0.3260    5.7170 C   0  0  2  0  0  0  0  0  0  0  0  0
    3.9517   -0.4137    6.8423 O   0  0  0  0  0  0  0  0  0  0  0  0
    2.1529    0.2492    5.2556 C   0  0  2  0  0  0  0  0  0  0  0  0
    2.3838    1.5969    4.5762 C   0  0  2  0  0  0  0  0  0  0  0  0
    3.2344    1.9061    5.9618 C   0  0  2  0  0  0  0  0  0  0  0  0
    4.3841    2.6659    5.6685 O   0  0  0  0  0  0  0  0  0  0  0  0
    2.7576    2.5566    7.5736 C   0  0  0  0  0  0  0  0  0  0  0  0
    3.8358    2.0548    8.5940 C   0  0  0  0  0  0  0  0  0  0  0  0
    3.1594    4.1095    7.7303 C   0  0  0  0  0  0  0  0  0  0  0  0
    1.2281    2.2511    8.3800 C   0  0  2  0  0  0  0  0  0  0  0  0
   -0.3230    2.7935    8.6919 C   0  0  1  0  0  0  0  0  0  0  0  0
   -0.4479    3.8395    9.6497 O   0  0  0  0  0  0  0  0  0  0  0  0
   -1.3825    2.9616    7.4755 C   0  0  0  0  0  0  0  0  0  0  0  0
   -2.5111    3.6788    7.5553 C   0  0  0  0  0  0  0  0  0  0  0  0
   -0.8952    2.2213    6.1643 C   0  0  1  0  0  0  0  0  0  0  0  0
   -1.3970    2.3891    4.7138 C   0  0  1  0  0  0  0  0  0  0  0  0
   -1.7829    3.7129    4.4090 O   0  0  0  0  0  0  0  0  0  0  0  0
   -1.7845    0.9349    2.4673 H   0  0  0  0  0  0  0  0  0  0  0  0
   -0.0824    0.9000    1.7886 H   0  0  0  0  0  0  0  0  0  0  0  0
    1.5233    2.1854    2.6301 H   0  0  0  0  0  0  0  0  0  0  0  0
    2.2330    4.1846    3.5201 H   0  0  0  0  0  0  0  0  0  0  0  0
    0.4998    4.3068    3.2878 H   0  0  0  0  0  0  0  0  0  0  0  0
    2.1215    4.1457    5.6000 H   0  0  0  0  0  0  0  0  0  0  0  0
    0.5352    4.7940    5.4711 H   0  0  0  0  0  0  0  0  0  0  0  0
    0.5145    3.4594    6.7235 H   0  0  0  0  0  0  0  0  0  0  0  0
    1.2437   -0.8189    7.2999 H   0  0  0  0  0  0  0  0  0  0  0  0
    0.5900   -0.1989    8.6923 H   0  0  0  0  0  0  0  0  0  0  0  0
    2.2005    0.0668    8.4054 H   0  0  0  0  0  0  0  0  0  0  0  0
   -1.2153    0.6493    7.5100 H   0  0  0  0  0  0  0  0  0  0  0  0
   -0.6803   -1.3365    6.6188 H   0  0  0  0  0  0  0  0  0  0  0  0
   -2.3375   -0.3745    4.3705 H   0  0  0  0  0  0  0  0  0  0  0  0
   -2.8877   -0.3299    6.0342 H   0  0  0  0  0  0  0  0  0  0  0  0
   -2.4113   -1.8493    5.2882 H   0  0  0  0  0  0  0  0  0  0  0  0
    0.0417   -2.2865    4.6704 H   0  0  0  0  0  0  0  0  0  0  0  0
    0.0341   -0.8656    3.7423 H   0  0  0  0  0  0  0  0  0  0  0  0
    2.0337   -1.7942    5.7876 H   0  0  0  0  0  0  0  0  0  0  0  0
    3.3163   -2.5633    4.2317 H   0  0  0  0  0  0  0  0  0  0  0  0
    2.5164   -0.4351    2.1755 H   0  0  0  0  0  0  0  0  0  0  0  0
    1.9437   -2.1022    2.2313 H   0  0  0  0  0  0  0  0  0  0  0  0
    3.6440   -1.7713    1.9382 H   0  0  0  0  0  0  0  0  0  0  0  0
    4.9803   -1.2427    4.9875 H   0  0  0  0  0  0  0  0  0  0  0  0
    4.3859    0.7366    3.1578 H   0  0  0  0  0  0  0  0  0  0  0  0
    4.8877   -0.3084    6.9390 H   0  0  0  0  0  0  0  0  0  0  0  0
    1.8732    0.3180    4.2199 H   0  0  0  0  0  0  0  0  0  0  0  0
    3.1955    1.6319    3.8340 H   0  0  0  0  0  0  0  0  0  0  0  0
    4.5459    2.5647    4.7416 H   0  0  0  0  0  0  0  0  0  0  0  0
    3.6922    2.4891    9.5831 H   0  0  0  0  0  0  0  0  0  0  0  0
    4.8454    2.3110    8.2717 H   0  0  0  0  0  0  0  0  0  0  0  0
    3.8815    0.9947    8.7986 H   0  0  0  0  0  0  0  0  0  0  0  0
    3.3613    4.3893    8.7638 H   0  0  0  0  0  0  0  0  0  0  0  0
    2.3899    4.8289    7.4612 H   0  0  0  0  0  0  0  0  0  0  0  0
    4.0633    4.4043    7.2022 H   0  0  0  0  0  0  0  0  0  0  0  0
    1.2948    3.3155    8.4704 H   0  0  0  0  0  0  0  0  0  0  0  0
   -0.7699    1.9695    9.2474 H   0  0  0  0  0  0  0  0  0  0  0  0
   -0.4615    3.4522   10.5171 H   0  0  0  0  0  0  0  0  0  0  0  0
   -2.7952    4.2028    8.4647 H   0  0  0  0  0  0  0  0  0  0  0  0
   -3.1711    3.7580    6.7012 H   0  0  0  0  0  0  0  0  0  0  0  0
   -2.3067    1.8036    4.5759 H   0  0  0  0  0  0  0  0  0  0  0  0
   -1.6786    3.7999    3.4695 H   0  0  0  0  0  0  0  0  0  0  0  0
  1  2  2  0
  1 35  1  0
  1 36  1  0
  2 33  1  0
  2  3  1  0
  3 21  1  0
  3  4  1  0
  3 37  1  6
  4  5  1  0
  4 38  1  0
  4 39  1  0
  5  6  1  0
  5 40  1  0
  5 41  1  0
  6 32  1  0
  6  7  1  0
  6 42  1  6
  7 27  1  0
  7  8  1  6
  7  9  1  0
  8 43  1  0
  8 44  1  0
  8 45  1  0
  9 32  1  0
  9 10  1  0
  9 46  1  1
 10 11  1  0
 10 12  1  0
 10 47  1  1
 11 48  1  0
 11 49  1  0
 11 50  1  0
 12 13  1  0
 12 51  1  0
 12 52  1  0
 13 20  1  0
 13 14  1  0
 13 53  1  1
 14 15  1  0
 14 16  1  0
 14 54  1  1
 15 55  1  0
 15 56  1  0
 15 57  1  0
 16 17  1  0
 16 18  1  0
 16 58  1  1
 17 59  1  0
 18 22  1  0
 18 19  1  1
 18 20  1  0
 19 60  1  0
 20 21  1  0
 20 61  1  1
 21 22  1  0
 21 62  1  6
 22 23  1  6
 22 24  1  0
 23 63  1  0
 24 25  1  0
 24 26  1  0
 24 27  1  0
 25 64  1  0
 25 65  1  0
 25 66  1  0
 26 67  1  0
 26 68  1  0
 26 69  1  0
 27 28  1  0
 27 70  1  1
 28 29  1  0
 28 30  1  0
 28 71  1  1
 29 72  1  0
 30 31  2  0
 32 30  1  1
 31 73  1  0
 31 74  1  0
 32 33  1  0
 33 34  1  0
 33 75  1  1
 34 76  1  0
M  END
>  <i_m_ct_stereo_status>  (101) 
1

>  <s_m_source_file>  (101) 
/var/tmp/pbs.5076255.sched01/tmpav68hifr/35m6z7vsub.sdf

>  <i_m_source_file_index>  (101) 
10

>  <i_lp_mmshare_version>  (101) 
48012

>  <i_f3d_flags>  (101) 
0

>  <s_epik_input>  (101) 
W0NIMl09QzFbQ0BIXShbT0hdKVtDQEhdMkMoW0NIM10pKFtDSDNdKVtDQF0oW09IXSkoW0NAQEhdM1tDQEhdKFtDSDJdW0NIMl00KUMoPVtDSDJdKVtDQEBIXTVbT0hdKUMoW09IXSkoW0NASF0oW09IXSlbQ0BASF02W0NIM10pW0NASF0zW0NASF02W0NIMl1bQ0BIXShbQ0gzXSlbQ0BASF03QzIoW0NAQEhdNFtDQEBdMTU3KVtDSDNd

>  <s_epik_cmdline>  (101) 
J2VwaWtfcHl0aG9uJywgJy1waHQnLCAnMi4wJywgJy1waCcsICc3LjAnLCAnLXRuJywgJzgnLCAnLW1hJywgJzIwMCcsICctaW1hZScsICc8aW5maWxlLm1hZT4nLCAnLW9tYWUnLCAnPG91dGZpbGUubWFlPic=

>  <r_lp_tautomer_probability>  (101) 
1

>  <r_epik_Ionization_Penalty>  (101) 
1.58808e-06

>  <r_epik_Ionization_Penalty_Charging>  (101) 
0

>  <r_epik_Ionization_Penalty_Neutral>  (101) 
1.58808e-06

>  <r_epik_State_Penalty>  (101) 
-0

>  <r_epik_Charging_Adjusted_Penalty>  (101) 
0

>  <i_epik_Tot_Q>  (101) 
0

>  <i_epik_Tot_abs_Q>  (101) 
0

>  <s_lp_Force_Field>  (101) 
OPLS3e

>  <r_lp_Energy>  (101) 
638.12

>  <b_lp_Chiralities_Consistent>  (101) 
1

>  <s_lp_Variant>  (101) 
39:0-2

>  <s_i_glide_gridfile>  (101) 
pfpi4k_grid

>  <i_i_glide_lignum>  (101) 
10

>  <i_i_glide_rotatable_bonds>  (101) 
5

>  <r_i_docking_score>  (101) 
-1.8949

>  <r_i_glide_ligand_efficiency>  (101) 
-0.0557323

>  <r_i_glide_ligand_efficiency_sa>  (101) 
-0.180551

>  <r_i_glide_ligand_efficiency_ln>  (101) 
-0.418636

>  <r_i_glide_gscore>  (101) 
-1.8949

>  <r_i_glide_lipo>  (101) 
-0.121524

>  <r_i_glide_hbond>  (101) 
0

>  <r_i_glide_metal>  (101) 
-0

>  <r_i_glide_rewards>  (101) 
-0.200176

>  <r_i_glide_evdw>  (101) 
-20.3433

>  <r_i_glide_ecoul>  (101) 
-3.70688

>  <r_i_glide_erotb>  (101) 
0

>  <r_i_glide_esite>  (101) 
0

>  <r_i_glide_emodel>  (101) 
-25.8555

>  <r_i_glide_energy>  (101) 
-24.0502

>  <r_i_glide_einternal>  (101) 
2.13719

>  <r_i_glide_intrahb_reward>  (101) 
-0

>  <i_i_glide_confnum>  (101) 
1

>  <i_i_glide_posenum>  (101) 
22

>  <r_i_glide_eff_state_penalty>  (101) 
0

>  <ligand_id>  (101) 
39

>  <original_smiles>  (101) 
C=C1C2CCC3C4(C)C5C(C)CC6C(C)C(O)C7(O)C6C2C7(O)C(C)(C)C4C(O)C(=C)C35C1O

>  <smiles>  (101) 
[H]OC1([H])C(=C([H])[H])C23C([H])(O[H])C(=C([H])[H])C4([H])C([H])([H])C([H])([H])C2([H])C2(C([H])([H])[H])C3([H])C([H])(C([H])([H])[H])C([H])([H])C3([H])C([H])(C([H])([H])[H])C([H])(O[H])C5(O[H])C3([H])C4([H])C5(O[H])C(C([H])([H])[H])(C([H])([H])[H])C12[H]

$$$$
39:1:2
     RDKit          3D

 76 82  0  0  1  0  0  0  0  0999 V2000
   -0.4411    1.2148    2.3270 C   0  0  0  0  0  0  0  0  0  0  0  0
   -0.0575    1.9040    3.4272 C   0  0  0  0  0  0  0  0  0  0  0  0
    1.4717    2.3406    3.5304 C   0  0  1  0  0  0  0  0  0  0  0  0
    1.5128    3.7984    3.7188 C   0  0  0  0  0  0  0  0  0  0  0  0
    1.2723    3.8915    5.1858 C   0  0  0  0  0  0  0  0  0  0  0  0
    0.6260    2.5979    5.9229 C   0  0  2  0  0  0  0  0  0  0  0  0
    0.8223    1.4511    7.0940 C   0  0  2  0  0  0  0  0  0  0  0  0
    1.2811    0.0902    7.7355 C   0  0  0  0  0  0  0  0  0  0  0  0
   -0.4696    0.8310    6.4069 C   0  0  2  0  0  0  0  0  0  0  0  0
   -0.5803   -0.5721    5.5722 C   0  0  1  0  0  0  0  0  0  0  0  0
   -1.9962   -0.7808    5.0189 C   0  0  0  0  0  0  0  0  0  0  0  0
    0.4859   -1.2104    4.5333 C   0  0  0  0  0  0  0  0  0  0  0  0
    2.0246   -1.1236    4.8348 C   0  0  1  0  0  0  0  0  0  0  0  0
    3.2885   -1.5069    3.9912 C   0  0  1  0  0  0  0  0  0  0  0  0
    3.1032   -1.4212    2.4585 C   0  0  0  0  0  0  0  0  0  0  0  0
    4.4234   -0.5512    4.6062 C   0  0  1  0  0  0  0  0  0  0  0  0
    5.2089    0.1230    3.6484 O   0  0  0  0  0  0  0  0  0  0  0  0
    3.7243    0.3482    5.7116 C   0  0  2  0  0  0  0  0  0  0  0  0
    4.0231   -0.3932    6.8568 O   0  0  0  0  0  0  0  0  0  0  0  0
    2.3181    0.2677    5.1667 C   0  0  2  0  0  0  0  0  0  0  0  0
    2.5877    1.6163    4.5033 C   0  0  2  0  0  0  0  0  0  0  0  0
    3.3527    1.9277    5.9393 C   0  0  2  0  0  0  0  0  0  0  0  0
    4.5167    2.6910    5.7120 O   0  0  0  0  0  0  0  0  0  0  0  0
    2.7788    2.5748    7.5193 C   0  0  0  0  0  0  0  0  0  0  0  0
    3.7960    2.0738    8.6007 C   0  0  0  0  0  0  0  0  0  0  0  0
    3.1651    4.1287    7.7020 C   0  0  0  0  0  0  0  0  0  0  0  0
    1.2062    2.2626    8.2338 C   0  0  2  0  0  0  0  0  0  0  0  0
   -0.3622    2.7995    8.4547 C   0  0  1  0  0  0  0  0  0  0  0  0
   -0.5468    3.8454    9.4028 O   0  0  0  0  0  0  0  0  0  0  0  0
   -1.3484    2.9652    7.1793 C   0  0  0  0  0  0  0  0  0  0  0  0
   -2.4832    3.6757    7.1962 C   0  0  0  0  0  0  0  0  0  0  0  0
   -0.7845    2.2312    5.8972 C   0  0  1  0  0  0  0  0  0  0  0  0
   -1.2027    2.3990    4.4196 C   0  0  1  0  0  0  0  0  0  0  0  0
   -1.5776    3.7212    4.0904 O   0  0  0  0  0  0  0  0  0  0  0  0
   -1.4726    0.9472    2.1574 H   0  0  0  0  0  0  0  0  0  0  0  0
    0.2760    0.9118    1.5765 H   0  0  0  0  0  0  0  0  0  0  0  0
    1.8382    2.2025    2.5102 H   0  0  0  0  0  0  0  0  0  0  0  0
    2.4876    4.2049    3.4427 H   0  0  0  0  0  0  0  0  0  0  0  0
    0.7699    4.3226    3.1138 H   0  0  0  0  0  0  0  0  0  0  0  0
    2.2546    4.1645    5.5137 H   0  0  0  0  0  0  0  0  0  0  0  0
    0.6757    4.8062    5.2911 H   0  0  0  0  0  0  0  0  0  0  0  0
    0.5879    3.4708    6.5378 H   0  0  0  0  0  0  0  0  0  0  0  0
    1.2934   -0.8052    7.1522 H   0  0  0  0  0  0  0  0  0  0  0  0
    0.5573   -0.1891    8.5050 H   0  0  0  0  0  0  0  0  0  0  0  0
    2.1814    0.0811    8.3127 H   0  0  0  0  0  0  0  0  0  0  0  0
   -1.1784    0.6547    7.2183 H   0  0  0  0  0  0  0  0  0  0  0  0
   -0.5877   -1.3239    6.3611 H   0  0  0  0  0  0  0  0  0  0  0  0
   -2.1171   -0.3673    4.0235 H   0  0  0  0  0  0  0  0  0  0  0  0
   -2.7608   -0.3423    5.6549 H   0  0  0  0  0  0  0  0  0  0  0  0
   -2.1985   -1.8454    4.9444 H   0  0  0  0  0  0  0  0  0  0  0  0
    0.2515   -2.2717    4.4563 H   0  0  0  0  0  0  0  0  0  0  0  0
    0.2948   -0.8507    3.5308 H   0  0  0  0  0  0  0  0  0  0  0  0
    2.1731   -1.7765    5.6892 H   0  0  0  0  0  0  0  0  0  0  0  0
    3.5441   -2.5432    4.2099 H   0  0  0  0  0  0  0  0  0  0  0  0
    2.8669   -0.4109    2.1164 H   0  0  0  0  0  0  0  0  0  0  0  0
    2.2922   -2.0783    2.1326 H   0  0  0  0  0  0  0  0  0  0  0  0
    4.0049   -1.7468    1.9369 H   0  0  0  0  0  0  0  0  0  0  0  0
    5.1588   -1.2172    5.0662 H   0  0  0  0  0  0  0  0  0  0  0  0
    5.6124   -0.5121    3.0682 H   0  0  0  0  0  0  0  0  0  0  0  0
    4.9467   -0.2612    7.0174 H   0  0  0  0  0  0  0  0  0  0  0  0
    2.1015    0.3354    4.1161 H   0  0  0  0  0  0  0  0  0  0  0  0
    3.4430    1.6484    3.8091 H   0  0  0  0  0  0  0  0  0  0  0  0
    4.5389    2.8650    4.7818 H   0  0  0  0  0  0  0  0  0  0  0  0
    3.5938    2.5062    9.5803 H   0  0  0  0  0  0  0  0  0  0  0  0
    4.8218    2.3333    8.3378 H   0  0  0  0  0  0  0  0  0  0  0  0
    3.8330    1.0135    8.8051 H   0  0  0  0  0  0  0  0  0  0  0  0
    3.3047    4.4070    8.7460 H   0  0  0  0  0  0  0  0  0  0  0  0
    2.4104    4.8460    7.3886 H   0  0  0  0  0  0  0  0  0  0  0  0
    4.0978    4.4279    7.2296 H   0  0  0  0  0  0  0  0  0  0  0  0
    1.2633    3.3271    8.3285 H   0  0  0  0  0  0  0  0  0  0  0  0
   -0.8382    1.9733    8.9826 H   0  0  0  0  0  0  0  0  0  0  0  0
   -0.5659    3.4630   10.2719 H   0  0  0  0  0  0  0  0  0  0  0  0
   -2.8187    4.1969    8.0887 H   0  0  0  0  0  0  0  0  0  0  0  0
   -3.0936    3.7573    6.3060 H   0  0  0  0  0  0  0  0  0  0  0  0
   -2.1018    1.8107    4.2314 H   0  0  0  0  0  0  0  0  0  0  0  0
   -1.4212    3.8142    3.1574 H   0  0  0  0  0  0  0  0  0  0  0  0
  1  2  2  0
  1 35  1  0
  1 36  1  0
  2 33  1  0
  2  3  1  0
  3 21  1  0
  3  4  1  0
  3 37  1  6
  4  5  1  0
  4 38  1  0
  4 39  1  0
  5  6  1  0
  5 40  1  0
  5 41  1  0
  6 32  1  0
  6  7  1  0
  6 42  1  6
  7 27  1  0
  7  8  1  6
  7  9  1  0
  8 43  1  0
  8 44  1  0
  8 45  1  0
  9 32  1  0
  9 10  1  0
  9 46  1  1
 10 11  1  0
 10 12  1  0
 10 47  1  1
 11 48  1  0
 11 49  1  0
 11 50  1  0
 12 13  1  0
 12 51  1  0
 12 52  1  0
 13 20  1  0
 13 14  1  0
 13 53  1  1
 14 15  1  0
 14 16  1  0
 14 54  1  6
 15 55  1  0
 15 56  1  0
 15 57  1  0
 16 17  1  0
 16 18  1  0
 16 58  1  1
 17 59  1  0
 18 22  1  0
 18 19  1  1
 18 20  1  0
 19 60  1  0
 20 21  1  0
 20 61  1  1
 21 22  1  0
 21 62  1  6
 22 23  1  6
 22 24  1  0
 23 63  1  0
 24 25  1  0
 24 26  1  0
 24 27  1  0
 25 64  1  0
 25 65  1  0
 25 66  1  0
 26 67  1  0
 26 68  1  0
 26 69  1  0
 27 28  1  0
 27 70  1  1
 28 29  1  0
 28 30  1  0
 28 71  1  1
 29 72  1  0
 30 31  2  0
 32 30  1  1
 31 73  1  0
 31 74  1  0
 32 33  1  0
 33 34  1  0
 33 75  1  1
 34 76  1  0
M  END
>  <i_m_ct_stereo_status>  (102) 
1

>  <s_m_source_file>  (102) 
/var/tmp/pbs.5076255.sched01/tmpav68hifr/35m6z7vsub.sdf

>  <i_m_source_file_index>  (102) 
10

>  <i_lp_mmshare_version>  (102) 
48012

>  <i_f3d_flags>  (102) 
0

>  <s_epik_input>  (102) 
W0NIMl09QzFbQ0BIXShbT0hdKVtDQEhdMkMoW0NIM10pKFtDSDNdKVtDQF0oW09IXSkoW0NAQEhdM1tDQEhdKFtDSDJdW0NIMl00KUMoPVtDSDJdKVtDQEBIXTVbT0hdKUMoW09IXSkoW0NASF0oW09IXSlbQ0BASF02W0NIM10pW0NASF0zW0NASF02W0NIMl1bQ0BIXShbQ0gzXSlbQ0BASF03QzIoW0NAQEhdNFtDQEBdMTU3KVtDSDNd

>  <s_epik_cmdline>  (102) 
J2VwaWtfcHl0aG9uJywgJy1waHQnLCAnMi4wJywgJy1waCcsICc3LjAnLCAnLXRuJywgJzgnLCAnLW1hJywgJzIwMCcsICctaW1hZScsICc8aW5maWxlLm1hZT4nLCAnLW9tYWUnLCAnPG91dGZpbGUubWFlPic=

>  <r_lp_tautomer_probability>  (102) 
1

>  <r_epik_Ionization_Penalty>  (102) 
1.58808e-06

>  <r_epik_Ionization_Penalty_Charging>  (102) 
0

>  <r_epik_Ionization_Penalty_Neutral>  (102) 
1.58808e-06

>  <r_epik_State_Penalty>  (102) 
-0

>  <r_epik_Charging_Adjusted_Penalty>  (102) 
0

>  <i_epik_Tot_Q>  (102) 
0

>  <i_epik_Tot_abs_Q>  (102) 
0

>  <s_lp_Force_Field>  (102) 
OPLS3e

>  <r_lp_Energy>  (102) 
638.12

>  <b_lp_Chiralities_Consistent>  (102) 
1

>  <s_lp_Variant>  (102) 
39:0-2

>  <s_i_glide_gridfile>  (102) 
pfpi4k_grid

>  <i_i_glide_lignum>  (102) 
10

>  <i_i_glide_rotatable_bonds>  (102) 
5

>  <r_i_docking_score>  (102) 
-1.8252

>  <r_i_glide_ligand_efficiency>  (102) 
-0.0536823

>  <r_i_glide_ligand_efficiency_sa>  (102) 
-0.17391

>  <r_i_glide_ligand_efficiency_ln>  (102) 
-0.403237

>  <r_i_glide_gscore>  (102) 
-1.8252

>  <r_i_glide_lipo>  (102) 
-0.142822

>  <r_i_glide_hbond>  (102) 
0

>  <r_i_glide_metal>  (102) 
-0

>  <r_i_glide_rewards>  (102) 
-0.200176

>  <r_i_glide_evdw>  (102) 
-19.9839

>  <r_i_glide_ecoul>  (102) 
-3.22003

>  <r_i_glide_erotb>  (102) 
0

>  <r_i_glide_esite>  (102) 
0

>  <r_i_glide_emodel>  (102) 
-24.6527

>  <r_i_glide_energy>  (102) 
-23.2039

>  <r_i_glide_einternal>  (102) 
2.67348

>  <r_i_glide_intrahb_reward>  (102) 
-0

>  <i_i_glide_confnum>  (102) 
1

>  <i_i_glide_posenum>  (102) 
16

>  <r_i_glide_eff_state_penalty>  (102) 
0

>  <ligand_id>  (102) 
39

>  <original_smiles>  (102) 
C=C1C2CCC3C4(C)C5C(C)CC6C(C)C(O)C7(O)C6C2C7(O)C(C)(C)C4C(O)C(=C)C35C1O

>  <smiles>  (102) 
[H]OC1([H])C(=C([H])[H])C23C([H])(O[H])C(=C([H])[H])C4([H])C([H])([H])C([H])([H])C2([H])C2(C([H])([H])[H])C3([H])C([H])(C([H])([H])[H])C([H])([H])C3([H])C([H])(C([H])([H])[H])C([H])(O[H])C5(O[H])C3([H])C4([H])C5(O[H])C(C([H])([H])[H])(C([H])([H])[H])C12[H]

$$$$
39:2:0
     RDKit          3D

 76 82  0  0  1  0  0  0  0  0999 V2000
    7.1863   -6.8400    4.3786 C   0  0  0  0  0  0  0  0  0  0  0  0
    5.8419   -6.7231    4.3789 C   0  0  0  0  0  0  0  0  0  0  0  0
    5.0053   -7.3419    5.6181 C   0  0  1  0  0  0  0  0  0  0  0  0
    4.3154   -6.1010    6.2506 C   0  0  0  0  0  0  0  0  0  0  0  0
    3.3884   -5.2369    5.3323 C   0  0  0  0  0  0  0  0  0  0  0  0
    2.7671   -5.9361    4.0646 C   0  0  2  0  0  0  0  0  0  0  0  0
    2.3447   -7.3969    4.1703 C   0  0  2  0  0  0  0  0  0  0  0  0
    1.6756   -7.2884    5.6147 C   0  0  0  0  0  0  0  0  0  0  0  0
    3.8122   -7.7736    3.3579 C   0  0  1  0  0  0  0  0  0  0  0  0
    4.5814   -8.6439    2.1652 C   0  0  1  0  0  0  0  0  0  0  0  0
    5.2782   -7.9970    0.9312 C   0  0  0  0  0  0  0  0  0  0  0  0
    5.6611   -9.6395    2.6955 C   0  0  0  0  0  0  0  0  0  0  0  0
    5.0586  -10.5700    3.7171 C   0  0  1  0  0  0  0  0  0  0  0  0
    5.1072  -12.0935    3.6986 C   0  0  1  0  0  0  0  0  0  0  0  0
    6.5155  -12.6486    4.0042 C   0  0  0  0  0  0  0  0  0  0  0  0
    3.9985  -12.3691    4.7751 C   0  0  1  0  0  0  0  0  0  0  0  0
    4.2464  -13.5808    5.4813 O   0  0  0  0  0  0  0  0  0  0  0  0
    3.8705  -11.0648    5.6457 C   0  0  1  0  0  0  0  0  0  0  0  0
    4.0313  -11.4681    7.0063 O   0  0  0  0  0  0  0  0  0  0  0  0
    4.9892  -10.1505    5.1615 C   0  0  2  0  0  0  0  0  0  0  0  0
    4.2801   -8.9107    5.7032 C   0  0  2  0  0  0  0  0  0  0  0  0
    2.8482   -9.8139    5.4048 C   0  0  2  0  0  0  0  0  0  0  0  0
    2.0372   -9.8555    6.5795 O   0  0  0  0  0  0  0  0  0  0  0  0
    1.5984   -9.6819    4.1326 C   0  0  0  0  0  0  0  0  0  0  0  0
    1.6408  -10.6870    2.9266 C   0  0  0  0  0  0  0  0  0  0  0  0
    0.2193  -10.1780    4.6889 C   0  0  0  0  0  0  0  0  0  0  0  0
    1.3082   -8.1593    3.4510 C   0  0  2  0  0  0  0  0  0  0  0  0
    1.5682   -7.6793    1.9123 C   0  0  1  0  0  0  0  0  0  0  0  0
    0.3455   -7.3237    1.2877 O   0  0  0  0  0  0  0  0  0  0  0  0
    2.6717   -6.5215    1.7167 C   0  0  0  0  0  0  0  0  0  0  0  0
    2.6928   -5.6839    0.6646 C   0  0  0  0  0  0  0  0  0  0  0  0
    3.6463   -6.3814    2.9401 C   0  0  1  0  0  0  0  0  0  0  0  0
    5.1479   -5.9436    3.1401 C   0  0  1  0  0  0  0  0  0  0  0  0
    5.3276   -4.5462    3.1979 O   0  0  0  0  0  0  0  0  0  0  0  0
    7.7795   -6.4347    3.5731 H   0  0  0  0  0  0  0  0  0  0  0  0
    7.7124   -7.3486    5.1746 H   0  0  0  0  0  0  0  0  0  0  0  0
    5.8144   -7.4883    6.3341 H   0  0  0  0  0  0  0  0  0  0  0  0
    3.8417   -6.3545    7.1963 H   0  0  0  0  0  0  0  0  0  0  0  0
    5.1125   -5.4276    6.5680 H   0  0  0  0  0  0  0  0  0  0  0  0
    2.6057   -4.8165    5.9618 H   0  0  0  0  0  0  0  0  0  0  0  0
    3.8973   -4.3145    5.0722 H   0  0  0  0  0  0  0  0  0  0  0  0
    1.9450   -5.3256    3.6844 H   0  0  0  0  0  0  0  0  0  0  0  0
    0.8047   -7.8990    5.7835 H   0  0  0  0  0  0  0  0  0  0  0  0
    1.1753   -6.3349    5.7747 H   0  0  0  0  0  0  0  0  0  0  0  0
    2.3040   -7.4697    6.4725 H   0  0  0  0  0  0  0  0  0  0  0  0
    3.3211   -8.6662    3.2542 H   0  0  0  0  0  0  0  0  0  0  0  0
    3.8720   -9.2517    1.6004 H   0  0  0  0  0  0  0  0  0  0  0  0
    6.3164   -7.7353    1.1323 H   0  0  0  0  0  0  0  0  0  0  0  0
    4.7959   -7.1343    0.4932 H   0  0  0  0  0  0  0  0  0  0  0  0
    5.3237   -8.7262    0.1261 H   0  0  0  0  0  0  0  0  0  0  0  0
    6.0408  -10.2399    1.8690 H   0  0  0  0  0  0  0  0  0  0  0  0
    6.5171   -9.1245    3.1219 H   0  0  0  0  0  0  0  0  0  0  0  0
    4.0660  -10.5379    3.3435 H   0  0  0  0  0  0  0  0  0  0  0  0
    4.7924  -12.4804    2.7284 H   0  0  0  0  0  0  0  0  0  0  0  0
    6.8715  -12.3651    4.9957 H   0  0  0  0  0  0  0  0  0  0  0  0
    7.2415  -12.2878    3.2735 H   0  0  0  0  0  0  0  0  0  0  0  0
    6.5223  -13.7382    3.9505 H   0  0  0  0  0  0  0  0  0  0  0  0
    3.0612  -12.5582    4.2741 H   0  0  0  0  0  0  0  0  0  0  0  0
    3.5182  -13.7540    6.0716 H   0  0  0  0  0  0  0  0  0  0  0  0
    3.2280  -11.8960    7.2731 H   0  0  0  0  0  0  0  0  0  0  0  0
    5.9269  -10.3108    5.6973 H   0  0  0  0  0  0  0  0  0  0  0  0
    4.3316   -9.0213    6.7860 H   0  0  0  0  0  0  0  0  0  0  0  0
    1.8188  -10.7703    6.7612 H   0  0  0  0  0  0  0  0  0  0  0  0
    0.7832  -10.5108    2.2739 H   0  0  0  0  0  0  0  0  0  0  0  0
    1.5384  -11.7297    3.2184 H   0  0  0  0  0  0  0  0  0  0  0  0
    2.4619  -10.6168    2.2292 H   0  0  0  0  0  0  0  0  0  0  0  0
   -0.5596  -10.1252    3.9268 H   0  0  0  0  0  0  0  0  0  0  0  0
   -0.1916   -9.6231    5.5275 H   0  0  0  0  0  0  0  0  0  0  0  0
    0.2696  -11.2152    5.0295 H   0  0  0  0  0  0  0  0  0  0  0  0
    0.2999   -7.8240    3.7080 H   0  0  0  0  0  0  0  0  0  0  0  0
    1.9029   -8.5267    1.3215 H   0  0  0  0  0  0  0  0  0  0  0  0
    0.0435   -8.0903    0.8151 H   0  0  0  0  0  0  0  0  0  0  0  0
    1.9923   -5.7883   -0.1493 H   0  0  0  0  0  0  0  0  0  0  0  0
    3.4274   -4.8934    0.5991 H   0  0  0  0  0  0  0  0  0  0  0  0
    5.7616   -6.1127    2.2740 H   0  0  0  0  0  0  0  0  0  0  0  0
    4.6607   -4.1905    3.7601 H   0  0  0  0  0  0  0  0  0  0  0  0
  1  2  2  0
  1 35  1  0
  1 36  1  0
  2 33  1  0
  2  3  1  0
  3 21  1  0
  3  4  1  0
  3 37  1  1
  4  5  1  0
  4 38  1  0
  4 39  1  0
  5  6  1  0
  5 40  1  0
  5 41  1  0
  6 32  1  0
  6  7  1  0
  6 42  1  6
  7 27  1  0
  7  8  1  1
  7  9  1  0
  8 43  1  0
  8 44  1  0
  8 45  1  0
  9 32  1  0
  9 10  1  0
  9 46  1  1
 10 11  1  0
 10 12  1  0
 10 47  1  6
 11 48  1  0
 11 49  1  0
 11 50  1  0
 12 13  1  0
 12 51  1  0
 12 52  1  0
 13 20  1  0
 13 14  1  0
 13 53  1  6
 14 15  1  0
 14 16  1  0
 14 54  1  6
 15 55  1  0
 15 56  1  0
 15 57  1  0
 16 17  1  0
 16 18  1  0
 16 58  1  6
 17 59  1  0
 18 22  1  0
 18 19  1  1
 18 20  1  0
 19 60  1  0
 20 21  1  0
 20 61  1  1
 21 22  1  0
 21 62  1  1
 22 23  1  1
 22 24  1  0
 23 63  1  0
 24 25  1  0
 24 26  1  0
 24 27  1  0
 25 64  1  0
 25 65  1  0
 25 66  1  0
 26 67  1  0
 26 68  1  0
 26 69  1  0
 27 28  1  0
 27 70  1  1
 28 29  1  0
 28 30  1  0
 28 71  1  6
 29 72  1  0
 30 31  2  0
 32 30  1  6
 31 73  1  0
 31 74  1  0
 32 33  1  0
 33 34  1  0
 33 75  1  6
 34 76  1  0
M  END
>  <i_m_ct_stereo_status>  (103) 
1

>  <s_m_source_file>  (103) 
/var/tmp/pbs.5076255.sched01/tmpav68hifr/35m6z7vsub.sdf

>  <i_m_source_file_index>  (103) 
11

>  <i_lp_mmshare_version>  (103) 
48012

>  <i_f3d_flags>  (103) 
0

>  <s_epik_input>  (103) 
W0NIMl09QzFbQ0BIXShbT0hdKVtDQEhdMkMoW0NIM10pKFtDSDNdKVtDQF0oW09IXSkoW0NAQEhdM1tDQEhdKFtDSDJdW0NIMl00KUMoPVtDSDJdKVtDQEBIXTVbT0hdKUMoW09IXSkoW0NASF0oW09IXSlbQ0BASF02W0NIM10pW0NASF0zW0NASF02W0NIMl1bQ0BIXShbQ0gzXSlbQ0BASF03QzIoW0NAQEhdNFtDQEBdMTU3KVtDSDNd

>  <s_epik_cmdline>  (103) 
J2VwaWtfcHl0aG9uJywgJy1waHQnLCAnMi4wJywgJy1waCcsICc3LjAnLCAnLXRuJywgJzgnLCAnLW1hJywgJzIwMCcsICctaW1hZScsICc8aW5maWxlLm1hZT4nLCAnLW9tYWUnLCAnPG91dGZpbGUubWFlPic=

>  <r_lp_tautomer_probability>  (103) 
1

>  <r_epik_Ionization_Penalty>  (103) 
1.58808e-06

>  <r_epik_Ionization_Penalty_Charging>  (103) 
0

>  <r_epik_Ionization_Penalty_Neutral>  (103) 
1.58808e-06

>  <r_epik_State_Penalty>  (103) 
-0

>  <r_epik_Charging_Adjusted_Penalty>  (103) 
0

>  <i_epik_Tot_Q>  (103) 
0

>  <i_epik_Tot_abs_Q>  (103) 
0

>  <s_lp_Force_Field>  (103) 
OPLS3e

>  <r_lp_Energy>  (103) 
504.261

>  <b_lp_Chiralities_Consistent>  (103) 
1

>  <s_lp_Variant>  (103) 
39:0-3

>  <s_i_glide_gridfile>  (103) 
pfpi4k_grid

>  <i_i_glide_lignum>  (103) 
11

>  <i_i_glide_rotatable_bonds>  (103) 
5

>  <r_i_docking_score>  (103) 
-3.79183

>  <r_i_glide_ligand_efficiency>  (103) 
-0.111524

>  <r_i_glide_ligand_efficiency_sa>  (103) 
-0.361295

>  <r_i_glide_ligand_efficiency_ln>  (103) 
-0.837721

>  <r_i_glide_gscore>  (103) 
-3.79183

>  <r_i_glide_lipo>  (103) 
-0.151341

>  <r_i_glide_hbond>  (103) 
-0.315425

>  <r_i_glide_metal>  (103) 
-0

>  <r_i_glide_rewards>  (103) 
-0.200176

>  <r_i_glide_evdw>  (103) 
-20.3806

>  <r_i_glide_ecoul>  (103) 
-14.039

>  <r_i_glide_erotb>  (103) 
0

>  <r_i_glide_esite>  (103) 
0

>  <r_i_glide_emodel>  (103) 
-43.8873

>  <r_i_glide_energy>  (103) 
-34.4196

>  <r_i_glide_einternal>  (103) 
2.28732

>  <r_i_glide_intrahb_reward>  (103) 
-0

>  <i_i_glide_confnum>  (103) 
2

>  <i_i_glide_posenum>  (103) 
29

>  <r_i_glide_eff_state_penalty>  (103) 
0

>  <ligand_id>  (103) 
39

>  <original_smiles>  (103) 
C=C1C2CCC3C4(C)C5C(C)CC6C(C)C(O)C7(O)C6C2C7(O)C(C)(C)C4C(O)C(=C)C35C1O

>  <smiles>  (103) 
[H]OC1([H])C(=C([H])[H])C23C([H])(O[H])C(=C([H])[H])C4([H])C([H])([H])C([H])([H])C2([H])C2(C([H])([H])[H])C3([H])C([H])(C([H])([H])[H])C([H])([H])C3([H])C([H])(C([H])([H])[H])C([H])(O[H])C5(O[H])C3([H])C4([H])C5(O[H])C(C([H])([H])[H])(C([H])([H])[H])C12[H]

$$$$
39:2:1
     RDKit          3D

 76 82  0  0  1  0  0  0  0  0999 V2000
    2.5702   -9.0012    7.9209 C   0  0  0  0  0  0  0  0  0  0  0  0
    2.3510   -9.2180    6.6234 C   0  0  0  0  0  0  0  0  0  0  0  0
    3.5195   -9.9019    5.7302 C   0  0  1  0  0  0  0  0  0  0  0  0
    2.8932  -11.2243    5.2141 C   0  0  0  0  0  0  0  0  0  0  0  0
    1.5555  -11.1388    4.4332 C   0  0  0  0  0  0  0  0  0  0  0  0
    1.2606   -9.7935    3.6886 C   0  0  2  0  0  0  0  0  0  0  0  0
    2.4116   -9.0010    3.0800 C   0  0  2  0  0  0  0  0  0  0  0  0
    3.1622  -10.2618    2.4595 C   0  0  0  0  0  0  0  0  0  0  0  0
    2.3209   -7.9693    4.4479 C   0  0  1  0  0  0  0  0  0  0  0  0
    2.3423   -6.4388    5.0610 C   0  0  1  0  0  0  0  0  0  0  0  0
    1.1416   -5.7962    5.8038 C   0  0  0  0  0  0  0  0  0  0  0  0
    3.5543   -6.1292    5.9926 C   0  0  0  0  0  0  0  0  0  0  0  0
    4.8533   -6.4147    5.2926 C   0  0  1  0  0  0  0  0  0  0  0  0
    6.0278   -5.4612    5.1112 C   0  0  1  0  0  0  0  0  0  0  0  0
    6.7863   -5.2152    6.4297 C   0  0  0  0  0  0  0  0  0  0  0  0
    6.7933   -6.2612    4.0056 C   0  0  1  0  0  0  0  0  0  0  0  0
    8.1898   -6.0559    4.0764 O   0  0  0  0  0  0  0  0  0  0  0  0
    6.3136   -7.7452    4.0960 C   0  0  1  0  0  0  0  0  0  0  0  0
    7.4822   -8.5340    4.2531 O   0  0  0  0  0  0  0  0  0  0  0  0
    5.4090   -7.8097    5.3169 C   0  0  2  0  0  0  0  0  0  0  0  0
    4.7126   -9.0701    4.8061 C   0  0  2  0  0  0  0  0  0  0  0  0
    5.0901   -8.4337    3.2601 C   0  0  2  0  0  0  0  0  0  0  0  0
    5.7954   -9.3698    2.4643 O   0  0  0  0  0  0  0  0  0  0  0  0
    4.0855   -7.6751    1.9894 C   0  0  0  0  0  0  0  0  0  0  0  0
    4.1156   -6.1141    1.8641 C   0  0  0  0  0  0  0  0  0  0  0  0
    4.6945   -7.9452    0.5739 C   0  0  0  0  0  0  0  0  0  0  0  0
    2.4491   -8.1078    1.9095 C   0  0  2  0  0  0  0  0  0  0  0  0
    1.1444   -7.1720    2.2006 C   0  0  1  0  0  0  0  0  0  0  0  0
    0.3571   -7.0345    1.0320 O   0  0  0  0  0  0  0  0  0  0  0  0
    0.2354   -7.6077    3.4588 C   0  0  0  0  0  0  0  0  0  0  0  0
   -1.0688   -7.3057    3.5722 C   0  0  0  0  0  0  0  0  0  0  0  0
    0.9758   -8.5531    4.4706 C   0  0  1  0  0  0  0  0  0  0  0  0
    0.9012   -8.8080    6.0050 C   0  0  1  0  0  0  0  0  0  0  0  0
   -0.1657   -9.6352    6.4291 O   0  0  0  0  0  0  0  0  0  0  0  0
    1.8101   -8.5586    8.5565 H   0  0  0  0  0  0  0  0  0  0  0  0
    3.5124   -9.2542    8.3995 H   0  0  0  0  0  0  0  0  0  0  0  0
    4.1489  -10.2902    6.5319 H   0  0  0  0  0  0  0  0  0  0  0  0
    3.6371  -11.8594    4.7382 H   0  0  0  0  0  0  0  0  0  0  0  0
    2.6537  -11.8215    6.0825 H   0  0  0  0  0  0  0  0  0  0  0  0
    1.5315  -11.9715    3.7336 H   0  0  0  0  0  0  0  0  0  0  0  0
    0.7331  -11.4293    5.0787 H   0  0  0  0  0  0  0  0  0  0  0  0
    0.4718   -9.9336    2.9496 H   0  0  0  0  0  0  0  0  0  0  0  0
    3.6401  -10.1277    1.4979 H   0  0  0  0  0  0  0  0  0  0  0  0
    2.4793  -11.0372    2.1164 H   0  0  0  0  0  0  0  0  0  0  0  0
    3.9064  -10.7617    3.0664 H   0  0  0  0  0  0  0  0  0  0  0  0
    2.9059   -7.4299    3.8052 H   0  0  0  0  0  0  0  0  0  0  0  0
    2.3981   -5.7176    4.2513 H   0  0  0  0  0  0  0  0  0  0  0  0
    1.1625   -6.0036    6.8727 H   0  0  0  0  0  0  0  0  0  0  0  0
    0.1539   -6.0380    5.4373 H   0  0  0  0  0  0  0  0  0  0  0  0
    1.2101   -4.7121    5.7358 H   0  0  0  0  0  0  0  0  0  0  0  0
    3.5375   -5.0705    6.2634 H   0  0  0  0  0  0  0  0  0  0  0  0
    3.5014   -6.6864    6.9234 H   0  0  0  0  0  0  0  0  0  0  0  0
    4.4978   -6.2580    4.3107 H   0  0  0  0  0  0  0  0  0  0  0  0
    5.6913   -4.4975    4.7217 H   0  0  0  0  0  0  0  0  0  0  0  0
    7.2169   -6.1285    6.8487 H   0  0  0  0  0  0  0  0  0  0  0  0
    6.1238   -4.7890    7.1844 H   0  0  0  0  0  0  0  0  0  0  0  0
    7.6017   -4.5028    6.2892 H   0  0  0  0  0  0  0  0  0  0  0  0
    6.5347   -5.8621    3.0375 H   0  0  0  0  0  0  0  0  0  0  0  0
    8.3756   -5.1448    3.8738 H   0  0  0  0  0  0  0  0  0  0  0  0
    8.0326   -8.3231    3.5003 H   0  0  0  0  0  0  0  0  0  0  0  0
    5.9670   -8.0499    6.2133 H   0  0  0  0  0  0  0  0  0  0  0  0
    5.4957   -9.8342    4.8540 H   0  0  0  0  0  0  0  0  0  0  0  0
    5.1795  -10.0690    2.2577 H   0  0  0  0  0  0  0  0  0  0  0  0
    3.4893   -5.7995    1.0244 H   0  0  0  0  0  0  0  0  0  0  0  0
    5.0975   -5.7102    1.6208 H   0  0  0  0  0  0  0  0  0  0  0  0
    3.7055   -5.5178    2.6722 H   0  0  0  0  0  0  0  0  0  0  0  0
    4.1640   -7.4320   -0.2171 H   0  0  0  0  0  0  0  0  0  0  0  0
    4.7275   -8.9797    0.2584 H   0  0  0  0  0  0  0  0  0  0  0  0
    5.7158   -7.5768    0.5293 H   0  0  0  0  0  0  0  0  0  0  0  0
    2.2511   -8.6316    0.9744 H   0  0  0  0  0  0  0  0  0  0  0  0
    1.4682   -6.1550    2.3970 H   0  0  0  0  0  0  0  0  0  0  0  0
    0.1688   -7.9213    0.7110 H   0  0  0  0  0  0  0  0  0  0  0  0
   -1.5701   -6.7069    2.8304 H   0  0  0  0  0  0  0  0  0  0  0  0
   -1.6531   -7.6628    4.4115 H   0  0  0  0  0  0  0  0  0  0  0  0
    0.5758   -7.9511    6.5726 H   0  0  0  0  0  0  0  0  0  0  0  0
   -0.3733  -10.2590    5.7400 H   0  0  0  0  0  0  0  0  0  0  0  0
  1  2  2  0
  1 35  1  0
  1 36  1  0
  2 33  1  0
  2  3  1  0
  3 21  1  0
  3  4  1  0
  3 37  1  1
  4  5  1  0
  4 38  1  0
  4 39  1  0
  5  6  1  0
  5 40  1  0
  5 41  1  0
  6 32  1  0
  6  7  1  0
  6 42  1  6
  7 27  1  0
  7  8  1  1
  7  9  1  0
  8 43  1  0
  8 44  1  0
  8 45  1  0
  9 32  1  0
  9 10  1  0
  9 46  1  1
 10 11  1  0
 10 12  1  0
 10 47  1  6
 11 48  1  0
 11 49  1  0
 11 50  1  0
 12 13  1  0
 12 51  1  0
 12 52  1  0
 13 20  1  0
 13 14  1  0
 13 53  1  6
 14 15  1  0
 14 16  1  0
 14 54  1  6
 15 55  1  0
 15 56  1  0
 15 57  1  0
 16 17  1  0
 16 18  1  0
 16 58  1  6
 17 59  1  0
 18 22  1  0
 18 19  1  1
 18 20  1  0
 19 60  1  0
 20 21  1  0
 20 61  1  1
 21 22  1  0
 21 62  1  1
 22 23  1  6
 22 24  1  0
 23 63  1  0
 24 25  1  0
 24 26  1  0
 24 27  1  0
 25 64  1  0
 25 65  1  0
 25 66  1  0
 26 67  1  0
 26 68  1  0
 26 69  1  0
 27 28  1  0
 27 70  1  6
 28 29  1  0
 28 30  1  0
 28 71  1  1
 29 72  1  0
 30 31  2  0
 32 30  1  6
 31 73  1  0
 31 74  1  0
 32 33  1  0
 33 34  1  0
 33 75  1  1
 34 76  1  0
M  END
>  <i_m_ct_stereo_status>  (104) 
1

>  <s_m_source_file>  (104) 
/var/tmp/pbs.5076255.sched01/tmpav68hifr/35m6z7vsub.sdf

>  <i_m_source_file_index>  (104) 
11

>  <i_lp_mmshare_version>  (104) 
48012

>  <i_f3d_flags>  (104) 
0

>  <s_epik_input>  (104) 
W0NIMl09QzFbQ0BIXShbT0hdKVtDQEhdMkMoW0NIM10pKFtDSDNdKVtDQF0oW09IXSkoW0NAQEhdM1tDQEhdKFtDSDJdW0NIMl00KUMoPVtDSDJdKVtDQEBIXTVbT0hdKUMoW09IXSkoW0NASF0oW09IXSlbQ0BASF02W0NIM10pW0NASF0zW0NASF02W0NIMl1bQ0BIXShbQ0gzXSlbQ0BASF03QzIoW0NAQEhdNFtDQEBdMTU3KVtDSDNd

>  <s_epik_cmdline>  (104) 
J2VwaWtfcHl0aG9uJywgJy1waHQnLCAnMi4wJywgJy1waCcsICc3LjAnLCAnLXRuJywgJzgnLCAnLW1hJywgJzIwMCcsICctaW1hZScsICc8aW5maWxlLm1hZT4nLCAnLW9tYWUnLCAnPG91dGZpbGUubWFlPic=

>  <r_lp_tautomer_probability>  (104) 
1

>  <r_epik_Ionization_Penalty>  (104) 
1.58808e-06

>  <r_epik_Ionization_Penalty_Charging>  (104) 
0

>  <r_epik_Ionization_Penalty_Neutral>  (104) 
1.58808e-06

>  <r_epik_State_Penalty>  (104) 
-0

>  <r_epik_Charging_Adjusted_Penalty>  (104) 
0

>  <i_epik_Tot_Q>  (104) 
0

>  <i_epik_Tot_abs_Q>  (104) 
0

>  <s_lp_Force_Field>  (104) 
OPLS3e

>  <r_lp_Energy>  (104) 
504.261

>  <b_lp_Chiralities_Consistent>  (104) 
1

>  <s_lp_Variant>  (104) 
39:0-3

>  <s_i_glide_gridfile>  (104) 
pfpi4k_grid

>  <i_i_glide_lignum>  (104) 
11

>  <i_i_glide_rotatable_bonds>  (104) 
5

>  <r_i_docking_score>  (104) 
-2.69134

>  <r_i_glide_ligand_efficiency>  (104) 
-0.0791571

>  <r_i_glide_ligand_efficiency_sa>  (104) 
-0.256438

>  <r_i_glide_ligand_efficiency_ln>  (104) 
-0.594592

>  <r_i_glide_gscore>  (104) 
-2.69134

>  <r_i_glide_lipo>  (104) 
-0.0608157

>  <r_i_glide_hbond>  (104) 
-0.328772

>  <r_i_glide_metal>  (104) 
-0

>  <r_i_glide_rewards>  (104) 
-0.200176

>  <r_i_glide_evdw>  (104) 
-22.2522

>  <r_i_glide_ecoul>  (104) 
-6.59311

>  <r_i_glide_erotb>  (104) 
0

>  <r_i_glide_esite>  (104) 
0

>  <r_i_glide_emodel>  (104) 
-35.2305

>  <r_i_glide_energy>  (104) 
-28.8453

>  <r_i_glide_einternal>  (104) 
1.83306

>  <r_i_glide_intrahb_reward>  (104) 
-0

>  <i_i_glide_confnum>  (104) 
2

>  <i_i_glide_posenum>  (104) 
30

>  <r_i_glide_eff_state_penalty>  (104) 
0

>  <ligand_id>  (104) 
39

>  <original_smiles>  (104) 
C=C1C2CCC3C4(C)C5C(C)CC6C(C)C(O)C7(O)C6C2C7(O)C(C)(C)C4C(O)C(=C)C35C1O

>  <smiles>  (104) 
[H]OC1([H])C(=C([H])[H])C23C([H])(O[H])C(=C([H])[H])C4([H])C([H])([H])C([H])([H])C2([H])C2(C([H])([H])[H])C3([H])C([H])(C([H])([H])[H])C([H])([H])C3([H])C([H])(C([H])([H])[H])C([H])(O[H])C5(O[H])C3([H])C4([H])C5(O[H])C(C([H])([H])[H])(C([H])([H])[H])C12[H]

$$$$
39:2:2
     RDKit          3D

 76 82  0  0  1  0  0  0  0  0999 V2000
    5.7521   -9.5303    1.3581 C   0  0  0  0  0  0  0  0  0  0  0  0
    5.4890   -9.5854    2.6669 C   0  0  0  0  0  0  0  0  0  0  0  0
    4.1981  -10.4238    3.1804 C   0  0  1  0  0  0  0  0  0  0  0  0
    4.8062  -11.5482    4.0649 C   0  0  0  0  0  0  0  0  0  0  0  0
    5.6922  -11.1217    5.2730 C   0  0  0  0  0  0  0  0  0  0  0  0
    5.4683   -9.6809    5.8518 C   0  0  2  0  0  0  0  0  0  0  0  0
    4.0590   -9.1024    5.8876 C   0  0  2  0  0  0  0  0  0  0  0  0
    3.3483  -10.4364    6.3958 C   0  0  0  0  0  0  0  0  0  0  0  0
    4.4869   -8.1956    4.4933 C   0  0  1  0  0  0  0  0  0  0  0  0
    4.4582   -6.7527    3.6829 C   0  0  1  0  0  0  0  0  0  0  0  0
    5.7296   -5.9393    3.3208 C   0  0  0  0  0  0  0  0  0  0  0  0
    3.6583   -6.7813    2.3437 C   0  0  0  0  0  0  0  0  0  0  0  0
    2.2554   -7.2706    2.5730 C   0  0  1  0  0  0  0  0  0  0  0  0
    0.9641   -6.5594    2.1795 C   0  0  1  0  0  0  0  0  0  0  0  0
    0.7227   -6.5987    0.6558 C   0  0  0  0  0  0  0  0  0  0  0  0
   -0.0222   -7.3962    3.0598 C   0  0  1  0  0  0  0  0  0  0  0  0
   -1.3130   -7.4441    2.4854 O   0  0  0  0  0  0  0  0  0  0  0  0
    0.6802   -8.7572    3.3714 C   0  0  1  0  0  0  0  0  0  0  0  0
   -0.2444   -9.7620    2.9826 O   0  0  0  0  0  0  0  0  0  0  0  0
    1.9742   -8.7519    2.5696 C   0  0  2  0  0  0  0  0  0  0  0  0
    2.6215   -9.7908    3.4853 C   0  0  2  0  0  0  0  0  0  0  0  0
    1.5924   -9.1172    4.6769 C   0  0  2  0  0  0  0  0  0  0  0  0
    0.7975  -10.1235    5.2875 O   0  0  0  0  0  0  0  0  0  0  0  0
    1.9059   -8.0616    6.0854 C   0  0  0  0  0  0  0  0  0  0  0  0
    1.5802   -6.5341    5.9505 C   0  0  0  0  0  0  0  0  0  0  0  0
    0.8627   -8.3350    7.2244 C   0  0  0  0  0  0  0  0  0  0  0  0
    3.4375   -8.1342    6.8065 C   0  0  2  0  0  0  0  0  0  0  0  0
    4.5826   -6.9739    6.8519 C   0  0  1  0  0  0  0  0  0  0  0  0
    4.8239   -6.5813    8.1857 O   0  0  0  0  0  0  0  0  0  0  0  0
    5.9589   -7.3164    6.0873 C   0  0  0  0  0  0  0  0  0  0  0  0
    7.1391   -6.7485    6.3972 C   0  0  0  0  0  0  0  0  0  0  0  0
    5.8202   -8.4767    5.0372 C   0  0  1  0  0  0  0  0  0  0  0  0
    6.5140   -8.8389    3.6823 C   0  0  1  0  0  0  0  0  0  0  0  0
    7.7347   -9.5327    3.8240 O   0  0  0  0  0  0  0  0  0  0  0  0
    6.6117   -8.9929    0.9734 H   0  0  0  0  0  0  0  0  0  0  0  0
    5.1054  -10.0149    0.6325 H   0  0  0  0  0  0  0  0  0  0  0  0
    3.9836  -10.9980    2.2801 H   0  0  0  0  0  0  0  0  0  0  0  0
    4.0473  -12.2793    4.3382 H   0  0  0  0  0  0  0  0  0  0  0  0
    5.4598  -12.1346    3.4123 H   0  0  0  0  0  0  0  0  0  0  0  0
    5.5659  -11.8686    6.0547 H   0  0  0  0  0  0  0  0  0  0  0  0
    6.7362  -11.3052    5.0493 H   0  0  0  0  0  0  0  0  0  0  0  0
    5.9287   -9.5963    6.8366 H   0  0  0  0  0  0  0  0  0  0  0  0
    2.5239  -10.3111    7.0826 H   0  0  0  0  0  0  0  0  0  0  0  0
    3.9683  -11.0080    7.0871 H   0  0  0  0  0  0  0  0  0  0  0  0
    2.9867  -11.1324    5.6477 H   0  0  0  0  0  0  0  0  0  0  0  0
    3.6270   -7.7219    4.7867 H   0  0  0  0  0  0  0  0  0  0  0  0
    3.9859   -5.9876    4.2947 H   0  0  0  0  0  0  0  0  0  0  0  0
    6.1500   -6.2367    2.3624 H   0  0  0  0  0  0  0  0  0  0  0  0
    6.5288   -5.9370    4.0470 H   0  0  0  0  0  0  0  0  0  0  0  0
    5.4669   -4.8912    3.1923 H   0  0  0  0  0  0  0  0  0  0  0  0
    3.6020   -5.7701    1.9365 H   0  0  0  0  0  0  0  0  0  0  0  0
    4.1448   -7.3904    1.5890 H   0  0  0  0  0  0  0  0  0  0  0  0
    2.1878   -6.9611    3.5821 H   0  0  0  0  0  0  0  0  0  0  0  0
    0.9713   -5.5204    2.5127 H   0  0  0  0  0  0  0  0  0  0  0  0
    0.6411   -7.6201    0.2835 H   0  0  0  0  0  0  0  0  0  0  0  0
    1.5439   -6.1131    0.1222 H   0  0  0  0  0  0  0  0  0  0  0  0
   -0.2045   -6.1028    0.3695 H   0  0  0  0  0  0  0  0  0  0  0  0
   -0.2082   -6.8849    3.9902 H   0  0  0  0  0  0  0  0  0  0  0  0
   -1.7264   -8.2258    2.8352 H   0  0  0  0  0  0  0  0  0  0  0  0
   -0.3109  -10.3296    3.7487 H   0  0  0  0  0  0  0  0  0  0  0  0
    1.8444   -9.1789    1.5800 H   0  0  0  0  0  0  0  0  0  0  0  0
    2.0590  -10.7050    3.2772 H   0  0  0  0  0  0  0  0  0  0  0  0
    1.3607  -10.6365    5.8564 H   0  0  0  0  0  0  0  0  0  0  0  0
    1.7858   -6.0279    6.8971 H   0  0  0  0  0  0  0  0  0  0  0  0
    0.5285   -6.3230    5.7674 H   0  0  0  0  0  0  0  0  0  0  0  0
    2.1643   -5.9390    5.2581 H   0  0  0  0  0  0  0  0  0  0  0  0
    1.0176   -7.6770    8.0758 H   0  0  0  0  0  0  0  0  0  0  0  0
    0.8669   -9.3305    7.6532 H   0  0  0  0  0  0  0  0  0  0  0  0
   -0.1571   -8.1753    6.8721 H   0  0  0  0  0  0  0  0  0  0  0  0
    3.3473   -8.5131    7.8251 H   0  0  0  0  0  0  0  0  0  0  0  0
    4.1984   -6.0653    6.4003 H   0  0  0  0  0  0  0  0  0  0  0  0
    5.1697   -7.3334    8.6577 H   0  0  0  0  0  0  0  0  0  0  0  0
    7.2030   -5.9812    7.1532 H   0  0  0  0  0  0  0  0  0  0  0  0
    8.0498   -7.0419    5.8898 H   0  0  0  0  0  0  0  0  0  0  0  0
    6.9134   -7.9826    3.1593 H   0  0  0  0  0  0  0  0  0  0  0  0
    7.5349  -10.3769    4.2002 H   0  0  0  0  0  0  0  0  0  0  0  0
  1  2  2  0
  1 35  1  0
  1 36  1  0
  2 33  1  0
  2  3  1  0
  3 21  1  0
  3  4  1  0
  3 37  1  6
  4  5  1  0
  4 38  1  0
  4 39  1  0
  5  6  1  0
  5 40  1  0
  5 41  1  0
  6 32  1  0
  6  7  1  0
  6 42  1  1
  7 27  1  0
  7  8  1  6
  7  9  1  0
  8 43  1  0
  8 44  1  0
  8 45  1  0
  9 32  1  0
  9 10  1  0
  9 46  1  6
 10 11  1  0
 10 12  1  0
 10 47  1  1
 11 48  1  0
 11 49  1  0
 11 50  1  0
 12 13  1  0
 12 51  1  0
 12 52  1  0
 13 20  1  0
 13 14  1  0
 13 53  1  1
 14 15  1  0
 14 16  1  0
 14 54  1  1
 15 55  1  0
 15 56  1  0
 15 57  1  0
 16 17  1  0
 16 18  1  0
 16 58  1  1
 17 59  1  0
 18 22  1  0
 18 19  1  6
 18 20  1  0
 19 60  1  0
 20 21  1  0
 20 61  1  6
 21 22  1  0
 21 62  1  6
 22 23  1  1
 22 24  1  0
 23 63  1  0
 24 25  1  0
 24 26  1  0
 24 27  1  0
 25 64  1  0
 25 65  1  0
 25 66  1  0
 26 67  1  0
 26 68  1  0
 26 69  1  0
 27 28  1  0
 27 70  1  1
 28 29  1  0
 28 30  1  0
 28 71  1  6
 29 72  1  0
 30 31  2  0
 32 30  1  1
 31 73  1  0
 31 74  1  0
 32 33  1  0
 33 34  1  0
 33 75  1  6
 34 76  1  0
M  END
>  <i_m_ct_stereo_status>  (105) 
1

>  <s_m_source_file>  (105) 
/var/tmp/pbs.5076255.sched01/tmpav68hifr/35m6z7vsub.sdf

>  <i_m_source_file_index>  (105) 
11

>  <i_lp_mmshare_version>  (105) 
48012

>  <i_f3d_flags>  (105) 
0

>  <s_epik_input>  (105) 
W0NIMl09QzFbQ0BIXShbT0hdKVtDQEhdMkMoW0NIM10pKFtDSDNdKVtDQF0oW09IXSkoW0NAQEhdM1tDQEhdKFtDSDJdW0NIMl00KUMoPVtDSDJdKVtDQEBIXTVbT0hdKUMoW09IXSkoW0NASF0oW09IXSlbQ0BASF02W0NIM10pW0NASF0zW0NASF02W0NIMl1bQ0BIXShbQ0gzXSlbQ0BASF03QzIoW0NAQEhdNFtDQEBdMTU3KVtDSDNd

>  <s_epik_cmdline>  (105) 
J2VwaWtfcHl0aG9uJywgJy1waHQnLCAnMi4wJywgJy1waCcsICc3LjAnLCAnLXRuJywgJzgnLCAnLW1hJywgJzIwMCcsICctaW1hZScsICc8aW5maWxlLm1hZT4nLCAnLW9tYWUnLCAnPG91dGZpbGUubWFlPic=

>  <r_lp_tautomer_probability>  (105) 
1

>  <r_epik_Ionization_Penalty>  (105) 
1.58808e-06

>  <r_epik_Ionization_Penalty_Charging>  (105) 
0

>  <r_epik_Ionization_Penalty_Neutral>  (105) 
1.58808e-06

>  <r_epik_State_Penalty>  (105) 
-0

>  <r_epik_Charging_Adjusted_Penalty>  (105) 
0

>  <i_epik_Tot_Q>  (105) 
0

>  <i_epik_Tot_abs_Q>  (105) 
0

>  <s_lp_Force_Field>  (105) 
OPLS3e

>  <r_lp_Energy>  (105) 
504.261

>  <b_lp_Chiralities_Consistent>  (105) 
1

>  <s_lp_Variant>  (105) 
39:0-3

>  <s_i_glide_gridfile>  (105) 
pfpi4k_grid

>  <i_i_glide_lignum>  (105) 
11

>  <i_i_glide_rotatable_bonds>  (105) 
5

>  <r_i_docking_score>  (105) 
-2.2729

>  <r_i_glide_ligand_efficiency>  (105) 
-0.0668499

>  <r_i_glide_ligand_efficiency_sa>  (105) 
-0.216568

>  <r_i_glide_ligand_efficiency_ln>  (105) 
-0.502147

>  <r_i_glide_gscore>  (105) 
-2.2729

>  <r_i_glide_lipo>  (105) 
-0.0158214

>  <r_i_glide_hbond>  (105) 
0

>  <r_i_glide_metal>  (105) 
-0

>  <r_i_glide_rewards>  (105) 
-0.700176

>  <r_i_glide_evdw>  (105) 
-21.8077

>  <r_i_glide_ecoul>  (105) 
-3.11011

>  <r_i_glide_erotb>  (105) 
0

>  <r_i_glide_esite>  (105) 
0

>  <r_i_glide_emodel>  (105) 
-34.9607

>  <r_i_glide_energy>  (105) 
-24.9178

>  <r_i_glide_einternal>  (105) 
2.12533

>  <r_i_glide_intrahb_reward>  (105) 
-0.5

>  <i_i_glide_confnum>  (105) 
2

>  <i_i_glide_posenum>  (105) 
38

>  <r_i_glide_eff_state_penalty>  (105) 
0

>  <ligand_id>  (105) 
39

>  <original_smiles>  (105) 
C=C1C2CCC3C4(C)C5C(C)CC6C(C)C(O)C7(O)C6C2C7(O)C(C)(C)C4C(O)C(=C)C35C1O

>  <smiles>  (105) 
[H]OC1([H])C(=C([H])[H])C23C([H])(O[H])C(=C([H])[H])C4([H])C([H])([H])C([H])([H])C2([H])C2(C([H])([H])[H])C3([H])C([H])(C([H])([H])[H])C([H])([H])C3([H])C([H])(C([H])([H])[H])C([H])(O[H])C5(O[H])C3([H])C4([H])C5(O[H])C(C([H])([H])[H])(C([H])([H])[H])C12[H]

$$$$
43:0:0
     RDKit          3D

 43 49  0  0  1  0  0  0  0  0999 V2000
    2.2220   -3.5536   -3.9047 C   0  0  0  0  0  0  0  0  0  0  0  0
    3.0379   -2.9894   -3.0203 C   0  0  0  0  0  0  0  0  0  0  0  0
    3.0606   -1.5314   -2.6814 C   0  0  2  0  0  0  0  0  0  0  0  0
    3.9672   -0.7635   -3.5550 C   0  0  2  0  0  0  0  0  0  0  0  0
    4.9793   -1.7861   -3.9052 O   0  0  0  0  0  0  0  0  0  0  0  0
    5.3921   -2.6760   -2.7882 C   0  0  1  0  0  0  0  0  0  0  0  0
    5.6172   -1.5641   -1.8223 C   0  0  0  0  0  0  0  0  0  0  0  0
    4.1756   -1.1823   -1.6164 C   0  0  1  0  0  0  0  0  0  0  0  0
    4.2183    0.0604   -2.3462 O   0  0  0  0  0  0  0  0  0  0  0  0
    3.7291   -1.8840   -0.3198 C   0  0  2  0  0  0  0  0  0  0  0  0
    4.4765   -1.7357    1.0534 C   0  0  1  0  0  0  0  0  0  0  0  0
    3.4722   -2.4660    1.9790 C   0  0  0  0  0  0  0  0  0  0  0  0
    4.0919   -3.8663    1.9158 C   0  0  2  0  0  0  0  0  0  0  0  0
    5.4087   -3.4372    2.5535 C   0  0  0  0  0  0  0  0  0  0  0  0
    5.7985   -2.6320    1.3129 C   0  0  1  0  0  0  0  0  0  0  0  0
    5.9137   -3.8395    0.3398 C   0  0  1  0  0  0  0  0  0  0  0  0
    6.8512   -4.8439    0.6856 O   0  0  0  0  0  0  0  0  0  0  0  0
    4.4623   -4.2807    0.4077 C   0  0  2  0  0  0  0  0  0  0  0  0
    3.6879   -3.4461   -0.6914 C   0  0  1  0  0  0  0  0  0  0  0  0
    2.2263   -3.9821   -0.5745 C   0  0  0  0  0  0  0  0  0  0  0  0
    4.1908   -3.6065   -2.2447 C   0  0  1  0  0  0  0  0  0  0  0  0
    2.2925   -4.6064   -4.0895 H   0  0  0  0  0  0  0  0  0  0  0  0
    1.4445   -2.9916   -4.3842 H   0  0  0  0  0  0  0  0  0  0  0  0
    2.1353   -1.0606   -2.4842 H   0  0  0  0  0  0  0  0  0  0  0  0
    3.4662   -0.2232   -4.3637 H   0  0  0  0  0  0  0  0  0  0  0  0
    6.3016   -3.2255   -3.0424 H   0  0  0  0  0  0  0  0  0  0  0  0
    6.1796   -1.7021   -0.9275 H   0  0  0  0  0  0  0  0  0  0  0  0
    6.1957   -0.7716   -2.2978 H   0  0  0  0  0  0  0  0  0  0  0  0
    2.7130   -1.5243   -0.1466 H   0  0  0  0  0  0  0  0  0  0  0  0
    4.5912   -0.6920    1.3532 H   0  0  0  0  0  0  0  0  0  0  0  0
    3.4626   -2.0454    2.9845 H   0  0  0  0  0  0  0  0  0  0  0  0
    2.4255   -2.4394    1.6812 H   0  0  0  0  0  0  0  0  0  0  0  0
    3.5458   -4.6178    2.4864 H   0  0  0  0  0  0  0  0  0  0  0  0
    5.3348   -2.8263    3.4537 H   0  0  0  0  0  0  0  0  0  0  0  0
    6.0586   -4.2661    2.8300 H   0  0  0  0  0  0  0  0  0  0  0  0
    6.7194   -2.0560    1.4166 H   0  0  0  0  0  0  0  0  0  0  0  0
    6.2432   -3.6594   -0.6679 H   0  0  0  0  0  0  0  0  0  0  0  0
    6.6078   -5.2015    1.5310 H   0  0  0  0  0  0  0  0  0  0  0  0
    4.3638   -5.3497    0.2275 H   0  0  0  0  0  0  0  0  0  0  0  0
    2.1088   -4.9428   -1.0790 H   0  0  0  0  0  0  0  0  0  0  0  0
    1.4856   -3.2990   -1.0100 H   0  0  0  0  0  0  0  0  0  0  0  0
    1.9298   -4.1641    0.4591 H   0  0  0  0  0  0  0  0  0  0  0  0
    4.3854   -4.6312   -2.5294 H   0  0  0  0  0  0  0  0  0  0  0  0
  1  2  2  0
  1 22  1  0
  1 23  1  0
  2 21  1  0
  2  3  1  0
  3  8  1  0
  3  4  1  0
  3 24  1  1
  4  9  1  0
  4  5  1  0
  4 25  1  6
  5  6  1  0
  6 21  1  0
  6  7  1  0
  6 26  1  6
  7  8  1  0
  7 27  1  0
  7 28  1  0
  8  9  1  1
  8 10  1  0
 10 19  1  0
 10 11  1  0
 10 29  1  1
 11 15  1  0
 11 12  1  0
 11 30  1  1
 12 13  1  0
 12 31  1  0
 12 32  1  0
 13 18  1  0
 13 14  1  0
 13 33  1  1
 14 15  1  0
 14 34  1  0
 14 35  1  0
 15 16  1  0
 15 36  1  1
 16 17  1  0
 16 18  1  0
 16 37  1  6
 17 38  1  0
 18 19  1  0
 18 39  1  1
 19 20  1  6
 19 21  1  0
 20 40  1  0
 20 41  1  0
 20 42  1  0
 21 43  1  6
M  END
>  <i_m_ct_stereo_status>  (106) 
1

>  <s_m_source_file>  (106) 
/var/tmp/pbs.5076255.sched01/tmpav68hifr/35m6z7vsub.sdf

>  <i_m_source_file_index>  (106) 
15

>  <i_lp_mmshare_version>  (106) 
48012

>  <i_f3d_flags>  (106) 
0

>  <s_epik_input>  (106) 
W0NAXTEyM1tDQEhdNFtDQEBIXShPMilPW0NAQEhdKFtDSDJdMSlbQ0BIXShDND1bQ0gyXSlbQ0BdNShbQ0gzXSlbQ0BIXTNbQ0BASF02W0NASF03W0NIMl1bQ0BASF0oW0NIMl02KVtDQEBIXTVbQ0BASF03W09IXQ==

>  <s_epik_cmdline>  (106) 
J2VwaWtfcHl0aG9uJywgJy1waHQnLCAnMi4wJywgJy1waCcsICc3LjAnLCAnLXRuJywgJzgnLCAnLW1hJywgJzIwMCcsICctaW1hZScsICc8aW5maWxlLm1hZT4nLCAnLW9tYWUnLCAnPG91dGZpbGUubWFlPic=

>  <r_lp_tautomer_probability>  (106) 
1

>  <r_epik_Ionization_Penalty>  (106) 
1.76537e-06

>  <r_epik_Ionization_Penalty_Charging>  (106) 
0

>  <r_epik_Ionization_Penalty_Neutral>  (106) 
1.76537e-06

>  <r_epik_State_Penalty>  (106) 
-0

>  <r_epik_Charging_Adjusted_Penalty>  (106) 
0

>  <i_epik_Tot_Q>  (106) 
0

>  <i_epik_Tot_abs_Q>  (106) 
0

>  <s_epik_Chemistry_Notes>  (106) 
This compound contains an acetal/aminal-like group ( X-CH(R)-Y where X, Y are N, S, or O) that may be acid/base labile, releasing an aldehyde.

>  <s_lp_Force_Field>  (106) 
OPLS3e

>  <r_lp_Energy>  (106) 
210.505

>  <b_lp_Chiralities_Consistent>  (106) 
1

>  <s_lp_Variant>  (106) 
43:0-1

>  <s_i_glide_gridfile>  (106) 
pfpi4k_grid

>  <i_i_glide_lignum>  (106) 
15

>  <i_i_glide_rotatable_bonds>  (106) 
1

>  <r_i_docking_score>  (106) 
-2.98268

>  <r_i_glide_ligand_efficiency>  (106) 
-0.142032

>  <r_i_glide_ligand_efficiency_sa>  (106) 
-0.391856

>  <r_i_glide_ligand_efficiency_ln>  (106) 
-0.737461

>  <r_i_glide_gscore>  (106) 
-2.98268

>  <r_i_glide_lipo>  (106) 
-0.530716

>  <r_i_glide_hbond>  (106) 
0

>  <r_i_glide_metal>  (106) 
-0

>  <r_i_glide_rewards>  (106) 
-1.78086

>  <r_i_glide_evdw>  (106) 
-5.60493

>  <r_i_glide_ecoul>  (106) 
-2.60568

>  <r_i_glide_erotb>  (106) 
0

>  <r_i_glide_esite>  (106) 
0

>  <r_i_glide_emodel>  (106) 
-8.92057

>  <r_i_glide_energy>  (106) 
-8.21061

>  <r_i_glide_einternal>  (106) 
0.0118557

>  <r_i_glide_intrahb_reward>  (106) 
-0

>  <i_i_glide_confnum>  (106) 
1

>  <i_i_glide_posenum>  (106) 
39

>  <r_i_glide_eff_state_penalty>  (106) 
0

>  <ligand_id>  (106) 
43

>  <original_smiles>  (106) 
C=C1C2C3OC4CC2(O3)C2C3CC5CC3C(O)C5C2(C)C14

>  <smiles>  (106) 
[H]OC1([H])C2([H])C([H])([H])C3([H])C([H])([H])C2([H])C2([H])C45OC6([H])OC([H])(C4([H])[H])C([H])(C(=C([H])[H])C65[H])C2(C([H])([H])[H])C13[H]

$$$$
43:0:1
     RDKit          3D

 43 49  0  0  1  0  0  0  0  0999 V2000
    2.2580   -3.5258   -3.8903 C   0  0  0  0  0  0  0  0  0  0  0  0
    3.0601   -2.9804   -2.9962 C   0  0  0  0  0  0  0  0  0  0  0  0
    3.0868   -1.5314   -2.6623 C   0  0  2  0  0  0  0  0  0  0  0  0
    3.9671   -0.7582   -3.5452 C   0  0  2  0  0  0  0  0  0  0  0  0
    4.9813   -1.7827   -3.9053 O   0  0  0  0  0  0  0  0  0  0  0  0
    5.4001   -2.6880   -2.8080 C   0  0  1  0  0  0  0  0  0  0  0  0
    5.6309   -1.5805   -1.8384 C   0  0  0  0  0  0  0  0  0  0  0  0
    4.1928   -1.1866   -1.6126 C   0  0  1  0  0  0  0  0  0  0  0  0
    4.2422    0.0571   -2.3292 O   0  0  0  0  0  0  0  0  0  0  0  0
    3.7807   -1.8963   -0.3060 C   0  0  2  0  0  0  0  0  0  0  0  0
    4.5580   -1.7746    1.0547 C   0  0  1  0  0  0  0  0  0  0  0  0
    3.5650   -2.5081    1.9909 C   0  0  0  0  0  0  0  0  0  0  0  0
    4.1697   -3.9131    1.9013 C   0  0  2  0  0  0  0  0  0  0  0  0
    5.5015   -3.5016    2.5140 C   0  0  0  0  0  0  0  0  0  0  0  0
    5.8736   -2.6837    1.2763 C   0  0  1  0  0  0  0  0  0  0  0  0
    5.9612   -3.8804    0.2889 C   0  0  1  0  0  0  0  0  0  0  0  0
    6.8791   -4.8990    0.6414 O   0  0  0  0  0  0  0  0  0  0  0  0
    4.5107   -4.3097    0.3827 C   0  0  2  0  0  0  0  0  0  0  0  0
    3.7286   -3.4541   -0.6941 C   0  0  1  0  0  0  0  0  0  0  0  0
    2.2636   -3.9848   -0.5565 C   0  0  0  0  0  0  0  0  0  0  0  0
    4.2110   -3.6065   -2.2493 C   0  0  1  0  0  0  0  0  0  0  0  0
    2.3230   -4.5856   -4.0907 H   0  0  0  0  0  0  0  0  0  0  0  0
    1.4644   -2.9687   -4.3630 H   0  0  0  0  0  0  0  0  0  0  0  0
    2.1700   -1.0556   -2.4294 H   0  0  0  0  0  0  0  0  0  0  0  0
    3.4540   -0.2017   -4.3268 H   0  0  0  0  0  0  0  0  0  0  0  0
    6.3045   -3.2269   -3.0830 H   0  0  0  0  0  0  0  0  0  0  0  0
    6.2255   -1.7253   -0.9573 H   0  0  0  0  0  0  0  0  0  0  0  0
    6.1766   -0.7797   -2.3229 H   0  0  0  0  0  0  0  0  0  0  0  0
    2.7722   -1.5330   -0.1109 H   0  0  0  0  0  0  0  0  0  0  0  0
    4.6865   -0.7375    1.3645 H   0  0  0  0  0  0  0  0  0  0  0  0
    3.5761   -2.1001    3.0020 H   0  0  0  0  0  0  0  0  0  0  0  0
    2.5138   -2.4718    1.7099 H   0  0  0  0  0  0  0  0  0  0  0  0
    3.6320   -4.6709    2.4725 H   0  0  0  0  0  0  0  0  0  0  0  0
    5.4478   -2.9033    3.4233 H   0  0  0  0  0  0  0  0  0  0  0  0
    6.1498   -4.3384    2.7684 H   0  0  0  0  0  0  0  0  0  0  0  0
    6.8022   -2.1202    1.3746 H   0  0  0  0  0  0  0  0  0  0  0  0
    6.2871   -3.6981   -0.7203 H   0  0  0  0  0  0  0  0  0  0  0  0
    6.7188   -5.6501    0.0920 H   0  0  0  0  0  0  0  0  0  0  0  0
    4.4002   -5.3771    0.1941 H   0  0  0  0  0  0  0  0  0  0  0  0
    2.1201   -4.9337   -1.0673 H   0  0  0  0  0  0  0  0  0  0  0  0
    1.5216   -3.2994   -0.9695 H   0  0  0  0  0  0  0  0  0  0  0  0
    1.9762   -4.1747    0.4764 H   0  0  0  0  0  0  0  0  0  0  0  0
    4.3947   -4.6302   -2.5485 H   0  0  0  0  0  0  0  0  0  0  0  0
  1  2  2  0
  1 22  1  0
  1 23  1  0
  2 21  1  0
  2  3  1  0
  3  8  1  0
  3  4  1  0
  3 24  1  1
  4  9  1  0
  4  5  1  0
  4 25  1  6
  5  6  1  0
  6 21  1  0
  6  7  1  0
  6 26  1  6
  7  8  1  0
  7 27  1  0
  7 28  1  0
  8  9  1  1
  8 10  1  0
 10 19  1  0
 10 11  1  0
 10 29  1  1
 11 15  1  0
 11 12  1  0
 11 30  1  1
 12 13  1  0
 12 31  1  0
 12 32  1  0
 13 18  1  0
 13 14  1  0
 13 33  1  1
 14 15  1  0
 14 34  1  0
 14 35  1  0
 15 16  1  0
 15 36  1  1
 16 17  1  0
 16 18  1  0
 16 37  1  6
 17 38  1  0
 18 19  1  0
 18 39  1  1
 19 20  1  6
 19 21  1  0
 20 40  1  0
 20 41  1  0
 20 42  1  0
 21 43  1  6
M  END
>  <i_m_ct_stereo_status>  (107) 
1

>  <s_m_source_file>  (107) 
/var/tmp/pbs.5076255.sched01/tmpav68hifr/35m6z7vsub.sdf

>  <i_m_source_file_index>  (107) 
15

>  <i_lp_mmshare_version>  (107) 
48012

>  <i_f3d_flags>  (107) 
0

>  <s_epik_input>  (107) 
W0NAXTEyM1tDQEhdNFtDQEBIXShPMilPW0NAQEhdKFtDSDJdMSlbQ0BIXShDND1bQ0gyXSlbQ0BdNShbQ0gzXSlbQ0BIXTNbQ0BASF02W0NASF03W0NIMl1bQ0BASF0oW0NIMl02KVtDQEBIXTVbQ0BASF03W09IXQ==

>  <s_epik_cmdline>  (107) 
J2VwaWtfcHl0aG9uJywgJy1waHQnLCAnMi4wJywgJy1waCcsICc3LjAnLCAnLXRuJywgJzgnLCAnLW1hJywgJzIwMCcsICctaW1hZScsICc8aW5maWxlLm1hZT4nLCAnLW9tYWUnLCAnPG91dGZpbGUubWFlPic=

>  <r_lp_tautomer_probability>  (107) 
1

>  <r_epik_Ionization_Penalty>  (107) 
1.76537e-06

>  <r_epik_Ionization_Penalty_Charging>  (107) 
0

>  <r_epik_Ionization_Penalty_Neutral>  (107) 
1.76537e-06

>  <r_epik_State_Penalty>  (107) 
-0

>  <r_epik_Charging_Adjusted_Penalty>  (107) 
0

>  <i_epik_Tot_Q>  (107) 
0

>  <i_epik_Tot_abs_Q>  (107) 
0

>  <s_epik_Chemistry_Notes>  (107) 
This compound contains an acetal/aminal-like group ( X-CH(R)-Y where X, Y are N, S, or O) that may be acid/base labile, releasing an aldehyde.

>  <s_lp_Force_Field>  (107) 
OPLS3e

>  <r_lp_Energy>  (107) 
210.505

>  <b_lp_Chiralities_Consistent>  (107) 
1

>  <s_lp_Variant>  (107) 
43:0-1

>  <s_i_glide_gridfile>  (107) 
pfpi4k_grid

>  <i_i_glide_lignum>  (107) 
15

>  <i_i_glide_rotatable_bonds>  (107) 
1

>  <r_i_docking_score>  (107) 
-2.96405

>  <r_i_glide_ligand_efficiency>  (107) 
-0.141145

>  <r_i_glide_ligand_efficiency_sa>  (107) 
-0.389409

>  <r_i_glide_ligand_efficiency_ln>  (107) 
-0.732855

>  <r_i_glide_gscore>  (107) 
-2.96405

>  <r_i_glide_lipo>  (107) 
-0.533071

>  <r_i_glide_hbond>  (107) 
0

>  <r_i_glide_metal>  (107) 
-0

>  <r_i_glide_rewards>  (107) 
-1.77834

>  <r_i_glide_evdw>  (107) 
-6.67676

>  <r_i_glide_ecoul>  (107) 
-2.12533

>  <r_i_glide_erotb>  (107) 
0

>  <r_i_glide_esite>  (107) 
0

>  <r_i_glide_emodel>  (107) 
-9.02593

>  <r_i_glide_energy>  (107) 
-8.80209

>  <r_i_glide_einternal>  (107) 
0.398386

>  <r_i_glide_intrahb_reward>  (107) 
-0

>  <i_i_glide_confnum>  (107) 
2

>  <i_i_glide_posenum>  (107) 
19

>  <r_i_glide_eff_state_penalty>  (107) 
0

>  <ligand_id>  (107) 
43

>  <original_smiles>  (107) 
C=C1C2C3OC4CC2(O3)C2C3CC5CC3C(O)C5C2(C)C14

>  <smiles>  (107) 
[H]OC1([H])C2([H])C([H])([H])C3([H])C([H])([H])C2([H])C2([H])C45OC6([H])OC([H])(C4([H])[H])C([H])(C(=C([H])[H])C65[H])C2(C([H])([H])[H])C13[H]

$$$$
43:0:2
     RDKit          3D

 43 49  0  0  1  0  0  0  0  0999 V2000
    2.2210   -3.5311   -3.8729 C   0  0  0  0  0  0  0  0  0  0  0  0
    3.0469   -2.9868   -2.9974 C   0  0  0  0  0  0  0  0  0  0  0  0
    3.0830   -1.5324   -2.6589 C   0  0  2  0  0  0  0  0  0  0  0  0
    3.9550   -0.7589   -3.5372 C   0  0  2  0  0  0  0  0  0  0  0  0
    4.9728   -1.7822   -3.9193 O   0  0  0  0  0  0  0  0  0  0  0  0
    5.3977   -2.6829   -2.8134 C   0  0  1  0  0  0  0  0  0  0  0  0
    5.6413   -1.5729   -1.8499 C   0  0  0  0  0  0  0  0  0  0  0  0
    4.2029   -1.1900   -1.6088 C   0  0  1  0  0  0  0  0  0  0  0  0
    4.2340    0.0564   -2.3237 O   0  0  0  0  0  0  0  0  0  0  0  0
    3.7933   -1.9004   -0.3076 C   0  0  2  0  0  0  0  0  0  0  0  0
    4.5777   -1.7757    1.0519 C   0  0  1  0  0  0  0  0  0  0  0  0
    3.5915   -2.5094    1.9905 C   0  0  0  0  0  0  0  0  0  0  0  0
    4.1982   -3.9137    1.8972 C   0  0  2  0  0  0  0  0  0  0  0  0
    5.5306   -3.5025    2.5055 C   0  0  0  0  0  0  0  0  0  0  0  0
    5.8982   -2.6810    1.2676 C   0  0  1  0  0  0  0  0  0  0  0  0
    5.9859   -3.8782    0.2796 C   0  0  1  0  0  0  0  0  0  0  0  0
    6.9104   -4.8962    0.6248 O   0  0  0  0  0  0  0  0  0  0  0  0
    4.5349   -4.3105    0.3760 C   0  0  2  0  0  0  0  0  0  0  0  0
    3.7402   -3.4594   -0.6944 C   0  0  1  0  0  0  0  0  0  0  0  0
    2.2758   -3.9874   -0.5475 C   0  0  0  0  0  0  0  0  0  0  0  0
    4.2039   -3.6080   -2.2534 C   0  0  1  0  0  0  0  0  0  0  0  0
    2.2790   -4.6006   -4.0712 H   0  0  0  0  0  0  0  0  0  0  0  0
    1.4317   -2.9720   -4.3497 H   0  0  0  0  0  0  0  0  0  0  0  0
    2.1578   -1.0527   -2.4241 H   0  0  0  0  0  0  0  0  0  0  0  0
    3.4504   -0.2058   -4.3380 H   0  0  0  0  0  0  0  0  0  0  0  0
    6.3026   -3.2269   -3.0879 H   0  0  0  0  0  0  0  0  0  0  0  0
    6.2344   -1.7235   -0.9686 H   0  0  0  0  0  0  0  0  0  0  0  0
    6.1936   -0.7711   -2.3101 H   0  0  0  0  0  0  0  0  0  0  0  0
    2.7828   -1.5341   -0.1070 H   0  0  0  0  0  0  0  0  0  0  0  0
    4.7080   -0.7366    1.3595 H   0  0  0  0  0  0  0  0  0  0  0  0
    3.6074   -2.1018    3.0027 H   0  0  0  0  0  0  0  0  0  0  0  0
    2.5389   -2.4734    1.7164 H   0  0  0  0  0  0  0  0  0  0  0  0
    3.6619   -4.6729    2.4702 H   0  0  0  0  0  0  0  0  0  0  0  0
    5.4804   -2.9057    3.4168 H   0  0  0  0  0  0  0  0  0  0  0  0
    6.1766   -4.3418    2.7586 H   0  0  0  0  0  0  0  0  0  0  0  0
    6.8245   -2.1140    1.3640 H   0  0  0  0  0  0  0  0  0  0  0  0
    6.3045   -3.6946   -0.7308 H   0  0  0  0  0  0  0  0  0  0  0  0
    7.7753   -4.5231    0.6254 H   0  0  0  0  0  0  0  0  0  0  0  0
    4.4306   -5.3777    0.1895 H   0  0  0  0  0  0  0  0  0  0  0  0
    2.1322   -4.9345   -1.0585 H   0  0  0  0  0  0  0  0  0  0  0  0
    1.5338   -3.2995   -0.9567 H   0  0  0  0  0  0  0  0  0  0  0  0
    1.9958   -4.1752    0.4883 H   0  0  0  0  0  0  0  0  0  0  0  0
    4.3953   -4.6368   -2.5552 H   0  0  0  0  0  0  0  0  0  0  0  0
  1  2  2  0
  1 22  1  0
  1 23  1  0
  2 21  1  0
  2  3  1  0
  3  8  1  0
  3  4  1  0
  3 24  1  1
  4  9  1  0
  4  5  1  0
  4 25  1  6
  5  6  1  0
  6 21  1  0
  6  7  1  0
  6 26  1  6
  7  8  1  0
  7 27  1  0
  7 28  1  0
  8  9  1  1
  8 10  1  0
 10 19  1  0
 10 11  1  0
 10 29  1  1
 11 15  1  0
 11 12  1  0
 11 30  1  1
 12 13  1  0
 12 31  1  0
 12 32  1  0
 13 18  1  0
 13 14  1  0
 13 33  1  1
 14 15  1  0
 14 34  1  0
 14 35  1  0
 15 16  1  0
 15 36  1  1
 16 17  1  0
 16 18  1  0
 16 37  1  6
 17 38  1  0
 18 19  1  0
 18 39  1  1
 19 20  1  6
 19 21  1  0
 20 40  1  0
 20 41  1  0
 20 42  1  0
 21 43  1  6
M  END
>  <i_m_ct_stereo_status>  (108) 
1

>  <s_m_source_file>  (108) 
/var/tmp/pbs.5076255.sched01/tmpav68hifr/35m6z7vsub.sdf

>  <i_m_source_file_index>  (108) 
15

>  <i_lp_mmshare_version>  (108) 
48012

>  <i_f3d_flags>  (108) 
0

>  <s_epik_input>  (108) 
W0NAXTEyM1tDQEhdNFtDQEBIXShPMilPW0NAQEhdKFtDSDJdMSlbQ0BIXShDND1bQ0gyXSlbQ0BdNShbQ0gzXSlbQ0BIXTNbQ0BASF02W0NASF03W0NIMl1bQ0BASF0oW0NIMl02KVtDQEBIXTVbQ0BASF03W09IXQ==

>  <s_epik_cmdline>  (108) 
J2VwaWtfcHl0aG9uJywgJy1waHQnLCAnMi4wJywgJy1waCcsICc3LjAnLCAnLXRuJywgJzgnLCAnLW1hJywgJzIwMCcsICctaW1hZScsICc8aW5maWxlLm1hZT4nLCAnLW9tYWUnLCAnPG91dGZpbGUubWFlPic=

>  <r_lp_tautomer_probability>  (108) 
1

>  <r_epik_Ionization_Penalty>  (108) 
1.76537e-06

>  <r_epik_Ionization_Penalty_Charging>  (108) 
0

>  <r_epik_Ionization_Penalty_Neutral>  (108) 
1.76537e-06

>  <r_epik_State_Penalty>  (108) 
-0

>  <r_epik_Charging_Adjusted_Penalty>  (108) 
0

>  <i_epik_Tot_Q>  (108) 
0

>  <i_epik_Tot_abs_Q>  (108) 
0

>  <s_epik_Chemistry_Notes>  (108) 
This compound contains an acetal/aminal-like group ( X-CH(R)-Y where X, Y are N, S, or O) that may be acid/base labile, releasing an aldehyde.

>  <s_lp_Force_Field>  (108) 
OPLS3e

>  <r_lp_Energy>  (108) 
210.505

>  <b_lp_Chiralities_Consistent>  (108) 
1

>  <s_lp_Variant>  (108) 
43:0-1

>  <s_i_glide_gridfile>  (108) 
pfpi4k_grid

>  <i_i_glide_lignum>  (108) 
15

>  <i_i_glide_rotatable_bonds>  (108) 
1

>  <r_i_docking_score>  (108) 
-2.95084

>  <r_i_glide_ligand_efficiency>  (108) 
-0.140516

>  <r_i_glide_ligand_efficiency_sa>  (108) 
-0.387674

>  <r_i_glide_ligand_efficiency_ln>  (108) 
-0.729589

>  <r_i_glide_gscore>  (108) 
-2.95084

>  <r_i_glide_lipo>  (108) 
-0.540692

>  <r_i_glide_hbond>  (108) 
-0.00283444

>  <r_i_glide_metal>  (108) 
-0

>  <r_i_glide_rewards>  (108) 
-1.77545

>  <r_i_glide_evdw>  (108) 
-5.95334

>  <r_i_glide_ecoul>  (108) 
-2.22798

>  <r_i_glide_erotb>  (108) 
0

>  <r_i_glide_esite>  (108) 
0

>  <r_i_glide_emodel>  (108) 
-8.34617

>  <r_i_glide_energy>  (108) 
-8.18132

>  <r_i_glide_einternal>  (108) 
0.337845

>  <r_i_glide_intrahb_reward>  (108) 
-0

>  <i_i_glide_confnum>  (108) 
2

>  <i_i_glide_posenum>  (108) 
6

>  <r_i_glide_eff_state_penalty>  (108) 
0

>  <ligand_id>  (108) 
43

>  <original_smiles>  (108) 
C=C1C2C3OC4CC2(O3)C2C3CC5CC3C(O)C5C2(C)C14

>  <smiles>  (108) 
[H]OC1([H])C2([H])C([H])([H])C3([H])C([H])([H])C2([H])C2([H])C45OC6([H])OC([H])(C4([H])[H])C([H])(C(=C([H])[H])C65[H])C2(C([H])([H])[H])C13[H]

$$$$
44:0:0
     RDKit          3D

 41 43  0  0  1  0  0  0  0  0999 V2000
    4.1875   -1.2191   -4.2299 C   0  0  0  0  0  0  0  0  0  0  0  0
    2.9477   -1.4940   -3.3782 C   0  0  0  0  0  0  0  0  0  0  0  0
    3.1971   -2.5361   -2.2887 C   0  0  0  0  0  0  0  0  0  0  0  0
    4.2783   -2.0969   -1.4755 O   0  0  0  0  0  0  0  0  0  0  0  0
    4.7581   -3.0032   -0.5675 C   0  0  0  0  0  0  0  0  0  0  0  0
    3.9724   -3.8742    0.1129 C   0  0  0  0  0  0  0  0  0  0  0  0
    4.5366   -4.8654    1.0095 C   0  0  0  0  0  0  0  0  0  0  0  0
    3.7689   -5.7268    1.6833 C   0  0  0  0  0  0  0  0  0  0  0  0
    2.4008   -5.7929    1.6333 O   0  0  0  0  0  0  0  0  0  0  0  0
    2.0113   -6.8570    2.5182 C   0  0  0  0  0  0  0  0  0  0  0  0
    1.1184   -6.2520    3.6148 C   0  0  0  0  0  0  0  0  0  0  0  0
    1.2700   -7.9140    1.6832 C   0  0  0  0  0  0  0  0  0  0  0  0
    3.3282   -7.3830    3.0745 C   0  0  0  0  0  0  0  0  0  0  0  0
    3.3871   -8.5303    4.0712 C   0  0  0  0  0  0  0  0  0  0  0  0
    4.3371   -6.6855    2.5514 C   0  0  0  0  0  0  0  0  0  0  0  0
    5.8331   -6.7891    2.7589 C   0  0  0  0  0  0  0  0  0  0  0  0
    6.6128   -5.8376    2.0038 O   0  0  0  0  0  0  0  0  0  0  0  0
    5.9920   -4.9232    1.1705 C   0  0  0  0  0  0  0  0  0  0  0  0
    6.7868   -4.0665    0.4952 C   0  0  0  0  0  0  0  0  0  0  0  0
    6.2339   -3.0472   -0.4251 C   0  0  0  0  0  0  0  0  0  0  0  0
    6.9697   -2.2748   -1.0432 O   0  0  0  0  0  0  0  0  0  0  0  0
    3.9696   -0.4799   -5.0013 H   0  0  0  0  0  0  0  0  0  0  0  0
    4.5354   -2.1314   -4.7108 H   0  0  0  0  0  0  0  0  0  0  0  0
    4.9980   -0.8343   -3.6100 H   0  0  0  0  0  0  0  0  0  0  0  0
    2.6116   -0.5682   -2.9093 H   0  0  0  0  0  0  0  0  0  0  0  0
    2.1402   -1.8524   -4.0182 H   0  0  0  0  0  0  0  0  0  0  0  0
    2.2784   -2.6565   -1.7138 H   0  0  0  0  0  0  0  0  0  0  0  0
    3.4498   -3.4980   -2.7383 H   0  0  0  0  0  0  0  0  0  0  0  0
    2.8968   -3.8434    0.0003 H   0  0  0  0  0  0  0  0  0  0  0  0
    0.7751   -7.0061    4.3245 H   0  0  0  0  0  0  0  0  0  0  0  0
    0.2376   -5.7822    3.1817 H   0  0  0  0  0  0  0  0  0  0  0  0
    1.6543   -5.4878    4.1754 H   0  0  0  0  0  0  0  0  0  0  0  0
    0.9301   -8.7530    2.2922 H   0  0  0  0  0  0  0  0  0  0  0  0
    1.9138   -8.3183    0.9042 H   0  0  0  0  0  0  0  0  0  0  0  0
    0.3957   -7.4852    1.1957 H   0  0  0  0  0  0  0  0  0  0  0  0
    2.8466   -8.2743    4.9843 H   0  0  0  0  0  0  0  0  0  0  0  0
    4.4136   -8.7780    4.3450 H   0  0  0  0  0  0  0  0  0  0  0  0
    2.9263   -9.4260    3.6505 H   0  0  0  0  0  0  0  0  0  0  0  0
    6.0578   -6.6493    3.8176 H   0  0  0  0  0  0  0  0  0  0  0  0
    6.1630   -7.7922    2.4844 H   0  0  0  0  0  0  0  0  0  0  0  0
    7.8603   -4.1103    0.6133 H   0  0  0  0  0  0  0  0  0  0  0  0
  1  2  1  0
  1 22  1  0
  1 23  1  0
  1 24  1  0
  2  3  1  0
  2 25  1  0
  2 26  1  0
  3  4  1  0
  3 27  1  0
  3 28  1  0
  4  5  1  0
  5 20  1  0
  5  6  2  0
  6  7  1  0
  6 29  1  0
  7 18  1  0
  7  8  2  0
  8 15  1  0
  8  9  1  0
  9 10  1  0
 10 11  1  0
 10 12  1  0
 10 13  1  0
 11 30  1  0
 11 31  1  0
 11 32  1  0
 12 33  1  0
 12 34  1  0
 12 35  1  0
 13 14  1  0
 13 15  2  0
 14 36  1  0
 14 37  1  0
 14 38  1  0
 15 16  1  0
 16 17  1  0
 16 39  1  0
 16 40  1  0
 17 18  1  0
 18 19  2  0
 19 20  1  0
 19 41  1  0
 20 21  2  0
M  END
>  <i_m_ct_stereo_status>  (109) 
1

>  <s_m_source_file>  (109) 
/var/tmp/pbs.5076255.sched01/tmpav68hifr/35m6z7vsub.sdf

>  <i_m_source_file_index>  (109) 
16

>  <i_lp_mmshare_version>  (109) 
48012

>  <i_f3d_flags>  (109) 
0

>  <s_epik_input>  (109) 
W0NIM11bQ0gyXVtDSDJdT0MoPVtDSF0xKUMoPU8pW0NIXT1DMk9bQ0gyXUMoQzM9QzEyKT1DKFtDSDNdKUMoTzMpKFtDSDNdKVtDSDNd

>  <s_epik_cmdline>  (109) 
J2VwaWtfcHl0aG9uJywgJy1waHQnLCAnMi4wJywgJy1waCcsICc3LjAnLCAnLXRuJywgJzgnLCAnLW1hJywgJzIwMCcsICctaW1hZScsICc8aW5maWxlLm1hZT4nLCAnLW9tYWUnLCAnPG91dGZpbGUubWFlPic=

>  <r_lp_tautomer_probability>  (109) 
1

>  <r_epik_Ionization_Penalty>  (109) 
0

>  <r_epik_Ionization_Penalty_Charging>  (109) 
0

>  <r_epik_Ionization_Penalty_Neutral>  (109) 
0

>  <r_epik_State_Penalty>  (109) 
-0

>  <r_epik_Charging_Adjusted_Penalty>  (109) 
0

>  <i_epik_Tot_Q>  (109) 
0

>  <i_epik_Tot_abs_Q>  (109) 
0

>  <s_lp_Force_Field>  (109) 
OPLS3e

>  <r_lp_Energy>  (109) 
17.748

>  <b_lp_Chiralities_Consistent>  (109) 
1

>  <s_lp_Variant>  (109) 
44:0-1

>  <s_i_glide_gridfile>  (109) 
pfpi4k_grid

>  <i_i_glide_lignum>  (109) 
16

>  <i_i_glide_rotatable_bonds>  (109) 
3

>  <r_i_docking_score>  (109) 
-3.09519

>  <r_i_glide_ligand_efficiency>  (109) 
-0.14739

>  <r_i_glide_ligand_efficiency_sa>  (109) 
-0.406638

>  <r_i_glide_ligand_efficiency_ln>  (109) 
-0.76528

>  <r_i_glide_gscore>  (109) 
-3.09519

>  <r_i_glide_lipo>  (109) 
-0.397878

>  <r_i_glide_hbond>  (109) 
-0.16

>  <r_i_glide_metal>  (109) 
-0

>  <r_i_glide_rewards>  (109) 
-1.50872

>  <r_i_glide_evdw>  (109) 
-22.172

>  <r_i_glide_ecoul>  (109) 
-2.38402

>  <r_i_glide_erotb>  (109) 
0.437606

>  <r_i_glide_esite>  (109) 
0

>  <r_i_glide_emodel>  (109) 
-29.2923

>  <r_i_glide_energy>  (109) 
-24.556

>  <r_i_glide_einternal>  (109) 
0.611933

>  <r_i_glide_intrahb_reward>  (109) 
-0

>  <i_i_glide_confnum>  (109) 
3

>  <i_i_glide_posenum>  (109) 
18

>  <r_i_glide_eff_state_penalty>  (109) 
0

>  <ligand_id>  (109) 
44

>  <original_smiles>  (109) 
CCCOC1=CC2=C3OC(C)(C)C(C)=C3COC2=CC1=O

>  <smiles>  (109) 
[H]C1=C(OC([H])([H])C([H])([H])C([H])([H])[H])C(=O)C([H])=C2OC([H])([H])C3=C(C([H])([H])[H])C(C([H])([H])[H])(C([H])([H])[H])OC3=C12

$$$$
44:0:1
     RDKit          3D

 41 43  0  0  1  0  0  0  0  0999 V2000
    3.6050    0.1489    1.8261 C   0  0  0  0  0  0  0  0  0  0  0  0
    2.3333   -0.6528    2.1131 C   0  0  0  0  0  0  0  0  0  0  0  0
    2.6210   -2.1370    2.3504 C   0  0  0  0  0  0  0  0  0  0  0  0
    3.1664   -2.6974    1.1587 O   0  0  0  0  0  0  0  0  0  0  0  0
    3.3244   -4.0603    1.1155 C   0  0  0  0  0  0  0  0  0  0  0  0
    2.4437   -4.9434    1.6459 C   0  0  0  0  0  0  0  0  0  0  0  0
    2.6815   -6.3728    1.6138 C   0  0  0  0  0  0  0  0  0  0  0  0
    1.8023   -7.2415    2.1184 C   0  0  0  0  0  0  0  0  0  0  0  0
    0.6027   -6.9225    2.7005 O   0  0  0  0  0  0  0  0  0  0  0  0
   -0.0010   -8.1666    3.0966 C   0  0  0  0  0  0  0  0  0  0  0  0
   -0.1848   -8.1408    4.6220 C   0  0  0  0  0  0  0  0  0  0  0  0
   -1.3417   -8.2882    2.3560 C   0  0  0  0  0  0  0  0  0  0  0  0
    1.0024   -9.2234    2.6571 C   0  0  0  0  0  0  0  0  0  0  0  0
    0.7613  -10.7071    2.8767 C   0  0  0  0  0  0  0  0  0  0  0  0
    2.0494   -8.6301    2.0831 C   0  0  0  0  0  0  0  0  0  0  0  0
    3.3101   -9.2023    1.4718 C   0  0  0  0  0  0  0  0  0  0  0  0
    4.2267   -8.2186    0.9482 O   0  0  0  0  0  0  0  0  0  0  0  0
    3.9236   -6.8702    1.0200 C   0  0  0  0  0  0  0  0  0  0  0  0
    4.8182   -6.0060    0.5004 C   0  0  0  0  0  0  0  0  0  0  0  0
    4.5880   -4.5454    0.5045 C   0  0  0  0  0  0  0  0  0  0  0  0
    5.4199   -3.7738    0.0309 O   0  0  0  0  0  0  0  0  0  0  0  0
    3.3658    1.1995    1.6549 H   0  0  0  0  0  0  0  0  0  0  0  0
    4.1139   -0.2288    0.9378 H   0  0  0  0  0  0  0  0  0  0  0  0
    4.3005    0.0909    2.6642 H   0  0  0  0  0  0  0  0  0  0  0  0
    1.8330   -0.2410    2.9911 H   0  0  0  0  0  0  0  0  0  0  0  0
    1.6354   -0.5489    1.2808 H   0  0  0  0  0  0  0  0  0  0  0  0
    3.3316   -2.2662    3.1693 H   0  0  0  0  0  0  0  0  0  0  0  0
    1.6823   -2.5966    2.6486 H   0  0  0  0  0  0  0  0  0  0  0  0
    1.5290   -4.6003    2.1070 H   0  0  0  0  0  0  0  0  0  0  0  0
   -0.6507   -9.0560    4.9905 H   0  0  0  0  0  0  0  0  0  0  0  0
   -0.8163   -7.3072    4.9233 H   0  0  0  0  0  0  0  0  0  0  0  0
    0.7727   -8.0313    5.1280 H   0  0  0  0  0  0  0  0  0  0  0  0
   -1.8662   -9.2116    2.6076 H   0  0  0  0  0  0  0  0  0  0  0  0
   -1.1829   -8.2778    1.2808 H   0  0  0  0  0  0  0  0  0  0  0  0
   -2.0004   -7.4568    2.6006 H   0  0  0  0  0  0  0  0  0  0  0  0
    0.6524  -10.9317    3.9398 H   0  0  0  0  0  0  0  0  0  0  0  0
    1.5851  -11.3067    2.4896 H   0  0  0  0  0  0  0  0  0  0  0  0
   -0.1511  -11.0181    2.3655 H   0  0  0  0  0  0  0  0  0  0  0  0
    3.8384   -9.7930    2.2220 H   0  0  0  0  0  0  0  0  0  0  0  0
    3.0347   -9.8638    0.6515 H   0  0  0  0  0  0  0  0  0  0  0  0
    5.7408   -6.3659    0.0709 H   0  0  0  0  0  0  0  0  0  0  0  0
  1  2  1  0
  1 22  1  0
  1 23  1  0
  1 24  1  0
  2  3  1  0
  2 25  1  0
  2 26  1  0
  3  4  1  0
  3 27  1  0
  3 28  1  0
  4  5  1  0
  5 20  1  0
  5  6  2  0
  6  7  1  0
  6 29  1  0
  7 18  1  0
  7  8  2  0
  8 15  1  0
  8  9  1  0
  9 10  1  0
 10 11  1  0
 10 12  1  0
 10 13  1  0
 11 30  1  0
 11 31  1  0
 11 32  1  0
 12 33  1  0
 12 34  1  0
 12 35  1  0
 13 14  1  0
 13 15  2  0
 14 36  1  0
 14 37  1  0
 14 38  1  0
 15 16  1  0
 16 17  1  0
 16 39  1  0
 16 40  1  0
 17 18  1  0
 18 19  2  0
 19 20  1  0
 19 41  1  0
 20 21  2  0
M  END
>  <i_m_ct_stereo_status>  (110) 
1

>  <s_m_source_file>  (110) 
/var/tmp/pbs.5076255.sched01/tmpav68hifr/35m6z7vsub.sdf

>  <i_m_source_file_index>  (110) 
16

>  <i_lp_mmshare_version>  (110) 
48012

>  <i_f3d_flags>  (110) 
0

>  <s_epik_input>  (110) 
W0NIM11bQ0gyXVtDSDJdT0MoPVtDSF0xKUMoPU8pW0NIXT1DMk9bQ0gyXUMoQzM9QzEyKT1DKFtDSDNdKUMoTzMpKFtDSDNdKVtDSDNd

>  <s_epik_cmdline>  (110) 
J2VwaWtfcHl0aG9uJywgJy1waHQnLCAnMi4wJywgJy1waCcsICc3LjAnLCAnLXRuJywgJzgnLCAnLW1hJywgJzIwMCcsICctaW1hZScsICc8aW5maWxlLm1hZT4nLCAnLW9tYWUnLCAnPG91dGZpbGUubWFlPic=

>  <r_lp_tautomer_probability>  (110) 
1

>  <r_epik_Ionization_Penalty>  (110) 
0

>  <r_epik_Ionization_Penalty_Charging>  (110) 
0

>  <r_epik_Ionization_Penalty_Neutral>  (110) 
0

>  <r_epik_State_Penalty>  (110) 
-0

>  <r_epik_Charging_Adjusted_Penalty>  (110) 
0

>  <i_epik_Tot_Q>  (110) 
0

>  <i_epik_Tot_abs_Q>  (110) 
0

>  <s_lp_Force_Field>  (110) 
OPLS3e

>  <r_lp_Energy>  (110) 
17.748

>  <b_lp_Chiralities_Consistent>  (110) 
1

>  <s_lp_Variant>  (110) 
44:0-1

>  <s_i_glide_gridfile>  (110) 
pfpi4k_grid

>  <i_i_glide_lignum>  (110) 
16

>  <i_i_glide_rotatable_bonds>  (110) 
3

>  <r_i_docking_score>  (110) 
-2.89903

>  <r_i_glide_ligand_efficiency>  (110) 
-0.138049

>  <r_i_glide_ligand_efficiency_sa>  (110) 
-0.380867

>  <r_i_glide_ligand_efficiency_ln>  (110) 
-0.716779

>  <r_i_glide_gscore>  (110) 
-2.89903

>  <r_i_glide_lipo>  (110) 
-0.38968

>  <r_i_glide_hbond>  (110) 
0

>  <r_i_glide_metal>  (110) 
-0

>  <r_i_glide_rewards>  (110) 
-1.50212

>  <r_i_glide_evdw>  (110) 
-24.3325

>  <r_i_glide_ecoul>  (110) 
-1.52142

>  <r_i_glide_erotb>  (110) 
0.437606

>  <r_i_glide_esite>  (110) 
0

>  <r_i_glide_emodel>  (110) 
-29.9909

>  <r_i_glide_energy>  (110) 
-25.8539

>  <r_i_glide_einternal>  (110) 
1.21407

>  <r_i_glide_intrahb_reward>  (110) 
-0

>  <i_i_glide_confnum>  (110) 
6

>  <i_i_glide_posenum>  (110) 
28

>  <r_i_glide_eff_state_penalty>  (110) 
0

>  <ligand_id>  (110) 
44

>  <original_smiles>  (110) 
CCCOC1=CC2=C3OC(C)(C)C(C)=C3COC2=CC1=O

>  <smiles>  (110) 
[H]C1=C(OC([H])([H])C([H])([H])C([H])([H])[H])C(=O)C([H])=C2OC([H])([H])C3=C(C([H])([H])[H])C(C([H])([H])[H])(C([H])([H])[H])OC3=C12

$$$$
44:0:2
     RDKit          3D

 41 43  0  0  1  0  0  0  0  0999 V2000
    3.0057   -0.2249    2.9673 C   0  0  0  0  0  0  0  0  0  0  0  0
    2.6408   -0.6111    1.5279 C   0  0  0  0  0  0  0  0  0  0  0  0
    2.5331   -2.1280    1.3528 C   0  0  0  0  0  0  0  0  0  0  0  0
    3.8006   -2.7310    1.5987 O   0  0  0  0  0  0  0  0  0  0  0  0
    3.8483   -4.1041    1.5818 C   0  0  0  0  0  0  0  0  0  0  0  0
    2.8437   -4.8943    2.0298 C   0  0  0  0  0  0  0  0  0  0  0  0
    2.9088   -6.3413    1.9174 C   0  0  0  0  0  0  0  0  0  0  0  0
    1.9130   -7.1200    2.3422 C   0  0  0  0  0  0  0  0  0  0  0  0
    0.7487   -6.6885    2.9169 O   0  0  0  0  0  0  0  0  0  0  0  0
   -0.0108   -7.8670    3.2318 C   0  0  0  0  0  0  0  0  0  0  0  0
   -0.2388   -7.9011    4.7522 C   0  0  0  0  0  0  0  0  0  0  0  0
   -1.3334   -7.7888    2.4555 C   0  0  0  0  0  0  0  0  0  0  0  0
    0.8684   -9.0156    2.7555 C   0  0  0  0  0  0  0  0  0  0  0  0
    0.4405  -10.4651    2.8827 C   0  0  0  0  0  0  0  0  0  0  0  0
    1.9930   -8.5252    2.2339 C   0  0  0  0  0  0  0  0  0  0  0  0
    3.1931   -9.2164    1.6197 C   0  0  0  0  0  0  0  0  0  0  0  0
    4.2351   -8.3218    1.1646 O   0  0  0  0  0  0  0  0  0  0  0  0
    4.0956   -6.9534    1.3166 C   0  0  0  0  0  0  0  0  0  0  0  0
    5.1101   -6.1768    0.8763 C   0  0  0  0  0  0  0  0  0  0  0  0
    5.0590   -4.7011    0.9637 C   0  0  0  0  0  0  0  0  0  0  0  0
    5.9861   -4.0116    0.5419 O   0  0  0  0  0  0  0  0  0  0  0  0
    3.0672    0.8598    3.0688 H   0  0  0  0  0  0  0  0  0  0  0  0
    3.9701   -0.6447    3.2564 H   0  0  0  0  0  0  0  0  0  0  0  0
    2.2603   -0.5889    3.6776 H   0  0  0  0  0  0  0  0  0  0  0  0
    1.6741   -0.1676    1.2802 H   0  0  0  0  0  0  0  0  0  0  0  0
    3.3720   -0.2044    0.8272 H   0  0  0  0  0  0  0  0  0  0  0  0
    1.7535   -2.4792    2.0273 H   0  0  0  0  0  0  0  0  0  0  0  0
    2.2384   -2.3701    0.3304 H   0  0  0  0  0  0  0  0  0  0  0  0
    1.9641   -4.4655    2.4928 H   0  0  0  0  0  0  0  0  0  0  0  0
   -0.8205   -8.7726    5.0550 H   0  0  0  0  0  0  0  0  0  0  0  0
   -0.7747   -7.0142    5.0865 H   0  0  0  0  0  0  0  0  0  0  0  0
    0.7087   -7.9353    5.2855 H   0  0  0  0  0  0  0  0  0  0  0  0
   -1.9744   -8.6494    2.6475 H   0  0  0  0  0  0  0  0  0  0  0  0
   -1.1348   -7.7559    1.3854 H   0  0  0  0  0  0  0  0  0  0  0  0
   -1.8941   -6.8977    2.7292 H   0  0  0  0  0  0  0  0  0  0  0  0
    0.2750  -10.7267    3.9291 H   0  0  0  0  0  0  0  0  0  0  0  0
    1.1931  -11.1416    2.4810 H   0  0  0  0  0  0  0  0  0  0  0  0
   -0.4895  -10.6379    2.3389 H   0  0  0  0  0  0  0  0  0  0  0  0
    3.6257   -9.8984    2.3537 H   0  0  0  0  0  0  0  0  0  0  0  0
    2.8625   -9.8155    0.7687 H   0  0  0  0  0  0  0  0  0  0  0  0
    5.9912   -6.6266    0.4400 H   0  0  0  0  0  0  0  0  0  0  0  0
  1  2  1  0
  1 22  1  0
  1 23  1  0
  1 24  1  0
  2  3  1  0
  2 25  1  0
  2 26  1  0
  3  4  1  0
  3 27  1  0
  3 28  1  0
  4  5  1  0
  5 20  1  0
  5  6  2  0
  6  7  1  0
  6 29  1  0
  7 18  1  0
  7  8  2  0
  8 15  1  0
  8  9  1  0
  9 10  1  0
 10 11  1  0
 10 12  1  0
 10 13  1  0
 11 30  1  0
 11 31  1  0
 11 32  1  0
 12 33  1  0
 12 34  1  0
 12 35  1  0
 13 14  1  0
 13 15  2  0
 14 36  1  0
 14 37  1  0
 14 38  1  0
 15 16  1  0
 16 17  1  0
 16 39  1  0
 16 40  1  0
 17 18  1  0
 18 19  2  0
 19 20  1  0
 19 41  1  0
 20 21  2  0
M  END
>  <i_m_ct_stereo_status>  (111) 
1

>  <s_m_source_file>  (111) 
/var/tmp/pbs.5076255.sched01/tmpav68hifr/35m6z7vsub.sdf

>  <i_m_source_file_index>  (111) 
16

>  <i_lp_mmshare_version>  (111) 
48012

>  <i_f3d_flags>  (111) 
0

>  <s_epik_input>  (111) 
W0NIM11bQ0gyXVtDSDJdT0MoPVtDSF0xKUMoPU8pW0NIXT1DMk9bQ0gyXUMoQzM9QzEyKT1DKFtDSDNdKUMoTzMpKFtDSDNdKVtDSDNd

>  <s_epik_cmdline>  (111) 
J2VwaWtfcHl0aG9uJywgJy1waHQnLCAnMi4wJywgJy1waCcsICc3LjAnLCAnLXRuJywgJzgnLCAnLW1hJywgJzIwMCcsICctaW1hZScsICc8aW5maWxlLm1hZT4nLCAnLW9tYWUnLCAnPG91dGZpbGUubWFlPic=

>  <r_lp_tautomer_probability>  (111) 
1

>  <r_epik_Ionization_Penalty>  (111) 
0

>  <r_epik_Ionization_Penalty_Charging>  (111) 
0

>  <r_epik_Ionization_Penalty_Neutral>  (111) 
0

>  <r_epik_State_Penalty>  (111) 
-0

>  <r_epik_Charging_Adjusted_Penalty>  (111) 
0

>  <i_epik_Tot_Q>  (111) 
0

>  <i_epik_Tot_abs_Q>  (111) 
0

>  <s_lp_Force_Field>  (111) 
OPLS3e

>  <r_lp_Energy>  (111) 
17.748

>  <b_lp_Chiralities_Consistent>  (111) 
1

>  <s_lp_Variant>  (111) 
44:0-1

>  <s_i_glide_gridfile>  (111) 
pfpi4k_grid

>  <i_i_glide_lignum>  (111) 
16

>  <i_i_glide_rotatable_bonds>  (111) 
3

>  <r_i_docking_score>  (111) 
-2.79235

>  <r_i_glide_ligand_efficiency>  (111) 
-0.132969

>  <r_i_glide_ligand_efficiency_sa>  (111) 
-0.366852

>  <r_i_glide_ligand_efficiency_ln>  (111) 
-0.690404

>  <r_i_glide_gscore>  (111) 
-2.79235

>  <r_i_glide_lipo>  (111) 
-0.310482

>  <r_i_glide_hbond>  (111) 
0

>  <r_i_glide_metal>  (111) 
-0

>  <r_i_glide_rewards>  (111) 
-1.51033

>  <r_i_glide_evdw>  (111) 
-22.9483

>  <r_i_glide_ecoul>  (111) 
-1.74487

>  <r_i_glide_erotb>  (111) 
0.437606

>  <r_i_glide_esite>  (111) 
0

>  <r_i_glide_emodel>  (111) 
-28.862

>  <r_i_glide_energy>  (111) 
-24.6932

>  <r_i_glide_einternal>  (111) 
0.627569

>  <r_i_glide_intrahb_reward>  (111) 
-0

>  <i_i_glide_confnum>  (111) 
2

>  <i_i_glide_posenum>  (111) 
25

>  <r_i_glide_eff_state_penalty>  (111) 
0

>  <ligand_id>  (111) 
44

>  <original_smiles>  (111) 
CCCOC1=CC2=C3OC(C)(C)C(C)=C3COC2=CC1=O

>  <smiles>  (111) 
[H]C1=C(OC([H])([H])C([H])([H])C([H])([H])[H])C(=O)C([H])=C2OC([H])([H])C3=C(C([H])([H])[H])C(C([H])([H])[H])(C([H])([H])[H])OC3=C12

$$$$
45:1:0
     RDKit          3D

 43 46  0  0  1  0  0  0  0  0999 V2000
    2.7422   -3.5824   -3.2734 C   0  0  0  0  0  0  0  0  0  0  0  0
    2.6356   -2.7823   -1.9843 C   0  0  0  0  0  0  0  0  0  0  0  0
    2.1403   -3.3315   -0.8213 C   0  0  0  0  0  0  0  0  0  0  0  0
    2.5161   -4.6201   -0.2100 C   0  0  0  0  0  0  0  0  0  0  0  0
    3.6682   -4.7765    0.5288 C   0  0  0  0  0  0  0  0  0  0  0  0
    5.0159   -4.6391   -0.1198 C   0  0  0  0  0  0  0  0  0  0  0  0
    5.5150   -3.2248    0.3952 C   0  0  2  0  0  0  0  0  0  0  0  0
    4.5714   -2.1243    0.0704 C   0  0  0  0  0  0  0  0  0  0  0  0
    4.7510   -1.9171   -1.4511 C   0  0  2  0  0  0  0  0  0  0  0  0
    5.6113   -2.8783   -2.3310 C   0  0  0  0  0  0  0  0  0  0  0  0
    6.7675   -3.1385   -1.7141 C   0  0  0  0  0  0  0  0  0  0  0  0
    6.6592   -2.4060   -0.4195 C   0  0  2  0  0  0  0  0  0  0  0  0
    8.0148   -2.1786    0.2850 C   0  0  0  0  0  0  0  0  0  0  0  0
    5.9661   -1.0899   -1.1028 C   0  0  0  0  0  0  0  0  0  0  0  0
    3.4233   -1.5977   -2.0009 N   0  0  0  0  0  0  0  0  0  0  0  0
    3.3932   -0.6722   -3.1224 C   0  0  0  0  0  0  0  0  0  0  0  0
    5.3419   -3.5602    1.9002 C   0  0  1  0  0  0  0  0  0  0  0  0
    5.4712   -2.4502    2.9544 C   0  0  0  0  0  0  0  0  0  0  0  0
    3.9267   -4.2191    1.8777 C   0  0  0  0  0  0  0  0  0  0  0  0
    3.0823   -4.0743    2.7642 O   0  0  0  0  0  0  0  0  0  0  0  0
    1.8829   -4.2493   -3.3548 H   0  0  0  0  0  0  0  0  0  0  0  0
    3.6009   -4.2401   -3.1693 H   0  0  0  0  0  0  0  0  0  0  0  0
    2.8014   -2.9802   -4.1994 H   0  0  0  0  0  0  0  0  0  0  0  0
    1.8642   -2.6402   -0.0493 H   0  0  0  0  0  0  0  0  0  0  0  0
    2.5483   -5.1737   -1.0728 H   0  0  0  0  0  0  0  0  0  0  0  0
    5.6865   -5.4212    0.2284 H   0  0  0  0  0  0  0  0  0  0  0  0
    4.9085   -4.8239   -1.1826 H   0  0  0  0  0  0  0  0  0  0  0  0
    3.6023   -2.1299    0.4867 H   0  0  0  0  0  0  0  0  0  0  0  0
    4.7513   -1.2707    0.7205 H   0  0  0  0  0  0  0  0  0  0  0  0
    5.3879   -3.1594   -3.3471 H   0  0  0  0  0  0  0  0  0  0  0  0
    7.6224   -3.6934   -2.0792 H   0  0  0  0  0  0  0  0  0  0  0  0
    7.8941   -1.4773    1.1091 H   0  0  0  0  0  0  0  0  0  0  0  0
    8.7720   -1.7577   -0.3834 H   0  0  0  0  0  0  0  0  0  0  0  0
    8.4219   -3.1115    0.6824 H   0  0  0  0  0  0  0  0  0  0  0  0
    6.3019   -0.7500   -2.0706 H   0  0  0  0  0  0  0  0  0  0  0  0
    5.8939   -0.2029   -0.4688 H   0  0  0  0  0  0  0  0  0  0  0  0
    2.3576   -0.4710   -3.3934 H   0  0  0  0  0  0  0  0  0  0  0  0
    3.9081   -1.0705   -3.9991 H   0  0  0  0  0  0  0  0  0  0  0  0
    3.8551    0.2743   -2.8403 H   0  0  0  0  0  0  0  0  0  0  0  0
    6.0253   -4.3525    2.1804 H   0  0  0  0  0  0  0  0  0  0  0  0
    5.4349   -2.8851    3.9584 H   0  0  0  0  0  0  0  0  0  0  0  0
    4.6883   -1.6883    2.8986 H   0  0  0  0  0  0  0  0  0  0  0  0
    6.4296   -1.9475    2.8693 H   0  0  0  0  0  0  0  0  0  0  0  0
  1  2  1  0
  1 21  1  0
  1 22  1  0
  1 23  1  0
  2 15  1  0
  2  3  2  3
  3  4  1  0
  3 24  1  0
  4  5  2  3
  4 25  1  0
  5 19  1  0
  5  6  1  0
  7  6  1  6
  6 26  1  0
  6 27  1  0
  7 12  1  0
  7  8  1  0
  7 17  1  0
  8  9  1  0
  8 28  1  0
  8 29  1  0
  9 14  1  0
  9 10  1  0
  9 15  1  6
 10 11  2  0
 10 30  1  0
 11 12  1  0
 11 31  1  0
 12 13  1  1
 12 14  1  0
 13 32  1  0
 13 33  1  0
 13 34  1  0
 14 35  1  0
 14 36  1  0
 15 16  1  0
 16 37  1  0
 16 38  1  0
 16 39  1  0
 17 18  1  0
 17 19  1  0
 17 40  1  1
 18 41  1  0
 18 42  1  0
 18 43  1  0
 19 20  2  0
M  END
>  <i_m_ct_stereo_status>  (112) 
1

>  <s_m_source_file>  (112) 
/var/tmp/pbs.5076255.sched01/tmpav68hifr/35m6z7vsub.sdf

>  <i_m_source_file_index>  (112) 
18

>  <i_lp_mmshare_version>  (112) 
48012

>  <i_f3d_flags>  (112) 
0

>  <s_epik_input>  (112) 
W0NIM11bQ0BIXTFDKD1PKUMoL1tDSDJdMik9W0NIXVxbQ0hdPUMoXFtDSDNdKU4oW0NIM10pW0NAXShbQ0gyXTMpKFtDSDJdNClbQ0hdPVtDSF1bQ0BAXTQoW0NAXTEyMylbQ0gzXQ==

>  <s_epik_cmdline>  (112) 
J2VwaWtfcHl0aG9uJywgJy1waHQnLCAnMi4wJywgJy1waCcsICc3LjAnLCAnLXRuJywgJzgnLCAnLW1hJywgJzIwMCcsICctaW1hZScsICc8aW5maWxlLm1hZT4nLCAnLW9tYWUnLCAnPG91dGZpbGUubWFlPic=

>  <r_lp_tautomer_probability>  (112) 
1

>  <r_epik_Ionization_Penalty>  (112) 
0.000280473

>  <r_epik_Ionization_Penalty_Charging>  (112) 
0

>  <r_epik_Ionization_Penalty_Neutral>  (112) 
0.000280473

>  <r_epik_State_Penalty>  (112) 
-0

>  <r_epik_Charging_Adjusted_Penalty>  (112) 
0

>  <i_epik_Tot_Q>  (112) 
0

>  <i_epik_Tot_abs_Q>  (112) 
0

>  <s_lp_Force_Field>  (112) 
OPLS3e

>  <r_lp_Energy>  (112) 
222.962

>  <b_lp_Chiralities_Consistent>  (112) 
1

>  <s_lp_Variant>  (112) 
45:0-2

>  <s_i_glide_gridfile>  (112) 
pfpi4k_grid

>  <i_i_glide_lignum>  (112) 
18

>  <i_i_glide_rotatable_bonds>  (112) 
0

>  <r_i_docking_score>  (112) 
-2.49325

>  <r_i_glide_ligand_efficiency>  (112) 
-0.124662

>  <r_i_glide_ligand_efficiency_sa>  (112) 
-0.338386

>  <r_i_glide_ligand_efficiency_ln>  (112) 
-0.623978

>  <r_i_glide_gscore>  (112) 
-2.49325

>  <r_i_glide_lipo>  (112) 
-0.652406

>  <r_i_glide_hbond>  (112) 
0

>  <r_i_glide_metal>  (112) 
-0

>  <r_i_glide_rewards>  (112) 
-1.58145

>  <r_i_glide_evdw>  (112) 
-2.26436

>  <r_i_glide_ecoul>  (112) 
-0.457648

>  <r_i_glide_erotb>  (112) 
0

>  <r_i_glide_esite>  (112) 
-0.0775292

>  <r_i_glide_emodel>  (112) 
-3.26277

>  <r_i_glide_energy>  (112) 
-2.72201

>  <r_i_glide_einternal>  (112) 
0

>  <r_i_glide_intrahb_reward>  (112) 
-0

>  <i_i_glide_confnum>  (112) 
1

>  <i_i_glide_posenum>  (112) 
1

>  <r_i_glide_eff_state_penalty>  (112) 
0

>  <ligand_id>  (112) 
45

>  <original_smiles>  (112) 
CC1=CC=C2CC3(CC4(C=CC3(C)C4)N1C)C(C)C2=O

>  <smiles>  (112) 
[H]C1=C(C([H])([H])[H])N(C([H])([H])[H])C23C([H])=C([H])C(C([H])([H])[H])(C2([H])[H])C2(C([H])([H])C(=C1[H])C(=O)C2([H])C([H])([H])[H])C3([H])[H]

$$$$
45:2:0
     RDKit          3D

 43 46  0  0  1  0  0  0  0  0999 V2000
    4.4119   -1.4607   -2.4632 C   0  0  0  0  0  0  0  0  0  0  0  0
    4.0447   -2.3028   -1.2515 C   0  0  0  0  0  0  0  0  0  0  0  0
    3.0789   -3.2727   -1.4724 C   0  0  0  0  0  0  0  0  0  0  0  0
    2.3567   -4.2570   -0.6243 C   0  0  0  0  0  0  0  0  0  0  0  0
    2.8383   -5.3196    0.0769 C   0  0  0  0  0  0  0  0  0  0  0  0
    4.2538   -5.7196    0.0983 C   0  0  0  0  0  0  0  0  0  0  0  0
    4.6325   -5.1176    1.5067 C   0  0  2  0  0  0  0  0  0  0  0  0
    4.2895   -3.6406    1.4976 C   0  0  0  0  0  0  0  0  0  0  0  0
    5.4288   -3.0551    0.6331 C   0  0  2  0  0  0  0  0  0  0  0  0
    6.3912   -3.8892   -0.2396 C   0  0  0  0  0  0  0  0  0  0  0  0
    6.8574   -4.9167    0.4796 C   0  0  0  0  0  0  0  0  0  0  0  0
    6.1816   -4.7973    1.8108 C   0  0  2  0  0  0  0  0  0  0  0  0
    6.8503   -5.5834    2.9404 C   0  0  0  0  0  0  0  0  0  0  0  0
    6.3238   -3.1893    1.8661 C   0  0  0  0  0  0  0  0  0  0  0  0
    4.8209   -1.9597   -0.0945 N   0  0  0  0  0  0  0  0  0  0  0  0
    5.4980   -0.6841    0.0848 C   0  0  0  0  0  0  0  0  0  0  0  0
    3.5653   -5.9478    2.3072 C   0  0  1  0  0  0  0  0  0  0  0  0
    3.2691   -5.5724    3.7594 C   0  0  0  0  0  0  0  0  0  0  0  0
    2.3299   -5.7895    1.3695 C   0  0  0  0  0  0  0  0  0  0  0  0
    1.1536   -5.9265    1.7132 O   0  0  0  0  0  0  0  0  0  0  0  0
    3.9564   -1.8413   -3.3806 H   0  0  0  0  0  0  0  0  0  0  0  0
    5.4902   -1.4909   -2.6143 H   0  0  0  0  0  0  0  0  0  0  0  0
    4.0837   -0.4243   -2.3448 H   0  0  0  0  0  0  0  0  0  0  0  0
    2.6718   -3.2840   -2.4729 H   0  0  0  0  0  0  0  0  0  0  0  0
    1.3643   -3.9534   -0.4287 H   0  0  0  0  0  0  0  0  0  0  0  0
    4.3615   -6.8092    0.0702 H   0  0  0  0  0  0  0  0  0  0  0  0
    4.6737   -5.3661   -0.8428 H   0  0  0  0  0  0  0  0  0  0  0  0
    3.3049   -3.2576    1.2568 H   0  0  0  0  0  0  0  0  0  0  0  0
    4.1882   -3.3030    2.5318 H   0  0  0  0  0  0  0  0  0  0  0  0
    6.6402   -3.6481   -1.2576 H   0  0  0  0  0  0  0  0  0  0  0  0
    7.5603   -5.6841    0.1938 H   0  0  0  0  0  0  0  0  0  0  0  0
    6.4354   -5.2959    3.9066 H   0  0  0  0  0  0  0  0  0  0  0  0
    7.9228   -5.4033    2.9729 H   0  0  0  0  0  0  0  0  0  0  0  0
    6.7082   -6.6559    2.8168 H   0  0  0  0  0  0  0  0  0  0  0  0
    7.3399   -2.8497    1.6809 H   0  0  0  0  0  0  0  0  0  0  0  0
    6.0351   -2.6815    2.7909 H   0  0  0  0  0  0  0  0  0  0  0  0
    4.8614    0.1275   -0.2612 H   0  0  0  0  0  0  0  0  0  0  0  0
    6.4276   -0.6899   -0.4784 H   0  0  0  0  0  0  0  0  0  0  0  0
    5.7290   -0.5147    1.1368 H   0  0  0  0  0  0  0  0  0  0  0  0
    3.8421   -7.0027    2.2888 H   0  0  0  0  0  0  0  0  0  0  0  0
    2.5646   -6.2881    4.1849 H   0  0  0  0  0  0  0  0  0  0  0  0
    2.8214   -4.5828    3.8468 H   0  0  0  0  0  0  0  0  0  0  0  0
    4.1704   -5.6108    4.3652 H   0  0  0  0  0  0  0  0  0  0  0  0
  1  2  1  0
  1 21  1  0
  1 22  1  0
  1 23  1  0
  2 15  1  0
  2  3  2  3
  3  4  1  0
  3 24  1  0
  4  5  2  3
  4 25  1  0
  5 19  1  0
  5  6  1  0
  7  6  1  6
  6 26  1  0
  6 27  1  0
  7 12  1  0
  7  8  1  0
  7 17  1  0
  8  9  1  0
  8 28  1  0
  8 29  1  0
  9 14  1  0
  9 10  1  0
  9 15  1  6
 10 11  2  0
 10 30  1  0
 11 12  1  0
 11 31  1  0
 12 13  1  1
 12 14  1  0
 13 32  1  0
 13 33  1  0
 13 34  1  0
 14 35  1  0
 14 36  1  0
 15 16  1  0
 16 37  1  0
 16 38  1  0
 16 39  1  0
 17 18  1  0
 17 19  1  0
 17 40  1  1
 18 41  1  0
 18 42  1  0
 18 43  1  0
 19 20  2  0
M  END
>  <i_m_ct_stereo_status>  (113) 
1

>  <s_m_source_file>  (113) 
/var/tmp/pbs.5076255.sched01/tmpav68hifr/35m6z7vsub.sdf

>  <i_m_source_file_index>  (113) 
19

>  <i_lp_mmshare_version>  (113) 
48012

>  <i_f3d_flags>  (113) 
0

>  <s_epik_input>  (113) 
W0NIM11bQ0BIXTFDKD1PKUMoL1tDSDJdMik9W0NIXVxbQ0hdPUMoXFtDSDNdKU4oW0NIM10pW0NAXShbQ0gyXTMpKFtDSDJdNClbQ0hdPVtDSF1bQ0BAXTQoW0NAXTEyMylbQ0gzXQ==

>  <s_epik_cmdline>  (113) 
J2VwaWtfcHl0aG9uJywgJy1waHQnLCAnMi4wJywgJy1waCcsICc3LjAnLCAnLXRuJywgJzgnLCAnLW1hJywgJzIwMCcsICctaW1hZScsICc8aW5maWxlLm1hZT4nLCAnLW9tYWUnLCAnPG91dGZpbGUubWFlPic=

>  <r_lp_tautomer_probability>  (113) 
1

>  <r_epik_Ionization_Penalty>  (113) 
0.000280473

>  <r_epik_Ionization_Penalty_Charging>  (113) 
0

>  <r_epik_Ionization_Penalty_Neutral>  (113) 
0.000280473

>  <r_epik_State_Penalty>  (113) 
-0

>  <r_epik_Charging_Adjusted_Penalty>  (113) 
0

>  <i_epik_Tot_Q>  (113) 
0

>  <i_epik_Tot_abs_Q>  (113) 
0

>  <s_lp_Force_Field>  (113) 
OPLS3e

>  <r_lp_Energy>  (113) 
167.676

>  <b_lp_Chiralities_Consistent>  (113) 
1

>  <s_lp_Variant>  (113) 
45:0-3

>  <s_i_glide_gridfile>  (113) 
pfpi4k_grid

>  <i_i_glide_lignum>  (113) 
19

>  <i_i_glide_rotatable_bonds>  (113) 
0

>  <r_i_docking_score>  (113) 
-3.05567

>  <r_i_glide_ligand_efficiency>  (113) 
-0.152783

>  <r_i_glide_ligand_efficiency_sa>  (113) 
-0.414718

>  <r_i_glide_ligand_efficiency_ln>  (113) 
-0.764733

>  <r_i_glide_gscore>  (113) 
-3.05567

>  <r_i_glide_lipo>  (113) 
-0.545993

>  <r_i_glide_hbond>  (113) 
-0.13368

>  <r_i_glide_metal>  (113) 
-0

>  <r_i_glide_rewards>  (113) 
-1.5724

>  <r_i_glide_evdw>  (113) 
-12.7719

>  <r_i_glide_ecoul>  (113) 
-0.871499

>  <r_i_glide_erotb>  (113) 
0

>  <r_i_glide_esite>  (113) 
-0.0342729

>  <r_i_glide_emodel>  (113) 
-15.4909

>  <r_i_glide_energy>  (113) 
-13.6434

>  <r_i_glide_einternal>  (113) 
0

>  <r_i_glide_intrahb_reward>  (113) 
-0

>  <i_i_glide_confnum>  (113) 
1

>  <i_i_glide_posenum>  (113) 
5

>  <r_i_glide_eff_state_penalty>  (113) 
0

>  <ligand_id>  (113) 
45

>  <original_smiles>  (113) 
CC1=CC=C2CC3(CC4(C=CC3(C)C4)N1C)C(C)C2=O

>  <smiles>  (113) 
[H]C1=C(C([H])([H])[H])N(C([H])([H])[H])C23C([H])=C([H])C(C([H])([H])[H])(C2([H])[H])C2(C([H])([H])C(=C1[H])C(=O)C2([H])C([H])([H])[H])C3([H])[H]

$$$$
45:2:1
     RDKit          3D

 43 46  0  0  1  0  0  0  0  0999 V2000
    2.8657   -2.1023   -4.2867 C   0  0  0  0  0  0  0  0  0  0  0  0
    2.9182   -2.3294   -2.7986 C   0  0  0  0  0  0  0  0  0  0  0  0
    2.2617   -3.4549   -2.3458 C   0  0  0  0  0  0  0  0  0  0  0  0
    2.0299   -4.1526   -1.0594 C   0  0  0  0  0  0  0  0  0  0  0  0
    2.9577   -4.7025   -0.2215 C   0  0  0  0  0  0  0  0  0  0  0  0
    4.4159   -4.6704   -0.4562 C   0  0  0  0  0  0  0  0  0  0  0  0
    4.7742   -3.4582    0.4773 C   0  0  2  0  0  0  0  0  0  0  0  0
    3.9663   -2.2704    0.0167 C   0  0  0  0  0  0  0  0  0  0  0  0
    4.7141   -1.8502   -1.2615 C   0  0  2  0  0  0  0  0  0  0  0  0
    5.7659   -2.7159   -1.9943 C   0  0  0  0  0  0  0  0  0  0  0  0
    6.6378   -3.1822   -1.1092 C   0  0  0  0  0  0  0  0  0  0  0  0
    6.1390   -2.6732    0.1997 C   0  0  2  0  0  0  0  0  0  0  0  0
    7.1739   -2.6733    1.2677 C   0  0  0  0  0  0  0  0  0  0  0  0
    5.7352   -1.2156   -0.3271 C   0  0  0  0  0  0  0  0  0  0  0  0
    3.6912   -1.3537   -2.1438 N   0  0  0  0  0  0  0  0  0  0  0  0
    3.9383   -0.0668   -2.7377 C   0  0  0  0  0  0  0  0  0  0  0  0
    4.1855   -4.0717    1.7944 C   0  0  1  0  0  0  0  0  0  0  0  0
    3.9753   -3.1889    3.0325 C   0  0  0  0  0  0  0  0  0  0  0  0
    2.8728   -4.6762    1.2400 C   0  0  0  0  0  0  0  0  0  0  0  0
    1.9417   -5.0351    1.9533 O   0  0  0  0  0  0  0  0  0  0  0  0
    2.4830   -3.0238   -4.7144 H   0  0  0  0  0  0  0  0  0  0  0  0
    3.8471   -1.9182   -4.7157 H   0  0  0  0  0  0  0  0  0  0  0  0
    2.2101   -1.2683   -4.5406 H   0  0  0  0  0  0  0  0  0  0  0  0
    1.8189   -4.0444   -3.1332 H   0  0  0  0  0  0  0  0  0  0  0  0
    1.0213   -4.1009   -0.7271 H   0  0  0  0  0  0  0  0  0  0  0  0
    4.8831   -5.5828   -0.0830 H   0  0  0  0  0  0  0  0  0  0  0  0
    4.5895   -4.6869   -1.5355 H   0  0  0  0  0  0  0  0  0  0  0  0
    2.8853   -2.2660   -0.0594 H   0  0  0  0  0  0  0  0  0  0  0  0
    3.9000   -1.5543    0.8408 H   0  0  0  0  0  0  0  0  0  0  0  0
    5.7836   -2.8890   -3.0515 H   0  0  0  0  0  0  0  0  0  0  0  0
    7.5190   -3.7827   -1.2536 H   0  0  0  0  0  0  0  0  0  0  0  0
    6.7415   -2.0887    2.0688 H   0  0  0  0  0  0  0  0  0  0  0  0
    8.0792   -2.1876    0.8894 H   0  0  0  0  0  0  0  0  0  0  0  0
    7.3950   -3.6815    1.6143 H   0  0  0  0  0  0  0  0  0  0  0  0
    6.5709   -0.7583   -0.8411 H   0  0  0  0  0  0  0  0  0  0  0  0
    5.4310   -0.4408    0.3958 H   0  0  0  0  0  0  0  0  0  0  0  0
    3.0139    0.3426   -3.1422 H   0  0  0  0  0  0  0  0  0  0  0  0
    4.6832   -0.1163   -3.5233 H   0  0  0  0  0  0  0  0  0  0  0  0
    4.2225    0.5310   -1.9261 H   0  0  0  0  0  0  0  0  0  0  0  0
    4.7928   -4.9213    2.0994 H   0  0  0  0  0  0  0  0  0  0  0  0
    3.6158   -3.7989    3.8603 H   0  0  0  0  0  0  0  0  0  0  0  0
    3.2359   -2.4137    2.8520 H   0  0  0  0  0  0  0  0  0  0  0  0
    4.9126   -2.7352    3.3462 H   0  0  0  0  0  0  0  0  0  0  0  0
  1  2  1  0
  1 21  1  0
  1 22  1  0
  1 23  1  0
  2 15  1  0
  2  3  2  3
  3  4  1  0
  3 24  1  0
  4  5  2  3
  4 25  1  0
  5 19  1  0
  5  6  1  0
  7  6  1  6
  6 26  1  0
  6 27  1  0
  7 12  1  0
  7  8  1  0
  7 17  1  0
  8  9  1  0
  8 28  1  0
  8 29  1  0
  9 14  1  0
  9 10  1  0
  9 15  1  6
 10 11  2  0
 10 30  1  0
 11 12  1  0
 11 31  1  0
 12 13  1  1
 12 14  1  0
 13 32  1  0
 13 33  1  0
 13 34  1  0
 14 35  1  0
 14 36  1  0
 15 16  1  0
 16 37  1  0
 16 38  1  0
 16 39  1  0
 17 18  1  0
 17 19  1  0
 17 40  1  1
 18 41  1  0
 18 42  1  0
 18 43  1  0
 19 20  2  0
M  END
>  <i_m_ct_stereo_status>  (114) 
1

>  <s_m_source_file>  (114) 
/var/tmp/pbs.5076255.sched01/tmpav68hifr/35m6z7vsub.sdf

>  <i_m_source_file_index>  (114) 
19

>  <i_lp_mmshare_version>  (114) 
48012

>  <i_f3d_flags>  (114) 
0

>  <s_epik_input>  (114) 
W0NIM11bQ0BIXTFDKD1PKUMoL1tDSDJdMik9W0NIXVxbQ0hdPUMoXFtDSDNdKU4oW0NIM10pW0NAXShbQ0gyXTMpKFtDSDJdNClbQ0hdPVtDSF1bQ0BAXTQoW0NAXTEyMylbQ0gzXQ==

>  <s_epik_cmdline>  (114) 
J2VwaWtfcHl0aG9uJywgJy1waHQnLCAnMi4wJywgJy1waCcsICc3LjAnLCAnLXRuJywgJzgnLCAnLW1hJywgJzIwMCcsICctaW1hZScsICc8aW5maWxlLm1hZT4nLCAnLW9tYWUnLCAnPG91dGZpbGUubWFlPic=

>  <r_lp_tautomer_probability>  (114) 
1

>  <r_epik_Ionization_Penalty>  (114) 
0.000280473

>  <r_epik_Ionization_Penalty_Charging>  (114) 
0

>  <r_epik_Ionization_Penalty_Neutral>  (114) 
0.000280473

>  <r_epik_State_Penalty>  (114) 
-0

>  <r_epik_Charging_Adjusted_Penalty>  (114) 
0

>  <i_epik_Tot_Q>  (114) 
0

>  <i_epik_Tot_abs_Q>  (114) 
0

>  <s_lp_Force_Field>  (114) 
OPLS3e

>  <r_lp_Energy>  (114) 
167.676

>  <b_lp_Chiralities_Consistent>  (114) 
1

>  <s_lp_Variant>  (114) 
45:0-3

>  <s_i_glide_gridfile>  (114) 
pfpi4k_grid

>  <i_i_glide_lignum>  (114) 
19

>  <i_i_glide_rotatable_bonds>  (114) 
0

>  <r_i_docking_score>  (114) 
-2.56819

>  <r_i_glide_ligand_efficiency>  (114) 
-0.128409

>  <r_i_glide_ligand_efficiency_sa>  (114) 
-0.348557

>  <r_i_glide_ligand_efficiency_ln>  (114) 
-0.642733

>  <r_i_glide_gscore>  (114) 
-2.56819

>  <r_i_glide_lipo>  (114) 
-0.53634

>  <r_i_glide_hbond>  (114) 
-0.00754822

>  <r_i_glide_metal>  (114) 
-0

>  <r_i_glide_rewards>  (114) 
-1.5724

>  <r_i_glide_evdw>  (114) 
-9.05996

>  <r_i_glide_ecoul>  (114) 
0.539232

>  <r_i_glide_erotb>  (114) 
0

>  <r_i_glide_esite>  (114) 
-0.0797867

>  <r_i_glide_emodel>  (114) 
-9.15247

>  <r_i_glide_energy>  (114) 
-8.52073

>  <r_i_glide_einternal>  (114) 
0

>  <r_i_glide_intrahb_reward>  (114) 
-0

>  <i_i_glide_confnum>  (114) 
1

>  <i_i_glide_posenum>  (114) 
17

>  <r_i_glide_eff_state_penalty>  (114) 
0

>  <ligand_id>  (114) 
45

>  <original_smiles>  (114) 
CC1=CC=C2CC3(CC4(C=CC3(C)C4)N1C)C(C)C2=O

>  <smiles>  (114) 
[H]C1=C(C([H])([H])[H])N(C([H])([H])[H])C23C([H])=C([H])C(C([H])([H])[H])(C2([H])[H])C2(C([H])([H])C(=C1[H])C(=O)C2([H])C([H])([H])[H])C3([H])[H]

$$$$
45:2:2
     RDKit          3D

 43 46  0  0  1  0  0  0  0  0999 V2000
    3.1352   -2.3365   -4.3145 C   0  0  0  0  0  0  0  0  0  0  0  0
    3.0639   -2.3274   -2.8012 C   0  0  0  0  0  0  0  0  0  0  0  0
    2.5126   -3.4659   -2.2266 C   0  0  0  0  0  0  0  0  0  0  0  0
    2.1535   -3.9555   -0.8642 C   0  0  0  0  0  0  0  0  0  0  0  0
    3.0004   -4.1305    0.2145 C   0  0  0  0  0  0  0  0  0  0  0  0
    4.4685   -3.9694    0.1448 C   0  0  0  0  0  0  0  0  0  0  0  0
    4.5202   -2.5500    0.8265 C   0  0  2  0  0  0  0  0  0  0  0  0
    3.6452   -1.5881    0.0500 C   0  0  0  0  0  0  0  0  0  0  0  0
    4.5343   -1.2962   -1.1884 C   0  0  2  0  0  0  0  0  0  0  0  0
    5.7761   -2.1355   -1.5806 C   0  0  0  0  0  0  0  0  0  0  0  0
    6.5557   -2.3047   -0.5192 C   0  0  0  0  0  0  0  0  0  0  0  0
    5.8006   -1.6311    0.5923 C   0  0  2  0  0  0  0  0  0  0  0  0
    6.6071   -1.2691    1.8101 C   0  0  0  0  0  0  0  0  0  0  0  0
    5.3483   -0.3754   -0.2792 C   0  0  0  0  0  0  0  0  0  0  0  0
    3.6044   -1.1175   -2.2721 N   0  0  0  0  0  0  0  0  0  0  0  0
    3.7971    0.0879   -3.0775 C   0  0  0  0  0  0  0  0  0  0  0  0
    3.8652   -2.9967    2.1799 C   0  0  1  0  0  0  0  0  0  0  0  0
    3.3456   -1.9324    3.1664 C   0  0  0  0  0  0  0  0  0  0  0  0
    2.7574   -3.9379    1.6484 C   0  0  0  0  0  0  0  0  0  0  0  0
    1.8308   -4.3860    2.3389 O   0  0  0  0  0  0  0  0  0  0  0  0
    2.8756   -3.3211   -4.7054 H   0  0  0  0  0  0  0  0  0  0  0  0
    4.1467   -2.1116   -4.6570 H   0  0  0  0  0  0  0  0  0  0  0  0
    2.4191   -1.6230   -4.7072 H   0  0  0  0  0  0  0  0  0  0  0  0
    2.1250   -4.1481   -2.9691 H   0  0  0  0  0  0  0  0  0  0  0  0
    1.0792   -3.9413   -0.7174 H   0  0  0  0  0  0  0  0  0  0  0  0
    4.9931   -4.7324    0.7321 H   0  0  0  0  0  0  0  0  0  0  0  0
    4.7605   -4.1553   -0.8935 H   0  0  0  0  0  0  0  0  0  0  0  0
    2.6182   -1.7970   -0.1345 H   0  0  0  0  0  0  0  0  0  0  0  0
    3.3534   -0.7696    0.7165 H   0  0  0  0  0  0  0  0  0  0  0  0
    5.9492   -2.5148   -2.5755 H   0  0  0  0  0  0  0  0  0  0  0  0
    7.5009   -2.8300   -0.4253 H   0  0  0  0  0  0  0  0  0  0  0  0
    6.0916   -0.5951    2.4977 H   0  0  0  0  0  0  0  0  0  0  0  0
    7.5457   -0.7992    1.5096 H   0  0  0  0  0  0  0  0  0  0  0  0
    6.7956   -2.2163    2.3033 H   0  0  0  0  0  0  0  0  0  0  0  0
    6.2148    0.0763   -0.7216 H   0  0  0  0  0  0  0  0  0  0  0  0
    4.8462    0.4313    0.2733 H   0  0  0  0  0  0  0  0  0  0  0  0
    2.8684    0.2806   -3.6393 H   0  0  0  0  0  0  0  0  0  0  0  0
    4.6049   -0.0474   -3.8084 H   0  0  0  0  0  0  0  0  0  0  0  0
    4.0640    0.9151   -2.4702 H   0  0  0  0  0  0  0  0  0  0  0  0
    4.5271   -3.6610    2.7305 H   0  0  0  0  0  0  0  0  0  0  0  0
    2.9377   -2.4171    4.0508 H   0  0  0  0  0  0  0  0  0  0  0  0
    2.5457   -1.3081    2.7611 H   0  0  0  0  0  0  0  0  0  0  0  0
    4.1491   -1.2860    3.5157 H   0  0  0  0  0  0  0  0  0  0  0  0
  1  2  1  0
  1 21  1  0
  1 22  1  0
  1 23  1  0
  2 15  1  0
  2  3  2  3
  3  4  1  0
  3 24  1  0
  4  5  2  3
  4 25  1  0
  5 19  1  0
  5  6  1  0
  7  6  1  6
  6 26  1  0
  6 27  1  0
  7 12  1  0
  7  8  1  0
  7 17  1  0
  8  9  1  0
  8 28  1  0
  8 29  1  0
  9 14  1  0
  9 10  1  0
  9 15  1  6
 10 11  2  0
 10 30  1  0
 11 12  1  0
 11 31  1  0
 12 13  1  1
 12 14  1  0
 13 32  1  0
 13 33  1  0
 13 34  1  0
 14 35  1  0
 14 36  1  0
 15 16  1  0
 16 37  1  0
 16 38  1  0
 16 39  1  0
 17 18  1  0
 17 19  1  0
 17 40  1  1
 18 41  1  0
 18 42  1  0
 18 43  1  0
 19 20  2  0
M  END
>  <i_m_ct_stereo_status>  (115) 
1

>  <s_m_source_file>  (115) 
/var/tmp/pbs.5076255.sched01/tmpav68hifr/35m6z7vsub.sdf

>  <i_m_source_file_index>  (115) 
19

>  <i_lp_mmshare_version>  (115) 
48012

>  <i_f3d_flags>  (115) 
0

>  <s_epik_input>  (115) 
W0NIM11bQ0BIXTFDKD1PKUMoL1tDSDJdMik9W0NIXVxbQ0hdPUMoXFtDSDNdKU4oW0NIM10pW0NAXShbQ0gyXTMpKFtDSDJdNClbQ0hdPVtDSF1bQ0BAXTQoW0NAXTEyMylbQ0gzXQ==

>  <s_epik_cmdline>  (115) 
J2VwaWtfcHl0aG9uJywgJy1waHQnLCAnMi4wJywgJy1waCcsICc3LjAnLCAnLXRuJywgJzgnLCAnLW1hJywgJzIwMCcsICctaW1hZScsICc8aW5maWxlLm1hZT4nLCAnLW9tYWUnLCAnPG91dGZpbGUubWFlPic=

>  <r_lp_tautomer_probability>  (115) 
1

>  <r_epik_Ionization_Penalty>  (115) 
0.000280473

>  <r_epik_Ionization_Penalty_Charging>  (115) 
0

>  <r_epik_Ionization_Penalty_Neutral>  (115) 
0.000280473

>  <r_epik_State_Penalty>  (115) 
-0

>  <r_epik_Charging_Adjusted_Penalty>  (115) 
0

>  <i_epik_Tot_Q>  (115) 
0

>  <i_epik_Tot_abs_Q>  (115) 
0

>  <s_lp_Force_Field>  (115) 
OPLS3e

>  <r_lp_Energy>  (115) 
167.676

>  <b_lp_Chiralities_Consistent>  (115) 
1

>  <s_lp_Variant>  (115) 
45:0-3

>  <s_i_glide_gridfile>  (115) 
pfpi4k_grid

>  <i_i_glide_lignum>  (115) 
19

>  <i_i_glide_rotatable_bonds>  (115) 
0

>  <r_i_docking_score>  (115) 
-2.31174

>  <r_i_glide_ligand_efficiency>  (115) 
-0.115587

>  <r_i_glide_ligand_efficiency_sa>  (115) 
-0.313751

>  <r_i_glide_ligand_efficiency_ln>  (115) 
-0.578551

>  <r_i_glide_gscore>  (115) 
-2.31174

>  <r_i_glide_lipo>  (115) 
-0.367479

>  <r_i_glide_hbond>  (115) 
0

>  <r_i_glide_metal>  (115) 
-0

>  <r_i_glide_rewards>  (115) 
-1.5724

>  <r_i_glide_evdw>  (115) 
-7.61203

>  <r_i_glide_ecoul>  (115) 
0.464673

>  <r_i_glide_erotb>  (115) 
0

>  <r_i_glide_esite>  (115) 
-0.0609556

>  <r_i_glide_emodel>  (115) 
-8.01325

>  <r_i_glide_energy>  (115) 
-7.14735

>  <r_i_glide_einternal>  (115) 
0

>  <r_i_glide_intrahb_reward>  (115) 
-0

>  <i_i_glide_confnum>  (115) 
2

>  <i_i_glide_posenum>  (115) 
28

>  <r_i_glide_eff_state_penalty>  (115) 
0

>  <ligand_id>  (115) 
45

>  <original_smiles>  (115) 
CC1=CC=C2CC3(CC4(C=CC3(C)C4)N1C)C(C)C2=O

>  <smiles>  (115) 
[H]C1=C(C([H])([H])[H])N(C([H])([H])[H])C23C([H])=C([H])C(C([H])([H])[H])(C2([H])[H])C2(C([H])([H])C(=C1[H])C(=O)C2([H])C([H])([H])[H])C3([H])[H]

$$$$
45:3:0
     RDKit          3D

 43 46  0  0  1  0  0  0  0  0999 V2000
    5.4712   -3.4710   -3.3752 C   0  0  0  0  0  0  0  0  0  0  0  0
    4.8125   -2.7381   -2.2228 C   0  0  0  0  0  0  0  0  0  0  0  0
    5.5126   -1.9219   -1.3726 C   0  0  0  0  0  0  0  0  0  0  0  0
    6.8527   -2.2915   -0.8362 C   0  0  0  0  0  0  0  0  0  0  0  0
    6.9529   -2.7438    0.4596 C   0  0  0  0  0  0  0  0  0  0  0  0
    5.8137   -2.7741    1.4341 C   0  0  0  0  0  0  0  0  0  0  0  0
    5.2995   -4.2660    1.2991 C   0  0  2  0  0  0  0  0  0  0  0  0
    4.9939   -4.5722   -0.1427 C   0  0  0  0  0  0  0  0  0  0  0  0
    3.6249   -3.8556   -0.3939 C   0  0  2  0  0  0  0  0  0  0  0  0
    3.0695   -2.7850    0.5577 C   0  0  0  0  0  0  0  0  0  0  0  0
    3.1193   -3.2428    1.8199 C   0  0  0  0  0  0  0  0  0  0  0  0
    3.7700   -4.5960    1.7199 C   0  0  2  0  0  0  0  0  0  0  0  0
    3.5541   -5.5064    2.9336 C   0  0  0  0  0  0  0  0  0  0  0  0
    2.9583   -5.0102    0.3783 C   0  0  0  0  0  0  0  0  0  0  0  0
    3.6280   -3.4089   -1.7988 N   0  0  0  0  0  0  0  0  0  0  0  0
    2.3419   -3.1793   -2.4330 C   0  0  0  0  0  0  0  0  0  0  0  0
    6.6858   -4.8988    1.6742 C   0  0  1  0  0  0  0  0  0  0  0  0
    6.9116   -6.4022    1.4974 C   0  0  0  0  0  0  0  0  0  0  0  0
    7.6714   -3.9988    0.8313 C   0  0  0  0  0  0  0  0  0  0  0  0
    8.7965   -4.3471    0.4952 O   0  0  0  0  0  0  0  0  0  0  0  0
    6.5286   -3.2333   -3.4515 H   0  0  0  0  0  0  0  0  0  0  0  0
    4.9908   -3.1753   -4.3060 H   0  0  0  0  0  0  0  0  0  0  0  0
    5.3590   -4.5478   -3.2766 H   0  0  0  0  0  0  0  0  0  0  0  0
    4.9026   -1.4101   -0.6471 H   0  0  0  0  0  0  0  0  0  0  0  0
    7.6243   -2.5918   -1.5331 H   0  0  0  0  0  0  0  0  0  0  0  0
    6.1883   -2.6092    2.4480 H   0  0  0  0  0  0  0  0  0  0  0  0
    5.1756   -1.9074    1.2948 H   0  0  0  0  0  0  0  0  0  0  0  0
    5.7792   -4.4681   -0.8777 H   0  0  0  0  0  0  0  0  0  0  0  0
    4.9855   -5.6573   -0.2772 H   0  0  0  0  0  0  0  0  0  0  0  0
    2.6814   -1.8381    0.2418 H   0  0  0  0  0  0  0  0  0  0  0  0
    2.7992   -2.7554    2.7245 H   0  0  0  0  0  0  0  0  0  0  0  0
    3.9220   -6.5121    2.7316 H   0  0  0  0  0  0  0  0  0  0  0  0
    2.4973   -5.5929    3.1817 H   0  0  0  0  0  0  0  0  0  0  0  0
    4.0763   -5.1265    3.8091 H   0  0  0  0  0  0  0  0  0  0  0  0
    1.8784   -4.8817    0.4733 H   0  0  0  0  0  0  0  0  0  0  0  0
    3.0741   -6.0366    0.0200 H   0  0  0  0  0  0  0  0  0  0  0  0
    2.4519   -3.0943   -3.5134 H   0  0  0  0  0  0  0  0  0  0  0  0
    1.9112   -2.2579   -2.0656 H   0  0  0  0  0  0  0  0  0  0  0  0
    1.6496   -3.9955   -2.2196 H   0  0  0  0  0  0  0  0  0  0  0  0
    6.8790   -4.6906    2.7229 H   0  0  0  0  0  0  0  0  0  0  0  0
    7.8783   -6.6918    1.9139 H   0  0  0  0  0  0  0  0  0  0  0  0
    6.9236   -6.6745    0.4514 H   0  0  0  0  0  0  0  0  0  0  0  0
    6.1488   -6.9845    2.0090 H   0  0  0  0  0  0  0  0  0  0  0  0
  1  2  1  0
  1 21  1  0
  1 22  1  0
  1 23  1  0
  2 15  1  0
  2  3  2  3
  3  4  1  0
  3 24  1  0
  4  5  2  3
  4 25  1  0
  5 19  1  0
  5  6  1  0
  7  6  1  6
  6 26  1  0
  6 27  1  0
  7 12  1  0
  7  8  1  0
  7 17  1  0
  8  9  1  0
  8 28  1  0
  8 29  1  0
  9 14  1  0
  9 10  1  0
  9 15  1  6
 10 11  2  0
 10 30  1  0
 11 12  1  0
 11 31  1  0
 12 13  1  1
 12 14  1  0
 13 32  1  0
 13 33  1  0
 13 34  1  0
 14 35  1  0
 14 36  1  0
 15 16  1  0
 16 37  1  0
 16 38  1  0
 16 39  1  0
 17 18  1  0
 17 19  1  0
 17 40  1  1
 18 41  1  0
 18 42  1  0
 18 43  1  0
 19 20  2  0
M  END
>  <i_m_ct_stereo_status>  (116) 
1

>  <s_m_source_file>  (116) 
/var/tmp/pbs.5076255.sched01/tmpav68hifr/35m6z7vsub.sdf

>  <i_m_source_file_index>  (116) 
20

>  <i_lp_mmshare_version>  (116) 
48012

>  <i_f3d_flags>  (116) 
0

>  <s_epik_input>  (116) 
W0NIM11bQ0BIXTFDKD1PKUMoL1tDSDJdMik9W0NIXVxbQ0hdPUMoXFtDSDNdKU4oW0NIM10pW0NAXShbQ0gyXTMpKFtDSDJdNClbQ0hdPVtDSF1bQ0BAXTQoW0NAXTEyMylbQ0gzXQ==

>  <s_epik_cmdline>  (116) 
J2VwaWtfcHl0aG9uJywgJy1waHQnLCAnMi4wJywgJy1waCcsICc3LjAnLCAnLXRuJywgJzgnLCAnLW1hJywgJzIwMCcsICctaW1hZScsICc8aW5maWxlLm1hZT4nLCAnLW9tYWUnLCAnPG91dGZpbGUubWFlPic=

>  <r_lp_tautomer_probability>  (116) 
1

>  <r_epik_Ionization_Penalty>  (116) 
0.000280473

>  <r_epik_Ionization_Penalty_Charging>  (116) 
0

>  <r_epik_Ionization_Penalty_Neutral>  (116) 
0.000280473

>  <r_epik_State_Penalty>  (116) 
-0

>  <r_epik_Charging_Adjusted_Penalty>  (116) 
0

>  <i_epik_Tot_Q>  (116) 
0

>  <i_epik_Tot_abs_Q>  (116) 
0

>  <s_lp_Force_Field>  (116) 
OPLS3e

>  <r_lp_Energy>  (116) 
187.677

>  <b_lp_Chiralities_Consistent>  (116) 
1

>  <s_lp_Variant>  (116) 
45:0-4

>  <s_i_glide_gridfile>  (116) 
pfpi4k_grid

>  <i_i_glide_lignum>  (116) 
20

>  <i_i_glide_rotatable_bonds>  (116) 
0

>  <r_i_docking_score>  (116) 
-3.88018

>  <r_i_glide_ligand_efficiency>  (116) 
-0.194009

>  <r_i_glide_ligand_efficiency_sa>  (116) 
-0.526622

>  <r_i_glide_ligand_efficiency_ln>  (116) 
-0.971082

>  <r_i_glide_gscore>  (116) 
-3.88018

>  <r_i_glide_lipo>  (116) 
-0.802063

>  <r_i_glide_hbond>  (116) 
-0.00743975

>  <r_i_glide_metal>  (116) 
-0

>  <r_i_glide_rewards>  (116) 
-1.75877

>  <r_i_glide_evdw>  (116) 
-21.1471

>  <r_i_glide_ecoul>  (116) 
-1.67746

>  <r_i_glide_erotb>  (116) 
0

>  <r_i_glide_esite>  (116) 
-0.0029361

>  <r_i_glide_emodel>  (116) 
-28.3508

>  <r_i_glide_energy>  (116) 
-22.8246

>  <r_i_glide_einternal>  (116) 
0

>  <r_i_glide_intrahb_reward>  (116) 
-0

>  <i_i_glide_confnum>  (116) 
1

>  <i_i_glide_posenum>  (116) 
30

>  <r_i_glide_eff_state_penalty>  (116) 
0

>  <ligand_id>  (116) 
45

>  <original_smiles>  (116) 
CC1=CC=C2CC3(CC4(C=CC3(C)C4)N1C)C(C)C2=O

>  <smiles>  (116) 
[H]C1=C(C([H])([H])[H])N(C([H])([H])[H])C23C([H])=C([H])C(C([H])([H])[H])(C2([H])[H])C2(C([H])([H])C(=C1[H])C(=O)C2([H])C([H])([H])[H])C3([H])[H]

$$$$
45:3:1
     RDKit          3D

 43 46  0  0  1  0  0  0  0  0999 V2000
    3.2125    0.3869    2.4118 C   0  0  0  0  0  0  0  0  0  0  0  0
    4.2494   -0.6938    2.6671 C   0  0  0  0  0  0  0  0  0  0  0  0
    5.3523   -0.8612    1.8667 C   0  0  0  0  0  0  0  0  0  0  0  0
    5.2718   -0.7869    0.3812 C   0  0  0  0  0  0  0  0  0  0  0  0
    5.2844   -1.9541   -0.3464 C   0  0  0  0  0  0  0  0  0  0  0  0
    5.5236   -3.3133    0.2431 C   0  0  0  0  0  0  0  0  0  0  0  0
    4.0455   -3.8487    0.4469 C   0  0  2  0  0  0  0  0  0  0  0  0
    3.2532   -2.8590    1.2587 C   0  0  0  0  0  0  0  0  0  0  0  0
    3.7569   -3.0879    2.7240 C   0  0  2  0  0  0  0  0  0  0  0  0
    5.0493   -3.8578    3.0302 C   0  0  0  0  0  0  0  0  0  0  0  0
    5.0549   -5.0167    2.3608 C   0  0  0  0  0  0  0  0  0  0  0  0
    3.7892   -5.0061    1.5501 C   0  0  2  0  0  0  0  0  0  0  0  0
    3.3339   -6.3809    1.0446 C   0  0  0  0  0  0  0  0  0  0  0  0
    2.8966   -4.3670    2.7472 C   0  0  0  0  0  0  0  0  0  0  0  0
    3.6928   -1.7827    3.4056 N   0  0  0  0  0  0  0  0  0  0  0  0
    3.6489   -1.7864    4.8561 C   0  0  0  0  0  0  0  0  0  0  0  0
    3.6462   -3.6894   -1.0606 C   0  0  1  0  0  0  0  0  0  0  0  0
    2.1731   -3.8465   -1.4689 C   0  0  0  0  0  0  0  0  0  0  0  0
    4.2757   -2.2860   -1.3984 C   0  0  0  0  0  0  0  0  0  0  0  0
    3.9289   -1.5991   -2.3502 O   0  0  0  0  0  0  0  0  0  0  0  0
    3.4732    1.0061    1.5588 H   0  0  0  0  0  0  0  0  0  0  0  0
    3.1625    1.0464    3.2777 H   0  0  0  0  0  0  0  0  0  0  0  0
    2.2165   -0.0252    2.2446 H   0  0  0  0  0  0  0  0  0  0  0  0
    6.0413   -1.6139    2.2043 H   0  0  0  0  0  0  0  0  0  0  0  0
    4.7971    0.0779   -0.0563 H   0  0  0  0  0  0  0  0  0  0  0  0
    6.0348   -3.9443   -0.4882 H   0  0  0  0  0  0  0  0  0  0  0  0
    6.2586   -3.2535    1.0429 H   0  0  0  0  0  0  0  0  0  0  0  0
    3.1437   -1.8476    0.8863 H   0  0  0  0  0  0  0  0  0  0  0  0
    2.1942   -3.0517    1.0972 H   0  0  0  0  0  0  0  0  0  0  0  0
    5.8050   -3.5115    3.7033 H   0  0  0  0  0  0  0  0  0  0  0  0
    5.8016   -5.7921    2.3605 H   0  0  0  0  0  0  0  0  0  0  0  0
    2.3428   -6.3167    0.5992 H   0  0  0  0  0  0  0  0  0  0  0  0
    3.2794   -7.1048    1.8559 H   0  0  0  0  0  0  0  0  0  0  0  0
    4.0156   -6.7708    0.2909 H   0  0  0  0  0  0  0  0  0  0  0  0
    2.9947   -4.9185    3.6839 H   0  0  0  0  0  0  0  0  0  0  0  0
    1.8185   -4.2903    2.5875 H   0  0  0  0  0  0  0  0  0  0  0  0
    3.3679   -0.8013    5.2257 H   0  0  0  0  0  0  0  0  0  0  0  0
    4.6257   -2.0411    5.2725 H   0  0  0  0  0  0  0  0  0  0  0  0
    2.9163   -2.5106    5.2164 H   0  0  0  0  0  0  0  0  0  0  0  0
    4.2095   -4.4168   -1.6430 H   0  0  0  0  0  0  0  0  0  0  0  0
    2.0959   -3.8488   -2.5607 H   0  0  0  0  0  0  0  0  0  0  0  0
    1.5399   -3.0550   -1.0995 H   0  0  0  0  0  0  0  0  0  0  0  0
    1.7742   -4.7875   -1.1143 H   0  0  0  0  0  0  0  0  0  0  0  0
  1  2  1  0
  1 21  1  0
  1 22  1  0
  1 23  1  0
  2 15  1  0
  2  3  2  3
  3  4  1  0
  3 24  1  0
  4  5  2  3
  4 25  1  0
  5 19  1  0
  5  6  1  0
  7  6  1  6
  6 26  1  0
  6 27  1  0
  7 12  1  0
  7  8  1  0
  7 17  1  0
  8  9  1  0
  8 28  1  0
  8 29  1  0
  9 14  1  0
  9 10  1  0
  9 15  1  1
 10 11  2  0
 10 30  1  0
 11 12  1  0
 11 31  1  0
 12 13  1  6
 12 14  1  0
 13 32  1  0
 13 33  1  0
 13 34  1  0
 14 35  1  0
 14 36  1  0
 15 16  1  0
 16 37  1  0
 16 38  1  0
 16 39  1  0
 17 18  1  0
 17 19  1  0
 17 40  1  6
 18 41  1  0
 18 42  1  0
 18 43  1  0
 19 20  2  0
M  END
>  <i_m_ct_stereo_status>  (117) 
1

>  <s_m_source_file>  (117) 
/var/tmp/pbs.5076255.sched01/tmpav68hifr/35m6z7vsub.sdf

>  <i_m_source_file_index>  (117) 
20

>  <i_lp_mmshare_version>  (117) 
48012

>  <i_f3d_flags>  (117) 
0

>  <s_epik_input>  (117) 
W0NIM11bQ0BIXTFDKD1PKUMoL1tDSDJdMik9W0NIXVxbQ0hdPUMoXFtDSDNdKU4oW0NIM10pW0NAXShbQ0gyXTMpKFtDSDJdNClbQ0hdPVtDSF1bQ0BAXTQoW0NAXTEyMylbQ0gzXQ==

>  <s_epik_cmdline>  (117) 
J2VwaWtfcHl0aG9uJywgJy1waHQnLCAnMi4wJywgJy1waCcsICc3LjAnLCAnLXRuJywgJzgnLCAnLW1hJywgJzIwMCcsICctaW1hZScsICc8aW5maWxlLm1hZT4nLCAnLW9tYWUnLCAnPG91dGZpbGUubWFlPic=

>  <r_lp_tautomer_probability>  (117) 
1

>  <r_epik_Ionization_Penalty>  (117) 
0.000280473

>  <r_epik_Ionization_Penalty_Charging>  (117) 
0

>  <r_epik_Ionization_Penalty_Neutral>  (117) 
0.000280473

>  <r_epik_State_Penalty>  (117) 
-0

>  <r_epik_Charging_Adjusted_Penalty>  (117) 
0

>  <i_epik_Tot_Q>  (117) 
0

>  <i_epik_Tot_abs_Q>  (117) 
0

>  <s_lp_Force_Field>  (117) 
OPLS3e

>  <r_lp_Energy>  (117) 
187.677

>  <b_lp_Chiralities_Consistent>  (117) 
1

>  <s_lp_Variant>  (117) 
45:0-4

>  <s_i_glide_gridfile>  (117) 
pfpi4k_grid

>  <i_i_glide_lignum>  (117) 
20

>  <i_i_glide_rotatable_bonds>  (117) 
0

>  <r_i_docking_score>  (117) 
-3.13634

>  <r_i_glide_ligand_efficiency>  (117) 
-0.156817

>  <r_i_glide_ligand_efficiency_sa>  (117) 
-0.425666

>  <r_i_glide_ligand_efficiency_ln>  (117) 
-0.784922

>  <r_i_glide_gscore>  (117) 
-3.13634

>  <r_i_glide_lipo>  (117) 
-0.513043

>  <r_i_glide_hbond>  (117) 
0

>  <r_i_glide_metal>  (117) 
-0

>  <r_i_glide_rewards>  (117) 
-1.57276

>  <r_i_glide_evdw>  (117) 
-18.9318

>  <r_i_glide_ecoul>  (117) 
-0.528474

>  <r_i_glide_erotb>  (117) 
0

>  <r_i_glide_esite>  (117) 
-0.0246722

>  <r_i_glide_emodel>  (117) 
-23.8969

>  <r_i_glide_energy>  (117) 
-19.4603

>  <r_i_glide_einternal>  (117) 
0

>  <r_i_glide_intrahb_reward>  (117) 
-0

>  <i_i_glide_confnum>  (117) 
2

>  <i_i_glide_posenum>  (117) 
29

>  <r_i_glide_eff_state_penalty>  (117) 
0

>  <ligand_id>  (117) 
45

>  <original_smiles>  (117) 
CC1=CC=C2CC3(CC4(C=CC3(C)C4)N1C)C(C)C2=O

>  <smiles>  (117) 
[H]C1=C(C([H])([H])[H])N(C([H])([H])[H])C23C([H])=C([H])C(C([H])([H])[H])(C2([H])[H])C2(C([H])([H])C(=C1[H])C(=O)C2([H])C([H])([H])[H])C3([H])[H]

$$$$
45:3:2
     RDKit          3D

 43 46  0  0  1  0  0  0  0  0999 V2000
    2.5290   -3.2315   -2.3194 C   0  0  0  0  0  0  0  0  0  0  0  0
    3.8463   -2.9440   -1.6145 C   0  0  0  0  0  0  0  0  0  0  0  0
    4.5033   -3.8867   -0.8660 C   0  0  0  0  0  0  0  0  0  0  0  0
    3.7896   -4.7962    0.0785 C   0  0  0  0  0  0  0  0  0  0  0  0
    3.8588   -4.5541    1.4228 C   0  0  0  0  0  0  0  0  0  0  0  0
    4.7085   -3.4802    2.0392 C   0  0  0  0  0  0  0  0  0  0  0  0
    3.6908   -2.2771    2.1992 C   0  0  2  0  0  0  0  0  0  0  0  0
    3.0577   -1.9808    0.8639 C   0  0  0  0  0  0  0  0  0  0  0  0
    4.1712   -1.2065    0.0800 C   0  0  2  0  0  0  0  0  0  0  0  0
    5.6382   -1.2195    0.5237 C   0  0  0  0  0  0  0  0  0  0  0  0
    5.7111   -0.9249    1.8366 C   0  0  0  0  0  0  0  0  0  0  0  0
    4.2858   -0.7730    2.2825 C   0  0  2  0  0  0  0  0  0  0  0  0
    4.0974   -0.0214    3.6027 C   0  0  0  0  0  0  0  0  0  0  0  0
    3.8253    0.0218    0.9435 C   0  0  0  0  0  0  0  0  0  0  0  0
    4.0164   -1.5580   -1.3484 N   0  0  0  0  0  0  0  0  0  0  0  0
    4.5674   -0.6491   -2.3335 C   0  0  0  0  0  0  0  0  0  0  0  0
    2.6731   -3.0951    3.0722 C   0  0  1  0  0  0  0  0  0  0  0  0
    1.2860   -2.5084    3.3704 C   0  0  0  0  0  0  0  0  0  0  0  0
    2.6406   -4.4682    2.2958 C   0  0  0  0  0  0  0  0  0  0  0  0
    1.7100   -5.2498    2.3717 O   0  0  0  0  0  0  0  0  0  0  0  0
    2.1848   -4.2451   -2.1627 H   0  0  0  0  0  0  0  0  0  0  0  0
    2.6423   -3.0721   -3.3913 H   0  0  0  0  0  0  0  0  0  0  0  0
    1.7387   -2.5894   -1.9665 H   0  0  0  0  0  0  0  0  0  0  0  0
    5.4650   -3.5806   -0.4917 H   0  0  0  0  0  0  0  0  0  0  0  0
    2.9537   -5.3691   -0.3051 H   0  0  0  0  0  0  0  0  0  0  0  0
    5.0340   -3.8103    3.0294 H   0  0  0  0  0  0  0  0  0  0  0  0
    5.6528   -3.4078    1.5086 H   0  0  0  0  0  0  0  0  0  0  0  0
    2.4986   -2.7543    0.3549 H   0  0  0  0  0  0  0  0  0  0  0  0
    2.1432   -1.4120    1.0458 H   0  0  0  0  0  0  0  0  0  0  0  0
    6.4637   -1.4218   -0.1177 H   0  0  0  0  0  0  0  0  0  0  0  0
    6.5858   -0.8336    2.4514 H   0  0  0  0  0  0  0  0  0  0  0  0
    3.0414    0.1801    3.7834 H   0  0  0  0  0  0  0  0  0  0  0  0
    4.6098    0.9376    3.5870 H   0  0  0  0  0  0  0  0  0  0  0  0
    4.4852   -0.5930    4.4421 H   0  0  0  0  0  0  0  0  0  0  0  0
    4.4649    0.8797    0.7246 H   0  0  0  0  0  0  0  0  0  0  0  0
    2.8116    0.4330    0.9191 H   0  0  0  0  0  0  0  0  0  0  0  0
    4.1928   -0.8865   -3.3273 H   0  0  0  0  0  0  0  0  0  0  0  0
    5.6524   -0.7269   -2.3200 H   0  0  0  0  0  0  0  0  0  0  0  0
    4.2837    0.3757   -2.1190 H   0  0  0  0  0  0  0  0  0  0  0  0
    3.1386   -3.2955    4.0371 H   0  0  0  0  0  0  0  0  0  0  0  0
    0.7614   -3.1471    4.0848 H   0  0  0  0  0  0  0  0  0  0  0  0
    0.6704   -2.4370    2.4846 H   0  0  0  0  0  0  0  0  0  0  0  0
    1.3670   -1.5185    3.8173 H   0  0  0  0  0  0  0  0  0  0  0  0
  1  2  1  0
  1 21  1  0
  1 22  1  0
  1 23  1  0
  2 15  1  0
  2  3  2  3
  3  4  1  0
  3 24  1  0
  4  5  2  3
  4 25  1  0
  5 19  1  0
  5  6  1  0
  7  6  1  6
  6 26  1  0
  6 27  1  0
  7 12  1  0
  7  8  1  0
  7 17  1  0
  8  9  1  0
  8 28  1  0
  8 29  1  0
  9 14  1  0
  9 10  1  0
  9 15  1  6
 10 11  2  0
 10 30  1  0
 11 12  1  0
 11 31  1  0
 12 13  1  1
 12 14  1  0
 13 32  1  0
 13 33  1  0
 13 34  1  0
 14 35  1  0
 14 36  1  0
 15 16  1  0
 16 37  1  0
 16 38  1  0
 16 39  1  0
 17 18  1  0
 17 19  1  0
 17 40  1  1
 18 41  1  0
 18 42  1  0
 18 43  1  0
 19 20  2  0
M  END
>  <i_m_ct_stereo_status>  (118) 
1

>  <s_m_source_file>  (118) 
/var/tmp/pbs.5076255.sched01/tmpav68hifr/35m6z7vsub.sdf

>  <i_m_source_file_index>  (118) 
20

>  <i_lp_mmshare_version>  (118) 
48012

>  <i_f3d_flags>  (118) 
0

>  <s_epik_input>  (118) 
W0NIM11bQ0BIXTFDKD1PKUMoL1tDSDJdMik9W0NIXVxbQ0hdPUMoXFtDSDNdKU4oW0NIM10pW0NAXShbQ0gyXTMpKFtDSDJdNClbQ0hdPVtDSF1bQ0BAXTQoW0NAXTEyMylbQ0gzXQ==

>  <s_epik_cmdline>  (118) 
J2VwaWtfcHl0aG9uJywgJy1waHQnLCAnMi4wJywgJy1waCcsICc3LjAnLCAnLXRuJywgJzgnLCAnLW1hJywgJzIwMCcsICctaW1hZScsICc8aW5maWxlLm1hZT4nLCAnLW9tYWUnLCAnPG91dGZpbGUubWFlPic=

>  <r_lp_tautomer_probability>  (118) 
1

>  <r_epik_Ionization_Penalty>  (118) 
0.000280473

>  <r_epik_Ionization_Penalty_Charging>  (118) 
0

>  <r_epik_Ionization_Penalty_Neutral>  (118) 
0.000280473

>  <r_epik_State_Penalty>  (118) 
-0

>  <r_epik_Charging_Adjusted_Penalty>  (118) 
0

>  <i_epik_Tot_Q>  (118) 
0

>  <i_epik_Tot_abs_Q>  (118) 
0

>  <s_lp_Force_Field>  (118) 
OPLS3e

>  <r_lp_Energy>  (118) 
187.677

>  <b_lp_Chiralities_Consistent>  (118) 
1

>  <s_lp_Variant>  (118) 
45:0-4

>  <s_i_glide_gridfile>  (118) 
pfpi4k_grid

>  <i_i_glide_lignum>  (118) 
20

>  <i_i_glide_rotatable_bonds>  (118) 
0

>  <r_i_docking_score>  (118) 
-3.13411

>  <r_i_glide_ligand_efficiency>  (118) 
-0.156706

>  <r_i_glide_ligand_efficiency_sa>  (118) 
-0.425364

>  <r_i_glide_ligand_efficiency_ln>  (118) 
-0.784365

>  <r_i_glide_gscore>  (118) 
-3.13411

>  <r_i_glide_lipo>  (118) 
-0.481258

>  <r_i_glide_hbond>  (118) 
0

>  <r_i_glide_metal>  (118) 
-0

>  <r_i_glide_rewards>  (118) 
-1.5724

>  <r_i_glide_evdw>  (118) 
-19.1411

>  <r_i_glide_ecoul>  (118) 
-0.438376

>  <r_i_glide_erotb>  (118) 
0

>  <r_i_glide_esite>  (118) 
-0.0576394

>  <r_i_glide_emodel>  (118) 
-23.9438

>  <r_i_glide_energy>  (118) 
-19.5795

>  <r_i_glide_einternal>  (118) 
0

>  <r_i_glide_intrahb_reward>  (118) 
-0

>  <i_i_glide_confnum>  (118) 
1

>  <i_i_glide_posenum>  (118) 
34

>  <r_i_glide_eff_state_penalty>  (118) 
0

>  <ligand_id>  (118) 
45

>  <original_smiles>  (118) 
CC1=CC=C2CC3(CC4(C=CC3(C)C4)N1C)C(C)C2=O

>  <smiles>  (118) 
[H]C1=C(C([H])([H])[H])N(C([H])([H])[H])C23C([H])=C([H])C(C([H])([H])[H])(C2([H])[H])C2(C([H])([H])C(=C1[H])C(=O)C2([H])C([H])([H])[H])C3([H])[H]

$$$$
46:0:0
     RDKit          3D

 31 33  0  0  1  0  0  0  0  0999 V2000
    2.4155   -8.9892    2.1739 N   0  0  0  0  0  0  0  0  0  0  0  0
    3.3984   -8.0971    1.7422 C   0  0  0  0  0  0  0  0  0  0  0  0
    4.6966   -8.4538    1.8287 N   0  0  0  0  0  0  0  0  0  0  0  0
    5.6513   -7.6070    1.4163 C   0  0  0  0  0  0  0  0  0  0  0  0
    5.5158   -6.3817    0.8903 N   0  0  0  0  0  0  0  0  0  0  0  0
    4.1921   -6.0322    0.8153 C   0  0  0  0  0  0  0  0  0  0  0  0
    3.0978   -6.8199    1.2216 C   0  0  0  0  0  0  0  0  0  0  0  0
    1.9167   -6.1485    0.9833 N   0  0  0  0  0  0  0  0  0  0  0  0
    2.2163   -4.9860    0.4889 N   0  0  0  0  0  0  0  0  0  0  0  0
    3.5737   -4.9039    0.3496 N   0  0  0  0  0  0  0  0  0  0  0  0
    4.2101   -3.6671   -0.1881 C   0  0  2  0  0  0  0  0  0  0  0  0
    4.3100   -2.7703    0.8712 O   0  0  0  0  0  0  0  0  0  0  0  0
    4.0021   -1.4610    0.4061 C   0  0  1  0  0  0  0  0  0  0  0  0
    4.9272   -0.3721    0.9979 C   0  0  0  0  0  0  0  0  0  0  0  0
    6.2954   -0.6485    0.7264 O   0  0  0  0  0  0  0  0  0  0  0  0
    3.8149   -1.5305   -1.1260 C   0  0  1  0  0  0  0  0  0  0  0  0
    4.9846   -1.2218   -1.8762 O   0  0  0  0  0  0  0  0  0  0  0  0
    3.3891   -2.9810   -1.3043 C   0  0  1  0  0  0  0  0  0  0  0  0
    3.6987   -3.4397   -2.6057 O   0  0  0  0  0  0  0  0  0  0  0  0
    1.4250   -8.7939    2.0947 H   0  0  0  0  0  0  0  0  0  0  0  0
    6.6603   -7.9750    1.5317 H   0  0  0  0  0  0  0  0  0  0  0  0
    5.2120   -3.9761   -0.4961 H   0  0  0  0  0  0  0  0  0  0  0  0
    3.0049   -1.3018    0.8186 H   0  0  0  0  0  0  0  0  0  0  0  0
    4.6361    0.5720    0.5386 H   0  0  0  0  0  0  0  0  0  0  0  0
    4.7978   -0.2490    2.0779 H   0  0  0  0  0  0  0  0  0  0  0  0
    6.8422    0.0535    1.0624 H   0  0  0  0  0  0  0  0  0  0  0  0
    3.0165   -0.8691   -1.4576 H   0  0  0  0  0  0  0  0  0  0  0  0
    4.8228   -1.4939   -2.7694 H   0  0  0  0  0  0  0  0  0  0  0  0
    2.3131   -3.0263   -1.1047 H   0  0  0  0  0  0  0  0  0  0  0  0
    3.4334   -4.3675   -2.6709 H   0  0  0  0  0  0  0  0  0  0  0  0
    2.6591   -9.9073    2.5208 H   0  0  0  0  0  0  0  0  0  0  0  0
  1  2  1  0
  1 20  1  0
  1 31  1  0
  2  7  2  0
  2  3  1  0
  3  4  2  0
  4  5  1  0
  4 21  1  0
  5  6  2  0
  6 10  1  0
  6  7  1  0
  7  8  1  0
  8  9  2  0
  9 10  1  0
 10 11  1  0
 11 18  1  0
 11 12  1  0
 11 22  1  6
 12 13  1  0
 13 14  1  0
 13 16  1  0
 13 23  1  1
 14 15  1  0
 14 24  1  0
 14 25  1  0
 15 26  1  0
 16 17  1  0
 16 18  1  0
 16 27  1  6
 17 28  1  0
 18 19  1  0
 18 29  1  1
 19 30  1  0
M  END
>  <i_m_ct_stereo_status>  (119) 
1

>  <s_m_source_file>  (119) 
/var/tmp/pbs.5076255.sched01/tmpav68hifr/35m6z7vsub.sdf

>  <i_m_source_file_index>  (119) 
21

>  <i_lp_mmshare_version>  (119) 
48012

>  <i_f3d_flags>  (119) 
0

>  <s_epik_input>  (119) 
bjFbY0hdW25IXVxjKD1OXFtIXSljKGMxMilubm4yW0NAQEhdM09bQ0BASF0oW0NIMl1bT0hdKVtDQEBIXShbT0hdKVtDQEhdM1tPSF0=

>  <s_epik_cmdline>  (119) 
J2VwaWtfcHl0aG9uJywgJy1waHQnLCAnMi4wJywgJy1waCcsICc3LjAnLCAnLXRuJywgJzgnLCAnLW1hJywgJzIwMCcsICctaW1hZScsICc8aW5maWxlLm1hZT4nLCAnLW9tYWUnLCAnPG91dGZpbGUubWFlPic=

>  <r_lp_tautomer_probability>  (119) 
1

>  <r_epik_Ionization_Penalty>  (119) 
5.99213e-05

>  <r_epik_Ionization_Penalty_Charging>  (119) 
0

>  <r_epik_Ionization_Penalty_Neutral>  (119) 
5.99213e-05

>  <r_epik_State_Penalty>  (119) 
-0

>  <r_epik_Charging_Adjusted_Penalty>  (119) 
0

>  <i_epik_Tot_Q>  (119) 
0

>  <i_epik_Tot_abs_Q>  (119) 
0

>  <s_epik_Chemistry_Notes>  (119) 
This compound contains an acetal/aminal-like group ( X-CH(R)-Y where X, Y are N, S, or O) that may be acid/base labile, releasing an aldehyde.

>  <s_lp_Force_Field>  (119) 
OPLS3e

>  <r_lp_Energy>  (119) 
11.5565

>  <b_lp_Chiralities_Consistent>  (119) 
1

>  <s_lp_Variant>  (119) 
46:0-1

>  <s_i_glide_gridfile>  (119) 
pfpi4k_grid

>  <i_i_glide_lignum>  (119) 
21

>  <i_i_glide_rotatable_bonds>  (119) 
5

>  <r_i_docking_score>  (119) 
-4.29189

>  <r_i_glide_ligand_efficiency>  (119) 
-0.225889

>  <r_i_glide_ligand_efficiency_sa>  (119) 
-0.602763

>  <r_i_glide_ligand_efficiency_ln>  (119) 
-1.08809

>  <r_i_glide_gscore>  (119) 
-4.29189

>  <r_i_glide_lipo>  (119) 
-0.218218

>  <r_i_glide_hbond>  (119) 
0

>  <r_i_glide_metal>  (119) 
-0

>  <r_i_glide_rewards>  (119) 
-1.85826

>  <r_i_glide_evdw>  (119) 
-21.1542

>  <r_i_glide_ecoul>  (119) 
-10.2842

>  <r_i_glide_erotb>  (119) 
0.496102

>  <r_i_glide_esite>  (119) 
-0.111165

>  <r_i_glide_emodel>  (119) 
-36.2994

>  <r_i_glide_energy>  (119) 
-31.4385

>  <r_i_glide_einternal>  (119) 
7.96156

>  <r_i_glide_intrahb_reward>  (119) 
-0

>  <i_i_glide_confnum>  (119) 
2

>  <i_i_glide_posenum>  (119) 
28

>  <r_i_glide_eff_state_penalty>  (119) 
0

>  <ligand_id>  (119) 
46

>  <original_smiles>  (119) 
N=c1[nH]cnc2c1nnn2C1OC(CO)C(O)C1O

>  <smiles>  (119) 
[H]OC([H])([H])C1([H])OC([H])(n2nnc3c(N([H])[H])nc([H])nc32)C([H])(O[H])C1([H])O[H]

$$$$
46:0:1
     RDKit          3D

 31 33  0  0  1  0  0  0  0  0999 V2000
    2.2277   -9.0727    2.1995 N   0  0  0  0  0  0  0  0  0  0  0  0
    3.2369   -8.1914    1.8256 C   0  0  0  0  0  0  0  0  0  0  0  0
    4.5235   -8.5736    1.9967 N   0  0  0  0  0  0  0  0  0  0  0  0
    5.5180   -7.7452    1.6526 C   0  0  0  0  0  0  0  0  0  0  0  0
    5.4399   -6.5170    1.1239 N   0  0  0  0  0  0  0  0  0  0  0  0
    4.1320   -6.1458    0.9715 C   0  0  0  0  0  0  0  0  0  0  0  0
    2.9929   -6.9111    1.2894 C   0  0  0  0  0  0  0  0  0  0  0  0
    1.8415   -6.2065    0.9773 N   0  0  0  0  0  0  0  0  0  0  0  0
    2.2142   -5.0509    0.5093 N   0  0  0  0  0  0  0  0  0  0  0  0
    3.5721   -4.9915    0.4818 N   0  0  0  0  0  0  0  0  0  0  0  0
    4.2745   -3.7856   -0.0228 C   0  0  2  0  0  0  0  0  0  0  0  0
    4.1107   -2.7497    0.9053 O   0  0  0  0  0  0  0  0  0  0  0  0
    3.6978   -1.5412    0.2617 C   0  0  1  0  0  0  0  0  0  0  0  0
    4.4299   -0.3124    0.8369 C   0  0  0  0  0  0  0  0  0  0  0  0
    3.8268    0.1492    2.0281 O   0  0  0  0  0  0  0  0  0  0  0  0
    3.9743   -1.7897   -1.2324 C   0  0  1  0  0  0  0  0  0  0  0  0
    5.3303   -1.4717   -1.5312 O   0  0  0  0  0  0  0  0  0  0  0  0
    3.7082   -3.2843   -1.3600 C   0  0  1  0  0  0  0  0  0  0  0  0
    4.3607   -3.8535   -2.4777 O   0  0  0  0  0  0  0  0  0  0  0  0
    1.2490   -8.8600    2.0626 H   0  0  0  0  0  0  0  0  0  0  0  0
    6.5160   -8.1166    1.8242 H   0  0  0  0  0  0  0  0  0  0  0  0
    5.3297   -4.0553   -0.0570 H   0  0  0  0  0  0  0  0  0  0  0  0
    2.6212   -1.4328    0.4050 H   0  0  0  0  0  0  0  0  0  0  0  0
    5.4942   -0.5130    0.9846 H   0  0  0  0  0  0  0  0  0  0  0  0
    4.3501    0.5047    0.1215 H   0  0  0  0  0  0  0  0  0  0  0  0
    4.0746    1.0561    2.1605 H   0  0  0  0  0  0  0  0  0  0  0  0
    3.3094   -1.2024   -1.8675 H   0  0  0  0  0  0  0  0  0  0  0  0
    5.8581   -2.0696   -1.0252 H   0  0  0  0  0  0  0  0  0  0  0  0
    2.6279   -3.4399   -1.4143 H   0  0  0  0  0  0  0  0  0  0  0  0
    4.0021   -4.7333   -2.5975 H   0  0  0  0  0  0  0  0  0  0  0  0
    2.4336   -9.9958    2.5656 H   0  0  0  0  0  0  0  0  0  0  0  0
  1  2  1  0
  1 20  1  0
  1 31  1  0
  2  7  2  0
  2  3  1  0
  3  4  2  0
  4  5  1  0
  4 21  1  0
  5  6  2  0
  6 10  1  0
  6  7  1  0
  7  8  1  0
  8  9  2  0
  9 10  1  0
 10 11  1  0
 11 18  1  0
 11 12  1  0
 11 22  1  6
 12 13  1  0
 13 14  1  0
 13 16  1  0
 13 23  1  6
 14 15  1  0
 14 24  1  0
 14 25  1  0
 15 26  1  0
 16 17  1  0
 16 18  1  0
 16 27  1  6
 17 28  1  0
 18 19  1  0
 18 29  1  6
 19 30  1  0
M  END
>  <i_m_ct_stereo_status>  (120) 
1

>  <s_m_source_file>  (120) 
/var/tmp/pbs.5076255.sched01/tmpav68hifr/35m6z7vsub.sdf

>  <i_m_source_file_index>  (120) 
21

>  <i_lp_mmshare_version>  (120) 
48012

>  <i_f3d_flags>  (120) 
0

>  <s_epik_input>  (120) 
bjFbY0hdW25IXVxjKD1OXFtIXSljKGMxMilubm4yW0NAQEhdM09bQ0BASF0oW0NIMl1bT0hdKVtDQEBIXShbT0hdKVtDQEhdM1tPSF0=

>  <s_epik_cmdline>  (120) 
J2VwaWtfcHl0aG9uJywgJy1waHQnLCAnMi4wJywgJy1waCcsICc3LjAnLCAnLXRuJywgJzgnLCAnLW1hJywgJzIwMCcsICctaW1hZScsICc8aW5maWxlLm1hZT4nLCAnLW9tYWUnLCAnPG91dGZpbGUubWFlPic=

>  <r_lp_tautomer_probability>  (120) 
1

>  <r_epik_Ionization_Penalty>  (120) 
5.99213e-05

>  <r_epik_Ionization_Penalty_Charging>  (120) 
0

>  <r_epik_Ionization_Penalty_Neutral>  (120) 
5.99213e-05

>  <r_epik_State_Penalty>  (120) 
-0

>  <r_epik_Charging_Adjusted_Penalty>  (120) 
0

>  <i_epik_Tot_Q>  (120) 
0

>  <i_epik_Tot_abs_Q>  (120) 
0

>  <s_epik_Chemistry_Notes>  (120) 
This compound contains an acetal/aminal-like group ( X-CH(R)-Y where X, Y are N, S, or O) that may be acid/base labile, releasing an aldehyde.

>  <s_lp_Force_Field>  (120) 
OPLS3e

>  <r_lp_Energy>  (120) 
11.5565

>  <b_lp_Chiralities_Consistent>  (120) 
1

>  <s_lp_Variant>  (120) 
46:0-1

>  <s_i_glide_gridfile>  (120) 
pfpi4k_grid

>  <i_i_glide_lignum>  (120) 
21

>  <i_i_glide_rotatable_bonds>  (120) 
5

>  <r_i_docking_score>  (120) 
-4.00323

>  <r_i_glide_ligand_efficiency>  (120) 
-0.210696

>  <r_i_glide_ligand_efficiency_sa>  (120) 
-0.562223

>  <r_i_glide_ligand_efficiency_ln>  (120) 
-1.01491

>  <r_i_glide_gscore>  (120) 
-4.00323

>  <r_i_glide_lipo>  (120) 
-0.193468

>  <r_i_glide_hbond>  (120) 
0

>  <r_i_glide_metal>  (120) 
-0

>  <r_i_glide_rewards>  (120) 
-1.81896

>  <r_i_glide_evdw>  (120) 
-20.8175

>  <r_i_glide_ecoul>  (120) 
-8.89234

>  <r_i_glide_erotb>  (120) 
0.496102

>  <r_i_glide_esite>  (120) 
-0.112178

>  <r_i_glide_emodel>  (120) 
-37.2162

>  <r_i_glide_energy>  (120) 
-29.7098

>  <r_i_glide_einternal>  (120) 
1.57968

>  <r_i_glide_intrahb_reward>  (120) 
-0

>  <i_i_glide_confnum>  (120) 
2

>  <i_i_glide_posenum>  (120) 
10

>  <r_i_glide_eff_state_penalty>  (120) 
0

>  <ligand_id>  (120) 
46

>  <original_smiles>  (120) 
N=c1[nH]cnc2c1nnn2C1OC(CO)C(O)C1O

>  <smiles>  (120) 
[H]OC([H])([H])C1([H])OC([H])(n2nnc3c(N([H])[H])nc([H])nc32)C([H])(O[H])C1([H])O[H]

$$$$
46:0:2
     RDKit          3D

 31 33  0  0  1  0  0  0  0  0999 V2000
    2.8240   -9.1520    1.9419 N   0  0  0  0  0  0  0  0  0  0  0  0
    3.7358   -8.1568    1.5857 C   0  0  0  0  0  0  0  0  0  0  0  0
    5.0573   -8.4380    1.6432 N   0  0  0  0  0  0  0  0  0  0  0  0
    5.9479   -7.4955    1.3124 C   0  0  0  0  0  0  0  0  0  0  0  0
    5.7249   -6.2444    0.8932 N   0  0  0  0  0  0  0  0  0  0  0  0
    4.3855   -5.9781    0.8458 C   0  0  0  0  0  0  0  0  0  0  0  0
    3.3427   -6.8651    1.1759 C   0  0  0  0  0  0  0  0  0  0  0  0
    2.1174   -6.2431    0.9939 N   0  0  0  0  0  0  0  0  0  0  0  0
    2.3449   -5.0267    0.5978 N   0  0  0  0  0  0  0  0  0  0  0  0
    3.6953   -4.8482    0.4845 N   0  0  0  0  0  0  0  0  0  0  0  0
    4.2787   -3.5452    0.0440 C   0  0  2  0  0  0  0  0  0  0  0  0
    4.0662   -2.6049    1.0566 O   0  0  0  0  0  0  0  0  0  0  0  0
    3.5343   -1.3949    0.5153 C   0  0  1  0  0  0  0  0  0  0  0  0
    4.1922   -0.1576    1.1576 C   0  0  0  0  0  0  0  0  0  0  0  0
    3.6290    0.1351    2.4172 O   0  0  0  0  0  0  0  0  0  0  0  0
    3.7590   -1.5195   -1.0030 C   0  0  1  0  0  0  0  0  0  0  0  0
    5.0513   -1.0372   -1.3573 O   0  0  0  0  0  0  0  0  0  0  0  0
    3.6035   -3.0147   -1.2248 C   0  0  1  0  0  0  0  0  0  0  0  0
    4.2128   -3.4605   -2.4241 O   0  0  0  0  0  0  0  0  0  0  0  0
    1.8224   -9.0081    1.8866 H   0  0  0  0  0  0  0  0  0  0  0  0
    6.9822   -7.7996    1.3884 H   0  0  0  0  0  0  0  0  0  0  0  0
    5.3516   -3.7159   -0.0603 H   0  0  0  0  0  0  0  0  0  0  0  0
    2.4637   -1.3981    0.7194 H   0  0  0  0  0  0  0  0  0  0  0  0
    5.2720   -0.2824    1.2450 H   0  0  0  0  0  0  0  0  0  0  0  0
    4.0234    0.7156    0.5293 H   0  0  0  0  0  0  0  0  0  0  0  0
    2.7197    0.3660    2.2949 H   0  0  0  0  0  0  0  0  0  0  0  0
    3.0143   -0.9619   -1.5637 H   0  0  0  0  0  0  0  0  0  0  0  0
    5.0643   -0.1062   -1.1775 H   0  0  0  0  0  0  0  0  0  0  0  0
    2.5394   -3.2520   -1.2322 H   0  0  0  0  0  0  0  0  0  0  0  0
    3.9842   -4.3754   -2.5482 H   0  0  0  0  0  0  0  0  0  0  0  0
    3.1336  -10.0794    2.1982 H   0  0  0  0  0  0  0  0  0  0  0  0
  1  2  1  0
  1 20  1  0
  1 31  1  0
  2  7  2  0
  2  3  1  0
  3  4  2  0
  4  5  1  0
  4 21  1  0
  5  6  2  0
  6 10  1  0
  6  7  1  0
  7  8  1  0
  8  9  2  0
  9 10  1  0
 10 11  1  0
 11 18  1  0
 11 12  1  0
 11 22  1  6
 12 13  1  0
 13 14  1  0
 13 16  1  0
 13 23  1  6
 14 15  1  0
 14 24  1  0
 14 25  1  0
 15 26  1  0
 16 17  1  0
 16 18  1  0
 16 27  1  6
 17 28  1  0
 18 19  1  0
 18 29  1  6
 19 30  1  0
M  END
>  <i_m_ct_stereo_status>  (121) 
1

>  <s_m_source_file>  (121) 
/var/tmp/pbs.5076255.sched01/tmpav68hifr/35m6z7vsub.sdf

>  <i_m_source_file_index>  (121) 
21

>  <i_lp_mmshare_version>  (121) 
48012

>  <i_f3d_flags>  (121) 
0

>  <s_epik_input>  (121) 
bjFbY0hdW25IXVxjKD1OXFtIXSljKGMxMilubm4yW0NAQEhdM09bQ0BASF0oW0NIMl1bT0hdKVtDQEBIXShbT0hdKVtDQEhdM1tPSF0=

>  <s_epik_cmdline>  (121) 
J2VwaWtfcHl0aG9uJywgJy1waHQnLCAnMi4wJywgJy1waCcsICc3LjAnLCAnLXRuJywgJzgnLCAnLW1hJywgJzIwMCcsICctaW1hZScsICc8aW5maWxlLm1hZT4nLCAnLW9tYWUnLCAnPG91dGZpbGUubWFlPic=

>  <r_lp_tautomer_probability>  (121) 
1

>  <r_epik_Ionization_Penalty>  (121) 
5.99213e-05

>  <r_epik_Ionization_Penalty_Charging>  (121) 
0

>  <r_epik_Ionization_Penalty_Neutral>  (121) 
5.99213e-05

>  <r_epik_State_Penalty>  (121) 
-0

>  <r_epik_Charging_Adjusted_Penalty>  (121) 
0

>  <i_epik_Tot_Q>  (121) 
0

>  <i_epik_Tot_abs_Q>  (121) 
0

>  <s_epik_Chemistry_Notes>  (121) 
This compound contains an acetal/aminal-like group ( X-CH(R)-Y where X, Y are N, S, or O) that may be acid/base labile, releasing an aldehyde.

>  <s_lp_Force_Field>  (121) 
OPLS3e

>  <r_lp_Energy>  (121) 
11.5565

>  <b_lp_Chiralities_Consistent>  (121) 
1

>  <s_lp_Variant>  (121) 
46:0-1

>  <s_i_glide_gridfile>  (121) 
pfpi4k_grid

>  <i_i_glide_lignum>  (121) 
21

>  <i_i_glide_rotatable_bonds>  (121) 
5

>  <r_i_docking_score>  (121) 
-3.98229

>  <r_i_glide_ligand_efficiency>  (121) 
-0.209594

>  <r_i_glide_ligand_efficiency_sa>  (121) 
-0.559281

>  <r_i_glide_ligand_efficiency_ln>  (121) 
-1.0096

>  <r_i_glide_gscore>  (121) 
-3.98229

>  <r_i_glide_lipo>  (121) 
-0.147908

>  <r_i_glide_hbond>  (121) 
0

>  <r_i_glide_metal>  (121) 
-0

>  <r_i_glide_rewards>  (121) 
-1.87399

>  <r_i_glide_evdw>  (121) 
-21.7477

>  <r_i_glide_ecoul>  (121) 
-8.46498

>  <r_i_glide_erotb>  (121) 
0.496102

>  <r_i_glide_esite>  (121) 
-0.099356

>  <r_i_glide_emodel>  (121) 
-38.0608

>  <r_i_glide_energy>  (121) 
-30.2127

>  <r_i_glide_einternal>  (121) 
1.16232

>  <r_i_glide_intrahb_reward>  (121) 
-0

>  <i_i_glide_confnum>  (121) 
2

>  <i_i_glide_posenum>  (121) 
1

>  <r_i_glide_eff_state_penalty>  (121) 
0

>  <ligand_id>  (121) 
46

>  <original_smiles>  (121) 
N=c1[nH]cnc2c1nnn2C1OC(CO)C(O)C1O

>  <smiles>  (121) 
[H]OC([H])([H])C1([H])OC([H])(n2nnc3c(N([H])[H])nc([H])nc32)C([H])(O[H])C1([H])O[H]

$$$$
47:0:0
     RDKit          3D

102108  0  0  1  0  0  0  0  0999 V2000
    0.6759   -7.7997    7.6349 C   0  0  0  0  0  0  0  0  0  0  0  0
    2.0771   -7.7321    6.9741 C   0  0  2  0  0  0  0  0  0  0  0  0
    2.7462   -6.4391    7.5653 C   0  0  0  0  0  0  0  0  0  0  0  0
    4.0327   -6.1370    6.7174 C   0  0  0  0  0  0  0  0  0  0  0  0
    3.7510   -6.0632    5.1922 C   0  0  2  0  0  0  0  0  0  0  0  0
    5.1024   -5.8827    4.4445 C   0  0  0  0  0  0  0  0  0  0  0  0
    5.3404   -4.3743    4.3562 C   0  0  0  0  0  0  0  0  0  0  0  0
    3.9386   -3.6974    4.4196 C   0  0  1  0  0  0  0  0  0  0  0  0
    2.8947   -4.8382    4.6390 C   0  0  1  0  0  0  0  0  0  0  0  0
    2.3133   -5.2381    3.2410 C   0  0  0  0  0  0  0  0  0  0  0  0
    1.7480   -4.3357    5.5927 C   0  0  0  0  0  0  0  0  0  0  0  0
    1.1750   -2.9745    5.1715 C   0  0  1  0  0  0  0  0  0  0  0  0
    0.0692   -2.7623    6.0453 O   0  0  0  0  0  0  0  0  0  0  0  0
    2.2551   -1.8232    5.2401 C   0  0  1  0  0  0  0  0  0  0  0  0
    2.0998   -1.2623    6.5252 O   0  0  0  0  0  0  0  0  0  0  0  0
    3.7775   -2.3954    5.3208 C   0  0  1  0  0  0  0  0  0  0  0  0
    4.2632   -2.6932    6.8030 C   0  0  0  0  0  0  0  0  0  0  0  0
    4.8168   -1.3223    4.9026 C   0  0  0  0  0  0  0  0  0  0  0  0
    4.4862   -0.4486    3.7055 C   0  0  1  0  0  0  0  0  0  0  0  0
    4.6410   -1.1418    2.4813 O   0  0  0  0  0  0  0  0  0  0  0  0
    3.1341    0.2721    3.8692 C   0  0  2  0  0  0  0  0  0  0  0  0
    3.2758    1.4385    4.8614 C   0  0  0  0  0  0  0  0  0  0  0  0
    2.0177    2.3057    4.9148 C   0  0  0  0  0  0  0  0  0  0  0  0
    0.7789    1.5367    5.4241 C   0  0  1  0  0  0  0  0  0  0  0  0
    0.9861    1.2670    6.9427 C   0  0  0  0  0  0  0  0  0  0  0  0
   -0.4978    2.4675    5.4596 C   0  0  1  0  0  0  0  0  0  0  0  0
   -0.0997    3.8309    5.6447 O   0  0  0  0  0  0  0  0  0  0  0  0
   -0.7601    4.6551    4.7411 C   0  0  1  0  0  0  0  0  0  0  0  0
   -0.0061    5.7440    4.3104 O   0  0  0  0  0  0  0  0  0  0  0  0
   -1.1394    3.7862    3.5574 C   0  0  0  0  0  0  0  0  0  0  0  0
   -1.4905    2.5205    4.3005 C   0  0  1  0  0  0  0  0  0  0  0  0
   -1.5743    1.2480    3.4879 C   0  0  0  0  0  0  0  0  0  0  0  0
   -0.2237    0.6094    3.2101 C   0  0  1  0  0  0  0  0  0  0  0  0
    0.4922    1.3792    2.2653 O   0  0  0  0  0  0  0  0  0  0  0  0
    0.5997    0.2340    4.4958 C   0  0  1  0  0  0  0  0  0  0  0  0
    1.9155   -0.6752    4.1535 C   0  0  2  0  0  0  0  0  0  0  0  0
    1.6779   -1.4249    2.7900 C   0  0  0  0  0  0  0  0  0  0  0  0
    3.2117   -7.3401    4.8270 O   0  0  0  0  0  0  0  0  0  0  0  0
    1.9298   -7.6352    5.4147 C   0  0  1  0  0  0  0  0  0  0  0  0
    1.3869   -8.9513    4.7973 C   0  0  0  0  0  0  0  0  0  0  0  0
    0.7813   -8.7007    3.5323 O   0  0  0  0  0  0  0  0  0  0  0  0
    0.1053   -9.8420    3.0451 C   0  0  0  0  0  0  0  0  0  0  0  0
   -1.1852   -9.4187    2.3425 C   0  0  0  0  0  0  0  0  0  0  0  0
   -2.1574   -9.0903    3.2566 O   0  0  0  0  0  0  0  0  0  0  0  0
    0.0345   -6.9627    7.3295 H   0  0  0  0  0  0  0  0  0  0  0  0
    0.7747   -7.7754    8.7239 H   0  0  0  0  0  0  0  0  0  0  0  0
    0.1480   -8.7321    7.3844 H   0  0  0  0  0  0  0  0  0  0  0  0
    2.6806   -8.5928    7.2162 H   0  0  0  0  0  0  0  0  0  0  0  0
    2.0618   -5.6697    7.6142 H   0  0  0  0  0  0  0  0  0  0  0  0
    3.0880   -6.6365    8.6035 H   0  0  0  0  0  0  0  0  0  0  0  0
    4.5132   -5.2295    7.0648 H   0  0  0  0  0  0  0  0  0  0  0  0
    4.7831   -6.8696    6.8935 H   0  0  0  0  0  0  0  0  0  0  0  0
    5.9441   -6.3985    4.9246 H   0  0  0  0  0  0  0  0  0  0  0  0
    5.0627   -6.3061    3.4360 H   0  0  0  0  0  0  0  0  0  0  0  0
    6.0159   -4.0725    5.1547 H   0  0  0  0  0  0  0  0  0  0  0  0
    5.8439   -4.1211    3.4181 H   0  0  0  0  0  0  0  0  0  0  0  0
    3.8226   -3.3690    3.3947 H   0  0  0  0  0  0  0  0  0  0  0  0
    1.8119   -4.3966    2.7463 H   0  0  0  0  0  0  0  0  0  0  0  0
    1.5514   -6.0238    3.2980 H   0  0  0  0  0  0  0  0  0  0  0  0
    3.0808   -5.6216    2.5553 H   0  0  0  0  0  0  0  0  0  0  0  0
    0.9299   -5.0544    5.6062 H   0  0  0  0  0  0  0  0  0  0  0  0
    2.0897   -4.1829    6.5685 H   0  0  0  0  0  0  0  0  0  0  0  0
    0.7232   -3.1567    4.2022 H   0  0  0  0  0  0  0  0  0  0  0  0
   -0.4298   -2.0283    5.7322 H   0  0  0  0  0  0  0  0  0  0  0  0
    1.2580   -0.8407    6.5561 H   0  0  0  0  0  0  0  0  0  0  0  0
    4.3321   -1.7936    7.4128 H   0  0  0  0  0  0  0  0  0  0  0  0
    5.2586   -3.1258    6.8580 H   0  0  0  0  0  0  0  0  0  0  0  0
    3.6302   -3.3155    7.4165 H   0  0  0  0  0  0  0  0  0  0  0  0
    4.9805   -0.6385    5.7387 H   0  0  0  0  0  0  0  0  0  0  0  0
    5.7691   -1.7971    4.7488 H   0  0  0  0  0  0  0  0  0  0  0  0
    5.2673    0.3064    3.6466 H   0  0  0  0  0  0  0  0  0  0  0  0
    3.9349   -1.7659    2.3967 H   0  0  0  0  0  0  0  0  0  0  0  0
    2.9486    0.7624    2.9212 H   0  0  0  0  0  0  0  0  0  0  0  0
    3.5589    1.0832    5.8461 H   0  0  0  0  0  0  0  0  0  0  0  0
    4.1047    2.0726    4.5381 H   0  0  0  0  0  0  0  0  0  0  0  0
    2.2211    3.1675    5.5570 H   0  0  0  0  0  0  0  0  0  0  0  0
    1.8263    2.7136    3.9289 H   0  0  0  0  0  0  0  0  0  0  0  0
    0.3140    0.4981    7.3285 H   0  0  0  0  0  0  0  0  0  0  0  0
    0.7943    2.1680    7.5356 H   0  0  0  0  0  0  0  0  0  0  0  0
    1.9978    1.0101    7.2249 H   0  0  0  0  0  0  0  0  0  0  0  0
   -1.1120    2.2029    6.3197 H   0  0  0  0  0  0  0  0  0  0  0  0
   -1.6488    5.0083    5.2499 H   0  0  0  0  0  0  0  0  0  0  0  0
    0.5793    5.4591    3.6248 H   0  0  0  0  0  0  0  0  0  0  0  0
   -1.9635    4.2186    2.9948 H   0  0  0  0  0  0  0  0  0  0  0  0
   -0.2809    3.6668    2.9155 H   0  0  0  0  0  0  0  0  0  0  0  0
   -2.4861    2.6914    4.7079 H   0  0  0  0  0  0  0  0  0  0  0  0
   -2.1679    0.5296    4.0559 H   0  0  0  0  0  0  0  0  0  0  0  0
   -2.1065    1.4469    2.5552 H   0  0  0  0  0  0  0  0  0  0  0  0
   -0.5308   -0.2776    2.6761 H   0  0  0  0  0  0  0  0  0  0  0  0
   -0.0490    1.5030    1.4950 H   0  0  0  0  0  0  0  0  0  0  0  0
   -0.0829   -0.4138    5.0446 H   0  0  0  0  0  0  0  0  0  0  0  0
    1.7515   -0.7675    1.9325 H   0  0  0  0  0  0  0  0  0  0  0  0
    0.7040   -1.9016    2.6936 H   0  0  0  0  0  0  0  0  0  0  0  0
    2.3811   -2.2201    2.5917 H   0  0  0  0  0  0  0  0  0  0  0  0
    1.1863   -6.8722    5.1815 H   0  0  0  0  0  0  0  0  0  0  0  0
    2.1407   -9.7515    4.7609 H   0  0  0  0  0  0  0  0  0  0  0  0
    0.5482   -9.2934    5.4181 H   0  0  0  0  0  0  0  0  0  0  0  0
    0.7805  -10.3309    2.3596 H   0  0  0  0  0  0  0  0  0  0  0  0
   -0.1286  -10.5815    3.8213 H   0  0  0  0  0  0  0  0  0  0  0  0
   -0.9924   -8.5979    1.6348 H   0  0  0  0  0  0  0  0  0  0  0  0
   -1.5562  -10.2586    1.7508 H   0  0  0  0  0  0  0  0  0  0  0  0
   -2.1775   -9.7637    3.9747 H   0  0  0  0  0  0  0  0  0  0  0  0
  1  2  1  0
  1 45  1  0
  1 46  1  0
  1 47  1  0
  2 39  1  0
  2  3  1  0
  2 48  1  6
  3  4  1  0
  3 49  1  0
  3 50  1  0
  4  5  1  0
  4 51  1  0
  4 52  1  0
  5  9  1  0
  5  6  1  0
  5 38  1  6
  6  7  1  0
  6 53  1  0
  6 54  1  0
  7  8  1  0
  7 55  1  0
  7 56  1  0
  8 16  1  0
  8  9  1  0
  8 57  1  6
  9 10  1  6
  9 11  1  0
 10 58  1  0
 10 59  1  0
 10 60  1  0
 11 12  1  0
 11 61  1  0
 11 62  1  0
 12 13  1  0
 12 14  1  0
 12 63  1  6
 13 64  1  0
 14 36  1  0
 14 15  1  1
 14 16  1  0
 15 65  1  0
 16 17  1  1
 16 18  1  0
 17 66  1  0
 17 67  1  0
 17 68  1  0
 18 19  1  0
 18 69  1  0
 18 70  1  0
 19 20  1  0
 19 21  1  0
 19 71  1  6
 20 72  1  0
 21 36  1  0
 21 22  1  0
 21 73  1  6
 22 23  1  0
 22 74  1  0
 22 75  1  0
 23 24  1  0
 23 76  1  0
 23 77  1  0
 24 35  1  0
 24 25  1  1
 24 26  1  0
 25 78  1  0
 25 79  1  0
 25 80  1  0
 26 31  1  0
 26 27  1  0
 26 81  1  1
 27 28  1  0
 28 29  1  0
 28 30  1  0
 28 82  1  1
 29 83  1  0
 30 31  1  0
 30 84  1  0
 30 85  1  0
 31 32  1  0
 31 86  1  1
 32 33  1  0
 32 87  1  0
 32 88  1  0
 33 34  1  0
 33 35  1  0
 33 89  1  6
 34 90  1  0
 35 36  1  0
 35 91  1  1
 36 37  1  6
 37 92  1  0
 37 93  1  0
 37 94  1  0
 38 39  1  0
 39 40  1  0
 39 95  1  1
 40 41  1  0
 40 96  1  0
 40 97  1  0
 41 42  1  0
 42 43  1  0
 42 98  1  0
 42 99  1  0
 43 44  1  0
 43100  1  0
 43101  1  0
 44102  1  0
M  END
>  <i_m_ct_stereo_status>  (122) 
1

>  <s_m_source_file>  (122) 
/var/tmp/pbs.5076255.sched01/tmpav68hifr/35m6z7vsub.sdf

>  <i_m_source_file_index>  (122) 
22

>  <i_lp_mmshare_version>  (122) 
48012

>  <i_f3d_flags>  (122) 
0

>  <s_epik_input>  (122) 
W09IXVtDSDJdW0NIMl1PW0NIMl1bQ0BIXShPMSlbQ0BIXShbQ0gzXSlbQ0gyXVtDSDJdW0NAXTEyW0NAXTMoW0NIM10pW0NASF0oW0NIMl1bQ0gyXTIpW0NAXTQoW0NIM10pW0NAXShbT0hdKShbQ0BASF0oW0NIMl0zKVtPSF0pW0NAXTUoW0NIM10pW0NASF0oW0NAQEhdKFtDSDJdNClbT0hdKVtDSDJdW0NIMl1bQ0BAXTYoW0NIM10pW0NAQEhdN1tDQEBIXShbQ0gyXVtDQEBIXShPNylbT0hdKVtDSDJdW0NAQEhdKFtPSF0pW0NAQEhdNTY=

>  <s_epik_cmdline>  (122) 
J2VwaWtfcHl0aG9uJywgJy1waHQnLCAnMi4wJywgJy1waCcsICc3LjAnLCAnLXRuJywgJzgnLCAnLW1hJywgJzIwMCcsICctaW1hZScsICc8aW5maWxlLm1hZT4nLCAnLW9tYWUnLCAnPG91dGZpbGUubWFlPic=

>  <r_lp_tautomer_probability>  (122) 
1

>  <r_epik_Ionization_Penalty>  (122) 
2.7538e-06

>  <r_epik_Ionization_Penalty_Charging>  (122) 
0

>  <r_epik_Ionization_Penalty_Neutral>  (122) 
2.7538e-06

>  <r_epik_State_Penalty>  (122) 
-0

>  <r_epik_Charging_Adjusted_Penalty>  (122) 
0

>  <i_epik_Tot_Q>  (122) 
0

>  <i_epik_Tot_abs_Q>  (122) 
0

>  <s_epik_Chemistry_Notes>  (122) 
This compound contains an acetal/aminal-like group ( X-CH(R)-Y where X, Y are N, S, or O) that may be acid/base labile, releasing an aldehyde.

>  <s_lp_Force_Field>  (122) 
OPLS3e

>  <r_lp_Energy>  (122) 
137.522

>  <b_lp_Chiralities_Consistent>  (122) 
1

>  <s_lp_Variant>  (122) 
47:0-1

>  <s_i_glide_gridfile>  (122) 
pfpi4k_grid

>  <i_i_glide_lignum>  (122) 
22

>  <i_i_glide_rotatable_bonds>  (122) 
10

>  <r_i_docking_score>  (122) 
-2.74861

>  <r_i_glide_ligand_efficiency>  (122) 
-0.0624684

>  <r_i_glide_ligand_efficiency_sa>  (122) 
-0.220535

>  <r_i_glide_ligand_efficiency_ln>  (122) 
-0.574519

>  <r_i_glide_gscore>  (122) 
-2.74861

>  <r_i_glide_lipo>  (122) 
-0.359822

>  <r_i_glide_hbond>  (122) 
0

>  <r_i_glide_metal>  (122) 
-0

>  <r_i_glide_rewards>  (122) 
0

>  <r_i_glide_evdw>  (122) 
-24.1723

>  <r_i_glide_ecoul>  (122) 
-8.02511

>  <r_i_glide_erotb>  (122) 
0.0839927

>  <r_i_glide_esite>  (122) 
-0.0603987

>  <r_i_glide_emodel>  (122) 
-33.8368

>  <r_i_glide_energy>  (122) 
-32.1974

>  <r_i_glide_einternal>  (122) 
5.04112

>  <r_i_glide_intrahb_reward>  (122) 
-0

>  <i_i_glide_confnum>  (122) 
2

>  <i_i_glide_posenum>  (122) 
6

>  <r_i_glide_eff_state_penalty>  (122) 
0

>  <ligand_id>  (122) 
47

>  <original_smiles>  (122) 
CC1CCC2(CCC3C2(C)CC(O)C2(O)C3(C)CC(O)C3CCC4(C)C5OC(O)CC5CC(O)C4C32C)OC1COCCO

>  <smiles>  (122) 
[H]OC([H])([H])C([H])([H])OC([H])([H])C1([H])OC2(C([H])([H])C([H])([H])C1([H])C([H])([H])[H])C([H])([H])C([H])([H])C1([H])C2(C([H])([H])[H])C([H])([H])C([H])(O[H])C2(O[H])C1(C([H])([H])[H])C([H])([H])C([H])(O[H])C1([H])C([H])([H])C([H])([H])C3(C([H])([H])[H])C4([H])OC([H])(O[H])C([H])([H])C4([H])C([H])([H])C([H])(O[H])C3([H])C12C([H])([H])[H]

$$$$
47:0:1
     RDKit          3D

102108  0  0  1  0  0  0  0  0999 V2000
    0.4714   -8.1504    7.6567 C   0  0  0  0  0  0  0  0  0  0  0  0
    1.9710   -8.0236    7.2348 C   0  0  2  0  0  0  0  0  0  0  0  0
    2.4930   -6.7285    7.9395 C   0  0  0  0  0  0  0  0  0  0  0  0
    3.8739   -6.3628    7.3089 C   0  0  0  0  0  0  0  0  0  0  0  0
    3.8515   -6.2870    5.7549 C   0  0  2  0  0  0  0  0  0  0  0  0
    5.3067   -6.0553    5.2399 C   0  0  0  0  0  0  0  0  0  0  0  0
    5.5016   -4.5407    5.1994 C   0  0  0  0  0  0  0  0  0  0  0  0
    4.0828   -3.9098    5.0329 C   0  0  1  0  0  0  0  0  0  0  0  0
    3.0556   -5.0896    5.0800 C   0  0  1  0  0  0  0  0  0  0  0  0
    2.7255   -5.4972    3.5991 C   0  0  0  0  0  0  0  0  0  0  0  0
    1.7491   -4.6378    5.8235 C   0  0  0  0  0  0  0  0  0  0  0  0
    1.2124   -3.3028    5.3180 C   0  0  1  0  0  0  0  0  0  0  0  0
   -0.0389   -3.1522    5.9838 O   0  0  0  0  0  0  0  0  0  0  0  0
    2.2232   -2.1025    5.5736 C   0  0  1  0  0  0  0  0  0  0  0  0
    1.8096   -1.5661    6.8074 O   0  0  0  0  0  0  0  0  0  0  0  0
    3.7367   -2.6188    5.8997 C   0  0  1  0  0  0  0  0  0  0  0  0
    3.9752   -2.9159    7.4387 C   0  0  0  0  0  0  0  0  0  0  0  0
    4.7987   -1.5131    5.6620 C   0  0  0  0  0  0  0  0  0  0  0  0
    4.6309   -0.6422    4.4261 C   0  0  1  0  0  0  0  0  0  0  0  0
    4.9888   -1.3273    3.2412 O   0  0  0  0  0  0  0  0  0  0  0  0
    3.2418    0.0283    4.3735 C   0  0  2  0  0  0  0  0  0  0  0  0
    3.1732    1.1938    5.3746 C   0  0  0  0  0  0  0  0  0  0  0  0
    1.8918    2.0167    5.2250 C   0  0  0  0  0  0  0  0  0  0  0  0
    0.6125    1.2033    5.5179 C   0  0  1  0  0  0  0  0  0  0  0  0
    0.5751    0.9299    7.0510 C   0  0  0  0  0  0  0  0  0  0  0  0
   -0.6832    2.0927    5.3453 C   0  0  1  0  0  0  0  0  0  0  0  0
   -0.3853    3.4699    5.5983 O   0  0  0  0  0  0  0  0  0  0  0  0
   -0.9231    4.2845    4.6031 C   0  0  1  0  0  0  0  0  0  0  0  0
   -0.1391    5.3999    4.2991 O   0  0  0  0  0  0  0  0  0  0  0  0
   -1.0559    3.4046    3.3763 C   0  0  0  0  0  0  0  0  0  0  0  0
   -1.4737    2.1167    4.0361 C   0  0  1  0  0  0  0  0  0  0  0  0
   -1.3928    0.8381    3.2186 C   0  0  0  0  0  0  0  0  0  0  0  0
    0.0192    0.2456    3.1633 C   0  0  1  0  0  0  0  0  0  0  0  0
    0.8414    1.0607    2.3571 O   0  0  0  0  0  0  0  0  0  0  0  0
    0.6370   -0.0984    4.5693 C   0  0  1  0  0  0  0  0  0  0  0  0
    2.0228   -0.9557    4.4450 C   0  0  2  0  0  0  0  0  0  0  0  0
    2.0400   -1.7065    3.0608 C   0  0  0  0  0  0  0  0  0  0  0  0
    3.4280   -7.5816    5.2971 O   0  0  0  0  0  0  0  0  0  0  0  0
    2.0771   -7.9213    5.6658 C   0  0  1  0  0  0  0  0  0  0  0  0
    1.6884   -9.2651    4.9667 C   0  0  0  0  0  0  0  0  0  0  0  0
    1.0226   -8.9732    3.7334 O   0  0  0  0  0  0  0  0  0  0  0  0
    0.2338  -10.0529    3.2646 C   0  0  0  0  0  0  0  0  0  0  0  0
   -0.9371   -9.5097    2.4473 C   0  0  0  0  0  0  0  0  0  0  0  0
   -1.9687   -9.0606    3.2948 O   0  0  0  0  0  0  0  0  0  0  0  0
   -0.1269   -7.3263    7.2515 H   0  0  0  0  0  0  0  0  0  0  0  0
    0.3987   -8.1306    8.7473 H   0  0  0  0  0  0  0  0  0  0  0  0
    0.0211   -9.0948    7.3107 H   0  0  0  0  0  0  0  0  0  0  0  0
    2.5612   -8.8845    7.5745 H   0  0  0  0  0  0  0  0  0  0  0  0
    1.7624   -5.9546    7.8576 H   0  0  0  0  0  0  0  0  0  0  0  0
    2.6671   -6.9219    9.0046 H   0  0  0  0  0  0  0  0  0  0  0  0
    4.2680   -5.4491    7.7305 H   0  0  0  0  0  0  0  0  0  0  0  0
    4.6210   -7.0759    7.5999 H   0  0  0  0  0  0  0  0  0  0  0  0
    6.0677   -6.5457    5.8503 H   0  0  0  0  0  0  0  0  0  0  0  0
    5.4432   -6.4694    4.2400 H   0  0  0  0  0  0  0  0  0  0  0  0
    6.0214   -4.2211    6.1004 H   0  0  0  0  0  0  0  0  0  0  0  0
    6.1497   -4.2623    4.3635 H   0  0  0  0  0  0  0  0  0  0  0  0
    4.1249   -3.5719    3.9978 H   0  0  0  0  0  0  0  0  0  0  0  0
    2.2833   -4.6651    3.0261 H   0  0  0  0  0  0  0  0  0  0  0  0
    1.9923   -6.3131    3.5301 H   0  0  0  0  0  0  0  0  0  0  0  0
    3.6155   -5.8488    3.0420 H   0  0  0  0  0  0  0  0  0  0  0  0
    0.9753   -5.3902    5.6977 H   0  0  0  0  0  0  0  0  0  0  0  0
    1.9246   -4.4858    6.8629 H   0  0  0  0  0  0  0  0  0  0  0  0
    0.9325   -3.4795    4.2838 H   0  0  0  0  0  0  0  0  0  0  0  0
   -0.4919   -2.4056    5.6188 H   0  0  0  0  0  0  0  0  0  0  0  0
    2.3702   -0.8284    6.9963 H   0  0  0  0  0  0  0  0  0  0  0  0
    3.9129   -2.0236    8.0588 H   0  0  0  0  0  0  0  0  0  0  0  0
    4.9619   -3.3187    7.6573 H   0  0  0  0  0  0  0  0  0  0  0  0
    3.2711   -3.5670    7.9361 H   0  0  0  0  0  0  0  0  0  0  0  0
    4.7926   -0.8323    6.5129 H   0  0  0  0  0  0  0  0  0  0  0  0
    5.7984   -1.9385    5.6779 H   0  0  0  0  0  0  0  0  0  0  0  0
    5.3776    0.1489    4.4973 H   0  0  0  0  0  0  0  0  0  0  0  0
    5.8904   -1.6130    3.3071 H   0  0  0  0  0  0  0  0  0  0  0  0
    3.1933    0.5169    3.4096 H   0  0  0  0  0  0  0  0  0  0  0  0
    3.3037    0.8453    6.3934 H   0  0  0  0  0  0  0  0  0  0  0  0
    4.0175    1.8595    5.1928 H   0  0  0  0  0  0  0  0  0  0  0  0
    1.9543    2.8788    5.8923 H   0  0  0  0  0  0  0  0  0  0  0  0
    1.8497    2.4261    4.2197 H   0  0  0  0  0  0  0  0  0  0  0  0
   -0.1115    0.1238    7.3107 H   0  0  0  0  0  0  0  0  0  0  0  0
    0.2540    1.8145    7.6069 H   0  0  0  0  0  0  0  0  0  0  0  0
    1.5363    0.7079    7.4962 H   0  0  0  0  0  0  0  0  0  0  0  0
   -1.4211    1.7917    6.0914 H   0  0  0  0  0  0  0  0  0  0  0  0
   -1.8931    4.6313    4.9452 H   0  0  0  0  0  0  0  0  0  0  0  0
    0.5138    5.1442    3.6599 H   0  0  0  0  0  0  0  0  0  0  0  0
   -1.7848    3.8063    2.6759 H   0  0  0  0  0  0  0  0  0  0  0  0
   -0.0951    3.3177    2.8868 H   0  0  0  0  0  0  0  0  0  0  0  0
   -2.5314    2.2454    4.2777 H   0  0  0  0  0  0  0  0  0  0  0  0
   -2.0361    0.0978    3.6914 H   0  0  0  0  0  0  0  0  0  0  0  0
   -1.7666    1.0240    2.2107 H   0  0  0  0  0  0  0  0  0  0  0  0
   -0.1519   -0.6531    2.5948 H   0  0  0  0  0  0  0  0  0  0  0  0
    0.4446    1.1468    1.4982 H   0  0  0  0  0  0  0  0  0  0  0  0
   -0.0978   -0.7774    5.0037 H   0  0  0  0  0  0  0  0  0  0  0  0
    2.2292   -1.0368    2.2330 H   0  0  0  0  0  0  0  0  0  0  0  0
    1.1180   -2.2226    2.8030 H   0  0  0  0  0  0  0  0  0  0  0  0
    2.8056   -2.4619    2.9788 H   0  0  0  0  0  0  0  0  0  0  0  0
    1.3574   -7.1741    5.3331 H   0  0  0  0  0  0  0  0  0  0  0  0
    2.5375   -9.9726    4.8551 H   0  0  0  0  0  0  0  0  0  0  0  0
    0.9333   -9.7457    5.5997 H   0  0  0  0  0  0  0  0  0  0  0  0
    0.8758  -10.6914    2.6724 H   0  0  0  0  0  0  0  0  0  0  0  0
   -0.1558  -10.6894    4.0630 H   0  0  0  0  0  0  0  0  0  0  0  0
   -0.6023   -8.7137    1.7743 H   0  0  0  0  0  0  0  0  0  0  0  0
   -1.3371  -10.3055    1.8212 H   0  0  0  0  0  0  0  0  0  0  0  0
   -2.1549   -9.7607    3.9580 H   0  0  0  0  0  0  0  0  0  0  0  0
  1  2  1  0
  1 45  1  0
  1 46  1  0
  1 47  1  0
  2 39  1  0
  2  3  1  0
  2 48  1  1
  3  4  1  0
  3 49  1  0
  3 50  1  0
  4  5  1  0
  4 51  1  0
  4 52  1  0
  5  9  1  0
  5  6  1  0
  5 38  1  6
  6  7  1  0
  6 53  1  0
  6 54  1  0
  7  8  1  0
  7 55  1  0
  7 56  1  0
  8 16  1  0
  8  9  1  0
  8 57  1  6
  9 10  1  6
  9 11  1  0
 10 58  1  0
 10 59  1  0
 10 60  1  0
 11 12  1  0
 11 61  1  0
 11 62  1  0
 12 13  1  0
 12 14  1  0
 12 63  1  6
 13 64  1  0
 14 36  1  0
 14 15  1  1
 14 16  1  0
 15 65  1  0
 16 17  1  1
 16 18  1  0
 17 66  1  0
 17 67  1  0
 17 68  1  0
 18 19  1  0
 18 69  1  0
 18 70  1  0
 19 20  1  0
 19 21  1  0
 19 71  1  1
 20 72  1  0
 21 36  1  0
 21 22  1  0
 21 73  1  6
 22 23  1  0
 22 74  1  0
 22 75  1  0
 23 24  1  0
 23 76  1  0
 23 77  1  0
 24 35  1  0
 24 25  1  1
 24 26  1  0
 25 78  1  0
 25 79  1  0
 25 80  1  0
 26 31  1  0
 26 27  1  0
 26 81  1  1
 27 28  1  0
 28 29  1  0
 28 30  1  0
 28 82  1  1
 29 83  1  0
 30 31  1  0
 30 84  1  0
 30 85  1  0
 31 32  1  0
 31 86  1  1
 32 33  1  0
 32 87  1  0
 32 88  1  0
 33 34  1  0
 33 35  1  0
 33 89  1  6
 34 90  1  0
 35 36  1  0
 35 91  1  1
 36 37  1  6
 37 92  1  0
 37 93  1  0
 37 94  1  0
 38 39  1  0
 39 40  1  0
 39 95  1  6
 40 41  1  0
 40 96  1  0
 40 97  1  0
 41 42  1  0
 42 43  1  0
 42 98  1  0
 42 99  1  0
 43 44  1  0
 43100  1  0
 43101  1  0
 44102  1  0
M  END
>  <i_m_ct_stereo_status>  (123) 
1

>  <s_m_source_file>  (123) 
/var/tmp/pbs.5076255.sched01/tmpav68hifr/35m6z7vsub.sdf

>  <i_m_source_file_index>  (123) 
22

>  <i_lp_mmshare_version>  (123) 
48012

>  <i_f3d_flags>  (123) 
0

>  <s_epik_input>  (123) 
W09IXVtDSDJdW0NIMl1PW0NIMl1bQ0BIXShPMSlbQ0BIXShbQ0gzXSlbQ0gyXVtDSDJdW0NAXTEyW0NAXTMoW0NIM10pW0NASF0oW0NIMl1bQ0gyXTIpW0NAXTQoW0NIM10pW0NAXShbT0hdKShbQ0BASF0oW0NIMl0zKVtPSF0pW0NAXTUoW0NIM10pW0NASF0oW0NAQEhdKFtDSDJdNClbT0hdKVtDSDJdW0NIMl1bQ0BAXTYoW0NIM10pW0NAQEhdN1tDQEBIXShbQ0gyXVtDQEBIXShPNylbT0hdKVtDSDJdW0NAQEhdKFtPSF0pW0NAQEhdNTY=

>  <s_epik_cmdline>  (123) 
J2VwaWtfcHl0aG9uJywgJy1waHQnLCAnMi4wJywgJy1waCcsICc3LjAnLCAnLXRuJywgJzgnLCAnLW1hJywgJzIwMCcsICctaW1hZScsICc8aW5maWxlLm1hZT4nLCAnLW9tYWUnLCAnPG91dGZpbGUubWFlPic=

>  <r_lp_tautomer_probability>  (123) 
1

>  <r_epik_Ionization_Penalty>  (123) 
2.7538e-06

>  <r_epik_Ionization_Penalty_Charging>  (123) 
0

>  <r_epik_Ionization_Penalty_Neutral>  (123) 
2.7538e-06

>  <r_epik_State_Penalty>  (123) 
-0

>  <r_epik_Charging_Adjusted_Penalty>  (123) 
0

>  <i_epik_Tot_Q>  (123) 
0

>  <i_epik_Tot_abs_Q>  (123) 
0

>  <s_epik_Chemistry_Notes>  (123) 
This compound contains an acetal/aminal-like group ( X-CH(R)-Y where X, Y are N, S, or O) that may be acid/base labile, releasing an aldehyde.

>  <s_lp_Force_Field>  (123) 
OPLS3e

>  <r_lp_Energy>  (123) 
137.522

>  <b_lp_Chiralities_Consistent>  (123) 
1

>  <s_lp_Variant>  (123) 
47:0-1

>  <s_i_glide_gridfile>  (123) 
pfpi4k_grid

>  <i_i_glide_lignum>  (123) 
22

>  <i_i_glide_rotatable_bonds>  (123) 
10

>  <r_i_docking_score>  (123) 
-2.64566

>  <r_i_glide_ligand_efficiency>  (123) 
-0.0601286

>  <r_i_glide_ligand_efficiency_sa>  (123) 
-0.212275

>  <r_i_glide_ligand_efficiency_ln>  (123) 
-0.553

>  <r_i_glide_gscore>  (123) 
-2.64566

>  <r_i_glide_lipo>  (123) 
-0.254644

>  <r_i_glide_hbond>  (123) 
0

>  <r_i_glide_metal>  (123) 
-0

>  <r_i_glide_rewards>  (123) 
0

>  <r_i_glide_evdw>  (123) 
-24.8191

>  <r_i_glide_ecoul>  (123) 
-7.84961

>  <r_i_glide_erotb>  (123) 
0.0839927

>  <r_i_glide_esite>  (123) 
-0.056613

>  <r_i_glide_emodel>  (123) 
-34.3697

>  <r_i_glide_energy>  (123) 
-32.6687

>  <r_i_glide_einternal>  (123) 
5.80511

>  <r_i_glide_intrahb_reward>  (123) 
-0

>  <i_i_glide_confnum>  (123) 
2

>  <i_i_glide_posenum>  (123) 
9

>  <r_i_glide_eff_state_penalty>  (123) 
0

>  <ligand_id>  (123) 
47

>  <original_smiles>  (123) 
CC1CCC2(CCC3C2(C)CC(O)C2(O)C3(C)CC(O)C3CCC4(C)C5OC(O)CC5CC(O)C4C32C)OC1COCCO

>  <smiles>  (123) 
[H]OC([H])([H])C([H])([H])OC([H])([H])C1([H])OC2(C([H])([H])C([H])([H])C1([H])C([H])([H])[H])C([H])([H])C([H])([H])C1([H])C2(C([H])([H])[H])C([H])([H])C([H])(O[H])C2(O[H])C1(C([H])([H])[H])C([H])([H])C([H])(O[H])C1([H])C([H])([H])C([H])([H])C3(C([H])([H])[H])C4([H])OC([H])(O[H])C([H])([H])C4([H])C([H])([H])C([H])(O[H])C3([H])C12C([H])([H])[H]

$$$$
47:0:2
     RDKit          3D

102108  0  0  1  0  0  0  0  0999 V2000
    0.4366   -7.8247    7.5591 C   0  0  0  0  0  0  0  0  0  0  0  0
    1.8448   -7.7883    6.9076 C   0  0  2  0  0  0  0  0  0  0  0  0
    2.5704   -6.5512    7.5133 C   0  0  0  0  0  0  0  0  0  0  0  0
    3.8511   -6.2835    6.6648 C   0  0  0  0  0  0  0  0  0  0  0  0
    3.5802   -6.2022    5.1358 C   0  0  2  0  0  0  0  0  0  0  0  0
    4.9438   -6.0741    4.3870 C   0  0  0  0  0  0  0  0  0  0  0  0
    5.2398   -4.5767    4.3047 C   0  0  0  0  0  0  0  0  0  0  0  0
    3.8620   -3.8430    4.3722 C   0  0  1  0  0  0  0  0  0  0  0  0
    2.7725   -4.9420    4.5922 C   0  0  1  0  0  0  0  0  0  0  0  0
    2.1747   -5.3132    3.1910 C   0  0  0  0  0  0  0  0  0  0  0  0
    1.6360   -4.3910    5.5332 C   0  0  0  0  0  0  0  0  0  0  0  0
    1.1086   -3.0095    5.1386 C   0  0  1  0  0  0  0  0  0  0  0  0
   -0.0052   -2.7377    5.9982 O   0  0  0  0  0  0  0  0  0  0  0  0
    2.2519   -1.9053    5.2048 C   0  0  1  0  0  0  0  0  0  0  0  0
    2.0948   -1.3615    6.4949 O   0  0  0  0  0  0  0  0  0  0  0  0
    3.7512   -2.5371    5.2784 C   0  0  1  0  0  0  0  0  0  0  0  0
    4.2263   -2.8590    6.7578 C   0  0  0  0  0  0  0  0  0  0  0  0
    4.8321   -1.5068    4.8624 C   0  0  0  0  0  0  0  0  0  0  0  0
    4.5398   -0.6144    3.6643 C   0  0  1  0  0  0  0  0  0  0  0  0
    4.6523   -1.3134    2.4407 O   0  0  0  0  0  0  0  0  0  0  0  0
    3.2198    0.1583    3.8354 C   0  0  2  0  0  0  0  0  0  0  0  0
    3.4096    1.3147    4.8287 C   0  0  0  0  0  0  0  0  0  0  0  0
    2.1860    2.2328    4.8848 C   0  0  0  0  0  0  0  0  0  0  0  0
    0.9159    1.5129    5.3883 C   0  0  1  0  0  0  0  0  0  0  0  0
    1.1131    1.2313    6.9079 C   0  0  0  0  0  0  0  0  0  0  0  0
   -0.3201    2.5003    5.4260 C   0  0  1  0  0  0  0  0  0  0  0  0
    0.1207    3.8490    5.6197 O   0  0  0  0  0  0  0  0  0  0  0  0
   -0.5087    4.7118    4.7230 C   0  0  1  0  0  0  0  0  0  0  0  0
    0.3054    5.7622    4.2905 O   0  0  0  0  0  0  0  0  0  0  0  0
   -0.9108    3.8529    3.5385 C   0  0  0  0  0  0  0  0  0  0  0  0
   -1.3100    2.5941    4.2644 C   0  0  1  0  0  0  0  0  0  0  0  0
   -1.4526    1.3226    3.4458 C   0  0  0  0  0  0  0  0  0  0  0  0
   -0.1282    0.6198    3.1718 C   0  0  1  0  0  0  0  0  0  0  0  0
    0.6223    1.3630    2.2333 O   0  0  0  0  0  0  0  0  0  0  0  0
    0.6846    0.2174    4.4591 C   0  0  1  0  0  0  0  0  0  0  0  0
    1.9638   -0.7372    4.1147 C   0  0  2  0  0  0  0  0  0  0  0  0
    1.6989   -1.4766    2.7494 C   0  0  0  0  0  0  0  0  0  0  0  0
    2.9981   -7.4643    4.7710 O   0  0  0  0  0  0  0  0  0  0  0  0
    1.7030   -7.6840    5.3493 C   0  0  1  0  0  0  0  0  0  0  0  0
    1.0836   -8.9699    4.7525 C   0  0  0  0  0  0  0  0  0  0  0  0
    0.8460   -8.8431    3.3540 O   0  0  0  0  0  0  0  0  0  0  0  0
   -0.1118   -9.7807    2.8994 C   0  0  0  0  0  0  0  0  0  0  0  0
   -1.4165   -9.0604    2.5260 C   0  0  0  0  0  0  0  0  0  0  0  0
   -2.1306   -8.6745    3.6704 O   0  0  0  0  0  0  0  0  0  0  0  0
   -0.1652   -6.9607    7.2599 H   0  0  0  0  0  0  0  0  0  0  0  0
    0.5242   -7.8252    8.6443 H   0  0  0  0  0  0  0  0  0  0  0  0
   -0.1127   -8.7349    7.2897 H   0  0  0  0  0  0  0  0  0  0  0  0
    2.4097   -8.6893    7.1545 H   0  0  0  0  0  0  0  0  0  0  0  0
    1.8877   -5.7257    7.5554 H   0  0  0  0  0  0  0  0  0  0  0  0
    2.8907   -6.7573    8.5378 H   0  0  0  0  0  0  0  0  0  0  0  0
    4.3735   -5.4031    7.0092 H   0  0  0  0  0  0  0  0  0  0  0  0
    4.5762   -7.0536    6.8391 H   0  0  0  0  0  0  0  0  0  0  0  0
    5.7565   -6.6232    4.8677 H   0  0  0  0  0  0  0  0  0  0  0  0
    4.8805   -6.4920    3.3811 H   0  0  0  0  0  0  0  0  0  0  0  0
    5.9226   -4.3039    5.1073 H   0  0  0  0  0  0  0  0  0  0  0  0
    5.7646   -4.3385    3.3732 H   0  0  0  0  0  0  0  0  0  0  0  0
    3.7622   -3.4994    3.3437 H   0  0  0  0  0  0  0  0  0  0  0  0
    1.7089   -4.4465    2.6965 H   0  0  0  0  0  0  0  0  0  0  0  0
    1.3811   -6.0695    3.2441 H   0  0  0  0  0  0  0  0  0  0  0  0
    2.9301   -5.7266    2.4986 H   0  0  0  0  0  0  0  0  0  0  0  0
    0.8025   -5.0862    5.5493 H   0  0  0  0  0  0  0  0  0  0  0  0
    1.9996   -4.2622    6.5269 H   0  0  0  0  0  0  0  0  0  0  0  0
    0.6727   -3.1641    4.1596 H   0  0  0  0  0  0  0  0  0  0  0  0
    0.2990   -2.8645    6.8906 H   0  0  0  0  0  0  0  0  0  0  0  0
    1.3030   -0.8470    6.4762 H   0  0  0  0  0  0  0  0  0  0  0  0
    4.3309   -1.9650    7.3708 H   0  0  0  0  0  0  0  0  0  0  0  0
    5.2038   -3.3332    6.8129 H   0  0  0  0  0  0  0  0  0  0  0  0
    3.5685   -3.4596    7.3687 H   0  0  0  0  0  0  0  0  0  0  0  0
    5.0306   -0.8335    5.6983 H   0  0  0  0  0  0  0  0  0  0  0  0
    5.7675   -2.0278    4.7036 H   0  0  0  0  0  0  0  0  0  0  0  0
    5.3535    0.1106    3.6080 H   0  0  0  0  0  0  0  0  0  0  0  0
    4.3951   -0.7289    1.7395 H   0  0  0  0  0  0  0  0  0  0  0  0
    3.0517    0.6592    2.8919 H   0  0  0  0  0  0  0  0  0  0  0  0
    3.6778    0.9456    5.8137 H   0  0  0  0  0  0  0  0  0  0  0  0
    4.2617    1.9161    4.5084 H   0  0  0  0  0  0  0  0  0  0  0  0
    2.4247    3.0833    5.5268 H   0  0  0  0  0  0  0  0  0  0  0  0
    2.0133    2.6514    3.8971 H   0  0  0  0  0  0  0  0  0  0  0  0
    0.4114    0.4891    7.2899 H   0  0  0  0  0  0  0  0  0  0  0  0
    0.9593    2.1354    7.5027 H   0  0  0  0  0  0  0  0  0  0  0  0
    2.1158    0.9297    7.1889 H   0  0  0  0  0  0  0  0  0  0  0  0
   -0.9448    2.2539    6.2870 H   0  0  0  0  0  0  0  0  0  0  0  0
   -1.3711    5.1359    5.2249 H   0  0  0  0  0  0  0  0  0  0  0  0
    0.8428    5.4508    3.5749 H   0  0  0  0  0  0  0  0  0  0  0  0
   -1.7118    4.3141    2.9643 H   0  0  0  0  0  0  0  0  0  0  0  0
   -0.0550    3.6956    2.8956 H   0  0  0  0  0  0  0  0  0  0  0  0
   -2.2979    2.8019    4.6772 H   0  0  0  0  0  0  0  0  0  0  0  0
   -2.1013    0.6375    4.0010 H   0  0  0  0  0  0  0  0  0  0  0  0
   -1.9687    1.5497    2.5121 H   0  0  0  0  0  0  0  0  0  0  0  0
   -0.4668   -0.2585    2.6410 H   0  0  0  0  0  0  0  0  0  0  0  0
    0.0998    1.5017    1.4521 H   0  0  0  0  0  0  0  0  0  0  0  0
   -0.0223   -0.4073    5.0066 H   0  0  0  0  0  0  0  0  0  0  0  0
    1.7974   -0.8201    1.8942 H   0  0  0  0  0  0  0  0  0  0  0  0
    0.7108   -1.9192    2.6515 H   0  0  0  0  0  0  0  0  0  0  0  0
    2.3790   -2.2899    2.5467 H   0  0  0  0  0  0  0  0  0  0  0  0
    0.9959   -6.8981    5.1018 H   0  0  0  0  0  0  0  0  0  0  0  0
    1.6630   -9.8753    4.9901 H   0  0  0  0  0  0  0  0  0  0  0  0
    0.0892   -9.0714    5.1965 H   0  0  0  0  0  0  0  0  0  0  0  0
    0.3102  -10.2493    2.0247 H   0  0  0  0  0  0  0  0  0  0  0  0
   -0.2813  -10.5983    3.6052 H   0  0  0  0  0  0  0  0  0  0  0  0
   -1.2192   -8.2023    1.8743 H   0  0  0  0  0  0  0  0  0  0  0  0
   -2.0578   -9.7462    1.9702 H   0  0  0  0  0  0  0  0  0  0  0  0
   -2.1800   -9.4288    4.2673 H   0  0  0  0  0  0  0  0  0  0  0  0
  1  2  1  0
  1 45  1  0
  1 46  1  0
  1 47  1  0
  2 39  1  0
  2  3  1  0
  2 48  1  6
  3  4  1  0
  3 49  1  0
  3 50  1  0
  4  5  1  0
  4 51  1  0
  4 52  1  0
  5  9  1  0
  5  6  1  0
  5 38  1  6
  6  7  1  0
  6 53  1  0
  6 54  1  0
  7  8  1  0
  7 55  1  0
  7 56  1  0
  8 16  1  0
  8  9  1  0
  8 57  1  6
  9 10  1  6
  9 11  1  0
 10 58  1  0
 10 59  1  0
 10 60  1  0
 11 12  1  0
 11 61  1  0
 11 62  1  0
 12 13  1  0
 12 14  1  0
 12 63  1  6
 13 64  1  0
 14 36  1  0
 14 15  1  1
 14 16  1  0
 15 65  1  0
 16 17  1  1
 16 18  1  0
 17 66  1  0
 17 67  1  0
 17 68  1  0
 18 19  1  0
 18 69  1  0
 18 70  1  0
 19 20  1  0
 19 21  1  0
 19 71  1  6
 20 72  1  0
 21 36  1  0
 21 22  1  0
 21 73  1  6
 22 23  1  0
 22 74  1  0
 22 75  1  0
 23 24  1  0
 23 76  1  0
 23 77  1  0
 24 35  1  0
 24 25  1  1
 24 26  1  0
 25 78  1  0
 25 79  1  0
 25 80  1  0
 26 31  1  0
 26 27  1  0
 26 81  1  1
 27 28  1  0
 28 29  1  0
 28 30  1  0
 28 82  1  1
 29 83  1  0
 30 31  1  0
 30 84  1  0
 30 85  1  0
 31 32  1  0
 31 86  1  1
 32 33  1  0
 32 87  1  0
 32 88  1  0
 33 34  1  0
 33 35  1  0
 33 89  1  6
 34 90  1  0
 35 36  1  0
 35 91  1  1
 36 37  1  6
 37 92  1  0
 37 93  1  0
 37 94  1  0
 38 39  1  0
 39 40  1  0
 39 95  1  1
 40 41  1  0
 40 96  1  0
 40 97  1  0
 41 42  1  0
 42 43  1  0
 42 98  1  0
 42 99  1  0
 43 44  1  0
 43100  1  0
 43101  1  0
 44102  1  0
M  END
>  <i_m_ct_stereo_status>  (124) 
1

>  <s_m_source_file>  (124) 
/var/tmp/pbs.5076255.sched01/tmpav68hifr/35m6z7vsub.sdf

>  <i_m_source_file_index>  (124) 
22

>  <i_lp_mmshare_version>  (124) 
48012

>  <i_f3d_flags>  (124) 
0

>  <s_epik_input>  (124) 
W09IXVtDSDJdW0NIMl1PW0NIMl1bQ0BIXShPMSlbQ0BIXShbQ0gzXSlbQ0gyXVtDSDJdW0NAXTEyW0NAXTMoW0NIM10pW0NASF0oW0NIMl1bQ0gyXTIpW0NAXTQoW0NIM10pW0NAXShbT0hdKShbQ0BASF0oW0NIMl0zKVtPSF0pW0NAXTUoW0NIM10pW0NASF0oW0NAQEhdKFtDSDJdNClbT0hdKVtDSDJdW0NIMl1bQ0BAXTYoW0NIM10pW0NAQEhdN1tDQEBIXShbQ0gyXVtDQEBIXShPNylbT0hdKVtDSDJdW0NAQEhdKFtPSF0pW0NAQEhdNTY=

>  <s_epik_cmdline>  (124) 
J2VwaWtfcHl0aG9uJywgJy1waHQnLCAnMi4wJywgJy1waCcsICc3LjAnLCAnLXRuJywgJzgnLCAnLW1hJywgJzIwMCcsICctaW1hZScsICc8aW5maWxlLm1hZT4nLCAnLW9tYWUnLCAnPG91dGZpbGUubWFlPic=

>  <r_lp_tautomer_probability>  (124) 
1

>  <r_epik_Ionization_Penalty>  (124) 
2.7538e-06

>  <r_epik_Ionization_Penalty_Charging>  (124) 
0

>  <r_epik_Ionization_Penalty_Neutral>  (124) 
2.7538e-06

>  <r_epik_State_Penalty>  (124) 
-0

>  <r_epik_Charging_Adjusted_Penalty>  (124) 
0

>  <i_epik_Tot_Q>  (124) 
0

>  <i_epik_Tot_abs_Q>  (124) 
0

>  <s_epik_Chemistry_Notes>  (124) 
This compound contains an acetal/aminal-like group ( X-CH(R)-Y where X, Y are N, S, or O) that may be acid/base labile, releasing an aldehyde.

>  <s_lp_Force_Field>  (124) 
OPLS3e

>  <r_lp_Energy>  (124) 
137.522

>  <b_lp_Chiralities_Consistent>  (124) 
1

>  <s_lp_Variant>  (124) 
47:0-1

>  <s_i_glide_gridfile>  (124) 
pfpi4k_grid

>  <i_i_glide_lignum>  (124) 
22

>  <i_i_glide_rotatable_bonds>  (124) 
10

>  <r_i_docking_score>  (124) 
-2.48621

>  <r_i_glide_ligand_efficiency>  (124) 
-0.0565048

>  <r_i_glide_ligand_efficiency_sa>  (124) 
-0.199482

>  <r_i_glide_ligand_efficiency_ln>  (124) 
-0.519672

>  <r_i_glide_gscore>  (124) 
-2.48621

>  <r_i_glide_lipo>  (124) 
-0.250148

>  <r_i_glide_hbond>  (124) 
0

>  <r_i_glide_metal>  (124) 
-0

>  <r_i_glide_rewards>  (124) 
0

>  <r_i_glide_evdw>  (124) 
-26.8961

>  <r_i_glide_ecoul>  (124) 
-6.12578

>  <r_i_glide_erotb>  (124) 
0.0839927

>  <r_i_glide_esite>  (124) 
-0.0563833

>  <r_i_glide_emodel>  (124) 
-34.0428

>  <r_i_glide_energy>  (124) 
-33.0219

>  <r_i_glide_einternal>  (124) 
6.07506

>  <r_i_glide_intrahb_reward>  (124) 
-0

>  <i_i_glide_confnum>  (124) 
2

>  <i_i_glide_posenum>  (124) 
1

>  <r_i_glide_eff_state_penalty>  (124) 
0

>  <ligand_id>  (124) 
47

>  <original_smiles>  (124) 
CC1CCC2(CCC3C2(C)CC(O)C2(O)C3(C)CC(O)C3CCC4(C)C5OC(O)CC5CC(O)C4C32C)OC1COCCO

>  <smiles>  (124) 
[H]OC([H])([H])C([H])([H])OC([H])([H])C1([H])OC2(C([H])([H])C([H])([H])C1([H])C([H])([H])[H])C([H])([H])C([H])([H])C1([H])C2(C([H])([H])[H])C([H])([H])C([H])(O[H])C2(O[H])C1(C([H])([H])[H])C([H])([H])C([H])(O[H])C1([H])C([H])([H])C([H])([H])C3(C([H])([H])[H])C4([H])OC([H])(O[H])C([H])([H])C4([H])C([H])([H])C([H])(O[H])C3([H])C12C([H])([H])[H]

$$$$
48:0:0
     RDKit          3D

 54 59  0  0  1  0  0  0  0  0999 V2000
    1.1993    5.8836    3.5387 C   0  0  0  0  0  0  0  0  0  0  0  0
   -0.2026    5.7291    3.3780 O   0  0  0  0  0  0  0  0  0  0  0  0
   -0.7585    4.5289    3.7411 C   0  0  0  0  0  0  0  0  0  0  0  0
   -2.0129    4.1396    3.2545 C   0  0  0  0  0  0  0  0  0  0  0  0
   -2.4559    2.7946    3.3151 C   0  0  0  0  0  0  0  0  0  0  0  0
   -1.6777    1.8090    3.9960 C   0  0  0  0  0  0  0  0  0  0  0  0
   -0.7411    2.3586    4.8944 C   0  0  0  0  0  0  0  0  0  0  0  0
   -0.0803    3.5907    4.5559 C   0  0  0  0  0  0  0  0  0  0  0  0
    1.1773    3.0564    4.5816 O   0  0  0  0  0  0  0  0  0  0  0  0
    0.6376    1.8392    5.2349 C   0  0  1  0  0  0  0  0  0  0  0  0
    1.1572    1.8076    6.5197 O   0  0  0  0  0  0  0  0  0  0  0  0
    2.4905    1.3158    6.2869 C   0  0  0  0  0  0  0  0  0  0  0  0
    2.2585    0.0569    5.4007 C   0  0  2  0  0  0  0  0  0  0  0  0
    2.3399   -1.1404    6.3969 C   0  0  0  0  0  0  0  0  0  0  0  0
    3.2289   -0.2938    4.2341 C   0  0  2  0  0  0  0  0  0  0  0  0
    4.6576    0.2559    4.1521 C   0  0  1  0  0  0  0  0  0  0  0  0
    5.4167   -0.1914    5.2660 O   0  0  0  0  0  0  0  0  0  0  0  0
    6.6221    0.5351    5.4552 C   0  0  0  0  0  0  0  0  0  0  0  0
    5.1784   -0.3281    2.8169 C   0  0  0  0  0  0  0  0  0  0  0  0
    3.9042   -0.5956    2.0149 C   0  0  0  0  0  0  0  0  0  0  0  0
    3.8545   -1.1433    0.9194 O   0  0  0  0  0  0  0  0  0  0  0  0
    2.7169   -0.0824    2.8039 C   0  0  1  0  0  0  0  0  0  0  0  0
    1.2861   -0.6163    2.5332 C   0  0  0  0  0  0  0  0  0  0  0  0
    0.4251    0.3810    3.3373 C   0  0  1  0  0  0  0  0  0  0  0  0
   -1.1446    0.5687    3.2295 C   0  0  0  0  0  0  0  0  0  0  0  0
    0.8290    0.3738    4.8390 C   0  0  2  0  0  0  0  0  0  0  0  0
   -0.1360   -0.4542    5.5441 O   0  0  0  0  0  0  0  0  0  0  0  0
   -0.4272   -1.8055    5.1721 C   0  0  0  0  0  0  0  0  0  0  0  0
    1.5500    6.8845    3.2659 H   0  0  0  0  0  0  0  0  0  0  0  0
    1.6895    5.1595    2.8880 H   0  0  0  0  0  0  0  0  0  0  0  0
    1.5196    5.7060    4.5611 H   0  0  0  0  0  0  0  0  0  0  0  0
   -2.5812    4.8691    2.6993 H   0  0  0  0  0  0  0  0  0  0  0  0
   -3.2222    2.5328    2.6165 H   0  0  0  0  0  0  0  0  0  0  0  0
    3.1367    2.0622    5.8193 H   0  0  0  0  0  0  0  0  0  0  0  0
    2.9520    1.0906    7.2562 H   0  0  0  0  0  0  0  0  0  0  0  0
    2.0692   -2.0742    5.9370 H   0  0  0  0  0  0  0  0  0  0  0  0
    1.6925   -0.9466    7.2570 H   0  0  0  0  0  0  0  0  0  0  0  0
    3.3736   -1.2021    6.7979 H   0  0  0  0  0  0  0  0  0  0  0  0
    3.3443   -1.3767    4.3100 H   0  0  0  0  0  0  0  0  0  0  0  0
    4.6187    1.3486    4.0968 H   0  0  0  0  0  0  0  0  0  0  0  0
    7.1272    0.1580    6.3397 H   0  0  0  0  0  0  0  0  0  0  0  0
    6.4257    1.5979    5.6117 H   0  0  0  0  0  0  0  0  0  0  0  0
    7.2890    0.4263    4.6014 H   0  0  0  0  0  0  0  0  0  0  0  0
    5.8329    0.3483    2.2752 H   0  0  0  0  0  0  0  0  0  0  0  0
    5.6979   -1.2751    2.9609 H   0  0  0  0  0  0  0  0  0  0  0  0
    2.7283    0.9833    2.5786 H   0  0  0  0  0  0  0  0  0  0  0  0
    1.0187   -0.6079    1.4671 H   0  0  0  0  0  0  0  0  0  0  0  0
    1.2116   -1.6331    2.8999 H   0  0  0  0  0  0  0  0  0  0  0  0
    0.7621    1.3265    2.8899 H   0  0  0  0  0  0  0  0  0  0  0  0
   -1.7458   -0.2402    3.6252 H   0  0  0  0  0  0  0  0  0  0  0  0
   -1.3912    0.6341    2.1720 H   0  0  0  0  0  0  0  0  0  0  0  0
   -1.3432   -2.1035    5.6976 H   0  0  0  0  0  0  0  0  0  0  0  0
    0.3675   -2.4929    5.3702 H   0  0  0  0  0  0  0  0  0  0  0  0
   -0.6967   -1.9123    4.1216 H   0  0  0  0  0  0  0  0  0  0  0  0
  1  2  1  0
  1 29  1  0
  1 30  1  0
  1 31  1  0
  2  3  1  0
  3  8  2  0
  3  4  1  0
  4  5  2  0
  4 32  1  0
  5  6  1  0
  5 33  1  0
  6 25  1  0
  6  7  2  0
  7 10  1  0
  7  8  1  0
  8  9  1  0
 10  9  1  6
 10 26  1  0
 10 11  1  0
 11 12  1  0
 12 13  1  0
 12 34  1  0
 12 35  1  0
 13 26  1  0
 13 14  1  1
 13 15  1  0
 14 36  1  0
 14 37  1  0
 14 38  1  0
 15 22  1  0
 15 16  1  0
 15 39  1  6
 16 17  1  0
 16 19  1  0
 16 40  1  6
 17 18  1  0
 18 41  1  0
 18 42  1  0
 18 43  1  0
 19 20  1  0
 19 44  1  0
 19 45  1  0
 20 21  2  0
 20 22  1  0
 22 23  1  0
 22 46  1  6
 23 24  1  0
 23 47  1  0
 23 48  1  0
 24 25  1  0
 24 26  1  0
 24 49  1  6
 25 50  1  0
 25 51  1  0
 26 27  1  1
 27 28  1  0
 28 52  1  0
 28 53  1  0
 28 54  1  0
M  END
>  <i_m_ct_stereo_status>  (125) 
1

>  <s_m_source_file>  (125) 
/var/tmp/pbs.5076255.sched01/tmpav68hifr/35m6z7vsub.sdf

>  <i_m_source_file_index>  (125) 
23

>  <i_lp_mmshare_version>  (125) 
48012

>  <i_f3d_flags>  (125) 
0

>  <s_epik_input>  (125) 
W0NIM11PYyhjMU8yKVtjSF1bY0hdYyhjMVtDQEBdMjM0KVtDSDJdW0NASF01W0NAQF00KE9bQ0gzXSlbQ0BAXShbQ0gyXU8zKShbQ0gzXSlbQ0BIXTZbQ0BIXShbQ0gyXTUpQyg9TylbQ0gyXVtDQEBIXTZPW0NIM10=

>  <s_epik_cmdline>  (125) 
J2VwaWtfcHl0aG9uJywgJy1waHQnLCAnMi4wJywgJy1waCcsICc3LjAnLCAnLXRuJywgJzgnLCAnLW1hJywgJzIwMCcsICctaW1hZScsICc8aW5maWxlLm1hZT4nLCAnLW9tYWUnLCAnPG91dGZpbGUubWFlPic=

>  <r_lp_tautomer_probability>  (125) 
1

>  <r_epik_Ionization_Penalty>  (125) 
1.12982e-11

>  <r_epik_Ionization_Penalty_Charging>  (125) 
0

>  <r_epik_Ionization_Penalty_Neutral>  (125) 
1.12982e-11

>  <r_epik_State_Penalty>  (125) 
-0

>  <r_epik_Charging_Adjusted_Penalty>  (125) 
0

>  <i_epik_Tot_Q>  (125) 
0

>  <i_epik_Tot_abs_Q>  (125) 
0

>  <s_lp_Force_Field>  (125) 
OPLS3e

>  <r_lp_Energy>  (125) 
122.641

>  <b_lp_Chiralities_Consistent>  (125) 
1

>  <s_lp_Variant>  (125) 
48:0-1

>  <s_i_glide_gridfile>  (125) 
pfpi4k_grid

>  <i_i_glide_lignum>  (125) 
23

>  <i_i_glide_rotatable_bonds>  (125) 
3

>  <r_i_docking_score>  (125) 
-2.51052

>  <r_i_glide_ligand_efficiency>  (125) 
-0.0896613

>  <r_i_glide_ligand_efficiency_sa>  (125) 
-0.272265

>  <r_i_glide_ligand_efficiency_ln>  (125) 
-0.579501

>  <r_i_glide_gscore>  (125) 
-2.51052

>  <r_i_glide_lipo>  (125) 
-0.386941

>  <r_i_glide_hbond>  (125) 
-0.016204

>  <r_i_glide_metal>  (125) 
-0

>  <r_i_glide_rewards>  (125) 
-0.819396

>  <r_i_glide_evdw>  (125) 
-23.1515

>  <r_i_glide_ecoul>  (125) 
-0.850192

>  <r_i_glide_erotb>  (125) 
0

>  <r_i_glide_esite>  (125) 
-0.00287296

>  <r_i_glide_emodel>  (125) 
-24.1287

>  <r_i_glide_energy>  (125) 
-24.0017

>  <r_i_glide_einternal>  (125) 
4.08605

>  <r_i_glide_intrahb_reward>  (125) 
-0

>  <i_i_glide_confnum>  (125) 
2

>  <i_i_glide_posenum>  (125) 
31

>  <r_i_glide_eff_state_penalty>  (125) 
0

>  <ligand_id>  (125) 
48

>  <original_smiles>  (125) 
COc1ccc2c3c1OC31OCC3(C)C4C(OC)CC(=O)C4CC(C2)C13OC

>  <smiles>  (125) 
[H]c1c([H])c2c3c(c1OC([H])([H])[H])OC31OC([H])([H])C3(C([H])([H])[H])C4([H])C([H])(OC([H])([H])[H])C([H])([H])C(=O)C4([H])C([H])([H])C([H])(C2([H])[H])C13OC([H])([H])[H]

$$$$
48:0:1
     RDKit          3D

 54 59  0  0  1  0  0  0  0  0999 V2000
   -2.1956    2.6652    2.9439 C   0  0  0  0  0  0  0  0  0  0  0  0
   -1.1751    1.7870    2.4909 O   0  0  0  0  0  0  0  0  0  0  0  0
   -0.4444    1.1082    3.4328 C   0  0  0  0  0  0  0  0  0  0  0  0
   -0.9722    0.6207    4.6577 C   0  0  0  0  0  0  0  0  0  0  0  0
   -0.2724   -0.3606    5.4149 C   0  0  0  0  0  0  0  0  0  0  0  0
    1.0289   -0.7737    5.0487 C   0  0  0  0  0  0  0  0  0  0  0  0
    1.6847    0.1505    4.1983 C   0  0  0  0  0  0  0  0  0  0  0  0
    0.8950    0.8089    3.1885 C   0  0  0  0  0  0  0  0  0  0  0  0
    1.6161    0.3360    2.1181 O   0  0  0  0  0  0  0  0  0  0  0  0
    2.6557   -0.1414    3.0744 C   0  0  1  0  0  0  0  0  0  0  0  0
    3.8265    0.5588    2.8106 O   0  0  0  0  0  0  0  0  0  0  0  0
    4.3523   -0.1652    1.6809 C   0  0  0  0  0  0  0  0  0  0  0  0
    4.2993   -1.6522    2.0973 C   0  0  2  0  0  0  0  0  0  0  0  0
    5.7526   -1.9815    2.5648 C   0  0  0  0  0  0  0  0  0  0  0  0
    3.9396   -2.7826    1.0732 C   0  0  2  0  0  0  0  0  0  0  0  0
    4.0745   -2.5829   -0.4559 C   0  0  1  0  0  0  0  0  0  0  0  0
    5.4072   -2.3128   -0.8836 O   0  0  0  0  0  0  0  0  0  0  0  0
    6.4172   -3.2911   -0.6827 C   0  0  0  0  0  0  0  0  0  0  0  0
    3.4314   -3.8650   -1.0568 C   0  0  0  0  0  0  0  0  0  0  0  0
    2.5896   -4.4149    0.1037 C   0  0  0  0  0  0  0  0  0  0  0  0
    1.9823   -5.4875    0.1087 O   0  0  0  0  0  0  0  0  0  0  0  0
    2.5554   -3.3924    1.2211 C   0  0  1  0  0  0  0  0  0  0  0  0
    2.2560   -3.8362    2.6755 C   0  0  0  0  0  0  0  0  0  0  0  0
    2.0269   -2.4684    3.3558 C   0  0  1  0  0  0  0  0  0  0  0  0
    1.4117   -2.2813    4.7832 C   0  0  0  0  0  0  0  0  0  0  0  0
    3.2468   -1.5311    3.2386 C   0  0  2  0  0  0  0  0  0  0  0  0
    3.9670   -1.7482    4.4864 O   0  0  0  0  0  0  0  0  0  0  0  0
    4.6070   -0.6807    5.2025 C   0  0  0  0  0  0  0  0  0  0  0  0
   -2.6366    3.1920    2.0994 H   0  0  0  0  0  0  0  0  0  0  0  0
   -1.7786    3.4038    3.6220 H   0  0  0  0  0  0  0  0  0  0  0  0
   -2.9946    2.1434    3.4537 H   0  0  0  0  0  0  0  0  0  0  0  0
   -1.9837    0.8560    4.9130 H   0  0  0  0  0  0  0  0  0  0  0  0
   -0.8564   -0.9451    6.1075 H   0  0  0  0  0  0  0  0  0  0  0  0
    3.7587    0.0421    0.7911 H   0  0  0  0  0  0  0  0  0  0  0  0
    5.3662    0.1805    1.4740 H   0  0  0  0  0  0  0  0  0  0  0  0
    5.7939   -2.9407    3.0928 H   0  0  0  0  0  0  0  0  0  0  0  0
    6.1737   -1.2164    3.2148 H   0  0  0  0  0  0  0  0  0  0  0  0
    6.4427   -2.0443    1.7148 H   0  0  0  0  0  0  0  0  0  0  0  0
    4.6008   -3.6128    1.3806 H   0  0  0  0  0  0  0  0  0  0  0  0
    3.4375   -1.7504   -0.7489 H   0  0  0  0  0  0  0  0  0  0  0  0
    7.3668   -2.8564   -1.0202 H   0  0  0  0  0  0  0  0  0  0  0  0
    6.2164   -4.1856   -1.2682 H   0  0  0  0  0  0  0  0  0  0  0  0
    6.5110   -3.5746    0.3659 H   0  0  0  0  0  0  0  0  0  0  0  0
    2.7933   -3.6554   -1.9324 H   0  0  0  0  0  0  0  0  0  0  0  0
    4.1628   -4.6424   -1.3121 H   0  0  0  0  0  0  0  0  0  0  0  0
    1.8143   -2.6693    0.8919 H   0  0  0  0  0  0  0  0  0  0  0  0
    1.3764   -4.4828    2.7530 H   0  0  0  0  0  0  0  0  0  0  0  0
    3.0936   -4.3751    3.1360 H   0  0  0  0  0  0  0  0  0  0  0  0
    1.2286   -2.0654    2.7202 H   0  0  0  0  0  0  0  0  0  0  0  0
    2.0591   -2.6950    5.5660 H   0  0  0  0  0  0  0  0  0  0  0  0
    0.4865   -2.8511    4.8049 H   0  0  0  0  0  0  0  0  0  0  0  0
    5.1607   -1.1451    6.0146 H   0  0  0  0  0  0  0  0  0  0  0  0
    3.8983    0.0158    5.6496 H   0  0  0  0  0  0  0  0  0  0  0  0
    5.3346   -0.1057    4.6248 H   0  0  0  0  0  0  0  0  0  0  0  0
  1  2  1  0
  1 29  1  0
  1 30  1  0
  1 31  1  0
  2  3  1  0
  3  8  2  0
  3  4  1  0
  4  5  2  0
  4 32  1  0
  5  6  1  0
  5 33  1  0
  6 25  1  0
  6  7  2  0
  7 10  1  0
  7  8  1  0
  8  9  1  0
 10  9  1  6
 10 26  1  0
 10 11  1  0
 11 12  1  0
 12 13  1  0
 12 34  1  0
 12 35  1  0
 13 26  1  0
 13 14  1  1
 13 15  1  0
 14 36  1  0
 14 37  1  0
 14 38  1  0
 15 22  1  0
 15 16  1  0
 15 39  1  1
 16 17  1  0
 16 19  1  0
 16 40  1  6
 17 18  1  0
 18 41  1  0
 18 42  1  0
 18 43  1  0
 19 20  1  0
 19 44  1  0
 19 45  1  0
 20 21  2  0
 20 22  1  0
 22 23  1  0
 22 46  1  6
 23 24  1  0
 23 47  1  0
 23 48  1  0
 24 25  1  0
 24 26  1  0
 24 49  1  6
 25 50  1  0
 25 51  1  0
 26 27  1  1
 27 28  1  0
 28 52  1  0
 28 53  1  0
 28 54  1  0
M  END
>  <i_m_ct_stereo_status>  (126) 
1

>  <s_m_source_file>  (126) 
/var/tmp/pbs.5076255.sched01/tmpav68hifr/35m6z7vsub.sdf

>  <i_m_source_file_index>  (126) 
23

>  <i_lp_mmshare_version>  (126) 
48012

>  <i_f3d_flags>  (126) 
0

>  <s_epik_input>  (126) 
W0NIM11PYyhjMU8yKVtjSF1bY0hdYyhjMVtDQEBdMjM0KVtDSDJdW0NASF01W0NAQF00KE9bQ0gzXSlbQ0BAXShbQ0gyXU8zKShbQ0gzXSlbQ0BIXTZbQ0BIXShbQ0gyXTUpQyg9TylbQ0gyXVtDQEBIXTZPW0NIM10=

>  <s_epik_cmdline>  (126) 
J2VwaWtfcHl0aG9uJywgJy1waHQnLCAnMi4wJywgJy1waCcsICc3LjAnLCAnLXRuJywgJzgnLCAnLW1hJywgJzIwMCcsICctaW1hZScsICc8aW5maWxlLm1hZT4nLCAnLW9tYWUnLCAnPG91dGZpbGUubWFlPic=

>  <r_lp_tautomer_probability>  (126) 
1

>  <r_epik_Ionization_Penalty>  (126) 
1.12982e-11

>  <r_epik_Ionization_Penalty_Charging>  (126) 
0

>  <r_epik_Ionization_Penalty_Neutral>  (126) 
1.12982e-11

>  <r_epik_State_Penalty>  (126) 
-0

>  <r_epik_Charging_Adjusted_Penalty>  (126) 
0

>  <i_epik_Tot_Q>  (126) 
0

>  <i_epik_Tot_abs_Q>  (126) 
0

>  <s_lp_Force_Field>  (126) 
OPLS3e

>  <r_lp_Energy>  (126) 
122.641

>  <b_lp_Chiralities_Consistent>  (126) 
1

>  <s_lp_Variant>  (126) 
48:0-1

>  <s_i_glide_gridfile>  (126) 
pfpi4k_grid

>  <i_i_glide_lignum>  (126) 
23

>  <i_i_glide_rotatable_bonds>  (126) 
3

>  <r_i_docking_score>  (126) 
-2.48364

>  <r_i_glide_ligand_efficiency>  (126) 
-0.0887014

>  <r_i_glide_ligand_efficiency_sa>  (126) 
-0.26935

>  <r_i_glide_ligand_efficiency_ln>  (126) 
-0.573297

>  <r_i_glide_gscore>  (126) 
-2.48364

>  <r_i_glide_lipo>  (126) 
-0.28548

>  <r_i_glide_hbond>  (126) 
-0.0358155

>  <r_i_glide_metal>  (126) 
-0

>  <r_i_glide_rewards>  (126) 
-0.774285

>  <r_i_glide_evdw>  (126) 
-23.1266

>  <r_i_glide_ecoul>  (126) 
-1.22021

>  <r_i_glide_erotb>  (126) 
0

>  <r_i_glide_esite>  (126) 
-0.0486962

>  <r_i_glide_emodel>  (126) 
-22.6013

>  <r_i_glide_energy>  (126) 
-24.3468

>  <r_i_glide_einternal>  (126) 
8.79984

>  <r_i_glide_intrahb_reward>  (126) 
-0

>  <i_i_glide_confnum>  (126) 
1

>  <i_i_glide_posenum>  (126) 
18

>  <r_i_glide_eff_state_penalty>  (126) 
0

>  <ligand_id>  (126) 
48

>  <original_smiles>  (126) 
COc1ccc2c3c1OC31OCC3(C)C4C(OC)CC(=O)C4CC(C2)C13OC

>  <smiles>  (126) 
[H]c1c([H])c2c3c(c1OC([H])([H])[H])OC31OC([H])([H])C3(C([H])([H])[H])C4([H])C([H])(OC([H])([H])[H])C([H])([H])C(=O)C4([H])C([H])([H])C([H])(C2([H])[H])C13OC([H])([H])[H]

$$$$
48:0:2
     RDKit          3D

 54 59  0  0  1  0  0  0  0  0999 V2000
    2.0311   -3.5762   -2.0863 C   0  0  0  0  0  0  0  0  0  0  0  0
    2.2341   -3.7917   -0.6992 O   0  0  0  0  0  0  0  0  0  0  0  0
    3.0495   -2.9192   -0.0338 C   0  0  0  0  0  0  0  0  0  0  0  0
    3.8882   -1.9406   -0.6175 C   0  0  0  0  0  0  0  0  0  0  0  0
    4.4005   -0.8539    0.1487 C   0  0  0  0  0  0  0  0  0  0  0  0
    4.2180   -0.7970    1.5459 C   0  0  0  0  0  0  0  0  0  0  0  0
    3.8875   -2.0512    2.0959 C   0  0  0  0  0  0  0  0  0  0  0  0
    3.0195   -2.9411    1.3653 C   0  0  0  0  0  0  0  0  0  0  0  0
    2.0403   -2.9722    2.3168 O   0  0  0  0  0  0  0  0  0  0  0  0
    2.9885   -2.3202    3.2594 C   0  0  1  0  0  0  0  0  0  0  0  0
    3.2698   -3.2574    4.2498 O   0  0  0  0  0  0  0  0  0  0  0  0
    2.1603   -3.0958    5.0930 C   0  0  0  0  0  0  0  0  0  0  0  0
    1.9446   -1.5745    5.3403 C   0  0  2  0  0  0  0  0  0  0  0  0
    2.5450   -1.2678    6.7549 C   0  0  0  0  0  0  0  0  0  0  0  0
    0.5201   -0.9040    5.3654 C   0  0  2  0  0  0  0  0  0  0  0  0
   -0.7832   -1.6859    5.6035 C   0  0  1  0  0  0  0  0  0  0  0  0
   -0.8497   -2.2896    6.8876 O   0  0  0  0  0  0  0  0  0  0  0  0
   -0.4256   -3.6542    6.9729 C   0  0  0  0  0  0  0  0  0  0  0  0
   -1.8715   -0.5777    5.4633 C   0  0  0  0  0  0  0  0  0  0  0  0
   -1.2046    0.4952    4.6135 C   0  0  0  0  0  0  0  0  0  0  0  0
   -1.7008    1.6056    4.3477 O   0  0  0  0  0  0  0  0  0  0  0  0
    0.1524   -0.0030    4.1782 C   0  0  1  0  0  0  0  0  0  0  0  0
    1.2859    0.9611    3.7453 C   0  0  0  0  0  0  0  0  0  0  0  0
    2.3013   -0.0114    3.1163 C   0  0  1  0  0  0  0  0  0  0  0  0
    3.5315    0.4148    2.2580 C   0  0  0  0  0  0  0  0  0  0  0  0
    2.7863   -1.0863    4.1197 C   0  0  2  0  0  0  0  0  0  0  0  0
    4.0121   -0.5302    4.6723 O   0  0  0  0  0  0  0  0  0  0  0  0
    5.1471   -1.3439    4.9991 C   0  0  0  0  0  0  0  0  0  0  0  0
    1.4041   -4.3813   -2.4379 H   0  0  0  0  0  0  0  0  0  0  0  0
    2.9561   -3.5721   -2.6681 H   0  0  0  0  0  0  0  0  0  0  0  0
    1.4876   -2.6546   -2.2620 H   0  0  0  0  0  0  0  0  0  0  0  0
    4.0296   -1.9346   -1.6772 H   0  0  0  0  0  0  0  0  0  0  0  0
    4.7164    0.0147   -0.3941 H   0  0  0  0  0  0  0  0  0  0  0  0
    1.2526   -3.5741    4.6828 H   0  0  0  0  0  0  0  0  0  0  0  0
    2.3850   -3.6578    6.0229 H   0  0  0  0  0  0  0  0  0  0  0  0
    2.7390   -0.1957    6.8751 H   0  0  0  0  0  0  0  0  0  0  0  0
    3.4651   -1.8074    6.9751 H   0  0  0  0  0  0  0  0  0  0  0  0
    1.8298   -1.5496    7.5371 H   0  0  0  0  0  0  0  0  0  0  0  0
    0.5757   -0.1898    6.1947 H   0  0  0  0  0  0  0  0  0  0  0  0
   -0.9345   -2.4241    4.8182 H   0  0  0  0  0  0  0  0  0  0  0  0
   -0.5793   -3.9805    8.0208 H   0  0  0  0  0  0  0  0  0  0  0  0
    0.5570   -3.8051    6.7195 H   0  0  0  0  0  0  0  0  0  0  0  0
   -1.1258   -4.2538    6.3697 H   0  0  0  0  0  0  0  0  0  0  0  0
   -2.7876   -0.9444    5.0051 H   0  0  0  0  0  0  0  0  0  0  0  0
   -2.1163   -0.1287    6.4236 H   0  0  0  0  0  0  0  0  0  0  0  0
   -0.0966   -0.6391    3.3266 H   0  0  0  0  0  0  0  0  0  0  0  0
    0.9353    1.6900    3.0104 H   0  0  0  0  0  0  0  0  0  0  0  0
    1.7109    1.5062    4.5933 H   0  0  0  0  0  0  0  0  0  0  0  0
    1.6759   -0.5090    2.3694 H   0  0  0  0  0  0  0  0  0  0  0  0
    4.2515    0.9615    2.8684 H   0  0  0  0  0  0  0  0  0  0  0  0
    3.1753    1.1091    1.4951 H   0  0  0  0  0  0  0  0  0  0  0  0
    5.8730   -0.7016    5.4998 H   0  0  0  0  0  0  0  0  0  0  0  0
    5.6305   -1.7532    4.1106 H   0  0  0  0  0  0  0  0  0  0  0  0
    4.9245   -2.1609    5.6822 H   0  0  0  0  0  0  0  0  0  0  0  0
  1  2  1  0
  1 29  1  0
  1 30  1  0
  1 31  1  0
  2  3  1  0
  3  8  2  0
  3  4  1  0
  4  5  2  0
  4 32  1  0
  5  6  1  0
  5 33  1  0
  6 25  1  0
  6  7  2  0
  7 10  1  0
  7  8  1  0
  8  9  1  0
 10  9  1  6
 10 26  1  0
 10 11  1  0
 11 12  1  0
 12 13  1  0
 12 34  1  0
 12 35  1  0
 13 26  1  0
 13 14  1  1
 13 15  1  0
 14 36  1  0
 14 37  1  0
 14 38  1  0
 15 22  1  0
 15 16  1  0
 15 39  1  1
 16 17  1  0
 16 19  1  0
 16 40  1  6
 17 18  1  0
 18 41  1  0
 18 42  1  0
 18 43  1  0
 19 20  1  0
 19 44  1  0
 19 45  1  0
 20 21  2  0
 20 22  1  0
 22 23  1  0
 22 46  1  6
 23 24  1  0
 23 47  1  0
 23 48  1  0
 24 25  1  0
 24 26  1  0
 24 49  1  6
 25 50  1  0
 25 51  1  0
 26 27  1  1
 27 28  1  0
 28 52  1  0
 28 53  1  0
 28 54  1  0
M  END
>  <i_m_ct_stereo_status>  (127) 
1

>  <s_m_source_file>  (127) 
/var/tmp/pbs.5076255.sched01/tmpav68hifr/35m6z7vsub.sdf

>  <i_m_source_file_index>  (127) 
23

>  <i_lp_mmshare_version>  (127) 
48012

>  <i_f3d_flags>  (127) 
0

>  <s_epik_input>  (127) 
W0NIM11PYyhjMU8yKVtjSF1bY0hdYyhjMVtDQEBdMjM0KVtDSDJdW0NASF01W0NAQF00KE9bQ0gzXSlbQ0BAXShbQ0gyXU8zKShbQ0gzXSlbQ0BIXTZbQ0BIXShbQ0gyXTUpQyg9TylbQ0gyXVtDQEBIXTZPW0NIM10=

>  <s_epik_cmdline>  (127) 
J2VwaWtfcHl0aG9uJywgJy1waHQnLCAnMi4wJywgJy1waCcsICc3LjAnLCAnLXRuJywgJzgnLCAnLW1hJywgJzIwMCcsICctaW1hZScsICc8aW5maWxlLm1hZT4nLCAnLW9tYWUnLCAnPG91dGZpbGUubWFlPic=

>  <r_lp_tautomer_probability>  (127) 
1

>  <r_epik_Ionization_Penalty>  (127) 
1.12982e-11

>  <r_epik_Ionization_Penalty_Charging>  (127) 
0

>  <r_epik_Ionization_Penalty_Neutral>  (127) 
1.12982e-11

>  <r_epik_State_Penalty>  (127) 
-0

>  <r_epik_Charging_Adjusted_Penalty>  (127) 
0

>  <i_epik_Tot_Q>  (127) 
0

>  <i_epik_Tot_abs_Q>  (127) 
0

>  <s_lp_Force_Field>  (127) 
OPLS3e

>  <r_lp_Energy>  (127) 
122.641

>  <b_lp_Chiralities_Consistent>  (127) 
1

>  <s_lp_Variant>  (127) 
48:0-1

>  <s_i_glide_gridfile>  (127) 
pfpi4k_grid

>  <i_i_glide_lignum>  (127) 
23

>  <i_i_glide_rotatable_bonds>  (127) 
3

>  <r_i_docking_score>  (127) 
-2.28704

>  <r_i_glide_ligand_efficiency>  (127) 
-0.0816799

>  <r_i_glide_ligand_efficiency_sa>  (127) 
-0.248028

>  <r_i_glide_ligand_efficiency_ln>  (127) 
-0.527915

>  <r_i_glide_gscore>  (127) 
-2.28704

>  <r_i_glide_lipo>  (127) 
-0.284145

>  <r_i_glide_hbond>  (127) 
-0.00490833

>  <r_i_glide_metal>  (127) 
-0

>  <r_i_glide_rewards>  (127) 
-0.774285

>  <r_i_glide_evdw>  (127) 
-18.7516

>  <r_i_glide_ecoul>  (127) 
-1.71009

>  <r_i_glide_erotb>  (127) 
0

>  <r_i_glide_esite>  (127) 
-0.0296071

>  <r_i_glide_emodel>  (127) 
-19.8827

>  <r_i_glide_energy>  (127) 
-20.4617

>  <r_i_glide_einternal>  (127) 
2.87439

>  <r_i_glide_intrahb_reward>  (127) 
-0

>  <i_i_glide_confnum>  (127) 
1

>  <i_i_glide_posenum>  (127) 
2

>  <r_i_glide_eff_state_penalty>  (127) 
0

>  <ligand_id>  (127) 
48

>  <original_smiles>  (127) 
COc1ccc2c3c1OC31OCC3(C)C4C(OC)CC(=O)C4CC(C2)C13OC

>  <smiles>  (127) 
[H]c1c([H])c2c3c(c1OC([H])([H])[H])OC31OC([H])([H])C3(C([H])([H])[H])C4([H])C([H])(OC([H])([H])[H])C([H])([H])C(=O)C4([H])C([H])([H])C([H])(C2([H])[H])C13OC([H])([H])[H]

$$$$
49:1:0
     RDKit          3D

 72 77  0  0  1  0  0  0  0  0999 V2000
    0.3532    4.3494    4.2838 C   0  0  0  0  0  0  0  0  0  0  0  0
    1.2863    3.7606    3.5110 C   0  0  0  0  0  0  0  0  0  0  0  0
    2.2901    4.6219    2.7621 C   0  0  0  0  0  0  0  0  0  0  0  0
    1.4333    2.2487    3.2813 C   0  0  2  0  0  0  0  0  0  0  0  0
    0.4378    1.3088    3.9526 C   0  0  0  0  0  0  0  0  0  0  0  0
    1.1712    0.4489    5.1286 C   0  0  1  0  0  0  0  0  0  0  0  0
    0.8018    1.6336    5.8527 O   0  0  0  0  0  0  0  0  0  0  0  0
    1.7695    1.4917    6.6016 C   0  0  1  0  0  0  0  0  0  0  0  0
    1.7827    2.3681    7.7024 O   0  0  0  0  0  0  0  0  0  0  0  0
    0.6551    2.4214    8.5710 C   0  0  0  0  0  0  0  0  0  0  0  0
    1.1187   -0.0428    6.9433 C   0  0  0  0  0  0  0  0  0  0  0  0
    0.3999   -0.5845    5.5812 C   0  0  2  0  0  0  0  0  0  0  0  0
    0.8511   -1.5720    4.4969 N   0  0  0  0  0  0  0  0  0  0  0  0
    0.2247   -2.8769    4.4969 C   0  0  0  0  0  0  0  0  0  0  0  0
    0.8357   -3.7304    5.6037 C   0  0  0  0  0  0  0  0  0  0  0  0
    1.4568   -1.0807    3.1380 C   0  0  0  0  0  0  0  0  0  0  0  0
    2.7055    0.0521    3.1015 C   0  0  2  0  0  0  0  0  0  0  0  0
    3.1481    0.1250    1.6052 C   0  0  0  0  0  0  0  0  0  0  0  0
    3.8026   -1.0660    1.1491 O   0  0  0  0  0  0  0  0  0  0  0  0
    4.5351   -0.8830   -0.0619 C   0  0  2  0  0  0  0  0  0  0  0  0
    3.7667   -1.4254   -1.2439 C   0  0  0  0  0  0  0  0  0  0  0  0
    4.8759   -1.6695   -2.2531 C   0  0  0  0  0  0  0  0  0  0  0  0
    6.0237   -2.0338   -1.4926 O   0  0  0  0  0  0  0  0  0  0  0  0
    5.8180   -1.7191   -0.1159 C   0  0  0  0  0  0  0  0  0  0  0  0
    3.6334   -0.7101    3.9542 C   0  0  1  0  0  0  0  0  0  0  0  0
    5.1670   -0.4653    3.7398 C   0  0  0  0  0  0  0  0  0  0  0  0
    2.8989   -0.3688    5.2585 C   0  0  1  0  0  0  0  0  0  0  0  0
    3.9975    0.1304    6.2737 C   0  0  0  0  0  0  0  0  0  0  0  0
    4.2484    1.5973    6.0479 C   0  0  0  0  0  0  0  0  0  0  0  0
    2.9370    2.0611    5.4590 C   0  0  1  0  0  0  0  0  0  0  0  0
    2.7476    1.6477    3.7660 C   0  0  2  0  0  0  0  0  0  0  0  0
    0.3141    5.4270    4.3637 H   0  0  0  0  0  0  0  0  0  0  0  0
   -0.3846    3.8009    4.8469 H   0  0  0  0  0  0  0  0  0  0  0  0
    2.2169    4.4191    1.6923 H   0  0  0  0  0  0  0  0  0  0  0  0
    3.3145    4.4203    3.0831 H   0  0  0  0  0  0  0  0  0  0  0  0
    2.0956    5.6870    2.9086 H   0  0  0  0  0  0  0  0  0  0  0  0
    1.3532    2.1253    2.1990 H   0  0  0  0  0  0  0  0  0  0  0  0
   -0.4894    1.8130    4.2599 H   0  0  0  0  0  0  0  0  0  0  0  0
   -0.0768    0.7434    3.1898 H   0  0  0  0  0  0  0  0  0  0  0  0
    0.6806    3.3567    9.1315 H   0  0  0  0  0  0  0  0  0  0  0  0
    0.7033    1.6149    9.3021 H   0  0  0  0  0  0  0  0  0  0  0  0
   -0.3076    2.3847    8.0572 H   0  0  0  0  0  0  0  0  0  0  0  0
    1.7814   -0.7380    7.4618 H   0  0  0  0  0  0  0  0  0  0  0  0
    0.3069    0.0764    7.6633 H   0  0  0  0  0  0  0  0  0  0  0  0
   -0.6695   -0.3437    5.5299 H   0  0  0  0  0  0  0  0  0  0  0  0
   -0.8524   -2.7765    4.6102 H   0  0  0  0  0  0  0  0  0  0  0  0
    0.4094   -3.3754    3.5410 H   0  0  0  0  0  0  0  0  0  0  0  0
    0.4587   -4.7525    5.6001 H   0  0  0  0  0  0  0  0  0  0  0  0
    0.6492   -3.2860    6.5801 H   0  0  0  0  0  0  0  0  0  0  0  0
    1.9169   -3.7694    5.4691 H   0  0  0  0  0  0  0  0  0  0  0  0
    1.8670   -1.9575    2.6326 H   0  0  0  0  0  0  0  0  0  0  0  0
    0.6774   -0.8395    2.4167 H   0  0  0  0  0  0  0  0  0  0  0  0
    2.2813    0.3100    0.9665 H   0  0  0  0  0  0  0  0  0  0  0  0
    3.8188    0.9700    1.4722 H   0  0  0  0  0  0  0  0  0  0  0  0
    4.8295    0.1458   -0.2466 H   0  0  0  0  0  0  0  0  0  0  0  0
    3.2759   -2.3652   -0.9826 H   0  0  0  0  0  0  0  0  0  0  0  0
    3.0128   -0.7332   -1.6115 H   0  0  0  0  0  0  0  0  0  0  0  0
    4.6155   -2.4317   -2.9870 H   0  0  0  0  0  0  0  0  0  0  0  0
    5.0883   -0.7416   -2.7822 H   0  0  0  0  0  0  0  0  0  0  0  0
    6.6813   -1.2109    0.3160 H   0  0  0  0  0  0  0  0  0  0  0  0
    5.6833   -2.6641    0.4168 H   0  0  0  0  0  0  0  0  0  0  0  0
    3.5543   -1.7871    3.7911 H   0  0  0  0  0  0  0  0  0  0  0  0
    5.4553    0.5817    3.7425 H   0  0  0  0  0  0  0  0  0  0  0  0
    5.5139   -0.8597    2.7875 H   0  0  0  0  0  0  0  0  0  0  0  0
    5.7702   -1.0182    4.4596 H   0  0  0  0  0  0  0  0  0  0  0  0
    2.8167   -1.3641    5.7056 H   0  0  0  0  0  0  0  0  0  0  0  0
    3.7115   -0.0179    7.3130 H   0  0  0  0  0  0  0  0  0  0  0  0
    4.9168   -0.4538    6.2403 H   0  0  0  0  0  0  0  0  0  0  0  0
    4.4662    2.0915    6.9990 H   0  0  0  0  0  0  0  0  0  0  0  0
    5.0783    1.8025    5.3785 H   0  0  0  0  0  0  0  0  0  0  0  0
    2.9252    3.1488    5.5187 H   0  0  0  0  0  0  0  0  0  0  0  0
    3.5772    2.1499    3.2788 H   0  0  0  0  0  0  0  0  0  0  0  0
  1  2  2  0
  1 32  1  0
  1 33  1  0
  2  3  1  0
  2  4  1  0
  3 34  1  0
  3 35  1  0
  3 36  1  0
  4 31  1  0
  4  5  1  0
  4 37  1  6
  6  5  1  6
  5 38  1  0
  5 39  1  0
  6 12  1  0
  6 27  1  0
  6  7  1  0
  7  8  1  0
  8 30  1  0
  8  9  1  1
  8 11  1  0
  9 10  1  0
 10 40  1  0
 10 41  1  0
 10 42  1  0
 11 12  1  0
 11 43  1  0
 11 44  1  0
 12 13  1  0
 12 45  1  1
 13 14  1  0
 13 16  1  0
 14 15  1  0
 14 46  1  0
 14 47  1  0
 15 48  1  0
 15 49  1  0
 15 50  1  0
 16 17  1  0
 16 51  1  0
 16 52  1  0
 17 31  1  0
 17 18  1  6
 17 25  1  0
 18 19  1  0
 18 53  1  0
 18 54  1  0
 19 20  1  0
 20 24  1  0
 20 21  1  0
 20 55  1  6
 21 22  1  0
 21 56  1  0
 21 57  1  0
 22 23  1  0
 22 58  1  0
 22 59  1  0
 23 24  1  0
 24 60  1  0
 24 61  1  0
 25 26  1  0
 25 27  1  0
 25 62  1  6
 26 63  1  0
 26 64  1  0
 26 65  1  0
 27 28  1  0
 27 66  1  1
 28 29  1  0
 28 67  1  0
 28 68  1  0
 29 30  1  0
 29 69  1  0
 29 70  1  0
 30 31  1  0
 30 71  1  6
 31 72  1  6
M  END
>  <i_m_ct_stereo_status>  (128) 
1

>  <s_m_source_file>  (128) 
/var/tmp/pbs.5076255.sched01/tmpav68hifr/35m6z7vsub.sdf

>  <i_m_source_file_index>  (128) 
25

>  <i_lp_mmshare_version>  (128) 
48012

>  <i_f3d_flags>  (128) 
2

>  <s_epik_input>  (128) 
W0NAXTEyM1tDQEhdNFtDSDJdW0NAXShPMikoT1tDSDNdKVtDQEBIXTVbQ0BIXShbQ0BASF0oW0NIMl0xKUMoPVtDSDJdKVtDSDNdKVtDQF0oW0NIMl1ONFtDSDJdW0NIM10pKFtDQEBIXShbQ0gzXSlbQ0BIXTNbQ0gyXVtDSDJdNSlbQ0gyXU9bQ0BASF02W0NIMl1bQ0gyXU9bQ0gyXTY=

>  <s_epik_cmdline>  (128) 
J2VwaWtfcHl0aG9uJywgJy1waHQnLCAnMi4wJywgJy1waCcsICc3LjAnLCAnLXRuJywgJzgnLCAnLW1hJywgJzIwMCcsICctaW1hZScsICc8aW5maWxlLm1hZT4nLCAnLW9tYWUnLCAnPG91dGZpbGUubWFlPic=

>  <r_epik_Ionization_Penalty>  (128) 
1.65163

>  <r_epik_Ionization_Penalty_Charging>  (128) 
0

>  <r_epik_Ionization_Penalty_Neutral>  (128) 
1.65163

>  <r_epik_State_Penalty>  (128) 
1.75377

>  <r_epik_Charging_Adjusted_Penalty>  (128) 
1.75377

>  <i_epik_Tot_Q>  (128) 
0

>  <i_epik_Tot_abs_Q>  (128) 
0

>  <s_lp_Force_Field>  (128) 
OPLS3e

>  <r_lp_Energy>  (128) 
431.789

>  <b_lp_Chiralities_Consistent>  (128) 
0

>  <s_lp_Variant>  (128) 
49:0-2

>  <s_i_glide_gridfile>  (128) 
pfpi4k_grid

>  <i_i_glide_lignum>  (128) 
25

>  <i_i_glide_rotatable_bonds>  (128) 
6

>  <r_i_docking_score>  (128) 
-1.63445

>  <r_i_glide_ligand_efficiency>  (128) 
-0.0527243

>  <r_i_glide_ligand_efficiency_sa>  (128) 
-0.165627

>  <r_i_glide_ligand_efficiency_ln>  (128) 
-0.368619

>  <r_i_glide_gscore>  (128) 
-1.63445

>  <r_i_glide_lipo>  (128) 
-0.202981

>  <r_i_glide_hbond>  (128) 
-0.0670174

>  <r_i_glide_metal>  (128) 
-0

>  <r_i_glide_rewards>  (128) 
-0.466309

>  <r_i_glide_evdw>  (128) 
-21.5517

>  <r_i_glide_ecoul>  (128) 
-1.65116

>  <r_i_glide_erotb>  (128) 
0.427115

>  <r_i_glide_esite>  (128) 
0

>  <r_i_glide_emodel>  (128) 
-22.8671

>  <r_i_glide_energy>  (128) 
-23.2029

>  <r_i_glide_einternal>  (128) 
3.29426

>  <r_i_glide_intrahb_reward>  (128) 
-0

>  <i_i_glide_confnum>  (128) 
5

>  <i_i_glide_posenum>  (128) 
31

>  <r_i_glide_eff_state_penalty>  (128) 
0

>  <ligand_id>  (128) 
49

>  <original_smiles>  (128) 
C=C(C)C1CC23OC4(OC)CC2N(CC)CC2(COC5CCOC5)C(C)C3CCC4C12

>  <smiles>  (128) 
[H]C([H])=C(C([H])([H])[H])C1([H])C([H])([H])C23OC4(OC([H])([H])[H])C([H])([H])C2([H])N(C([H])([H])C([H])([H])[H])C([H])([H])C2(C([H])([H])OC5([H])C([H])([H])OC([H])([H])C5([H])[H])C([H])(C([H])([H])[H])C3([H])C([H])([H])C([H])([H])C4([H])C12[H]

$$$$
49:1:1
     RDKit          3D

 72 77  0  0  1  0  0  0  0  0999 V2000
    2.6422   -1.3612   -2.3164 C   0  0  0  0  0  0  0  0  0  0  0  0
    2.5095   -2.6357   -1.9902 C   0  0  0  0  0  0  0  0  0  0  0  0
    2.4424   -3.6606   -3.1018 C   0  0  0  0  0  0  0  0  0  0  0  0
    2.3964   -3.2044   -0.5722 C   0  0  2  0  0  0  0  0  0  0  0  0
    2.4959   -2.2547    0.6583 C   0  0  0  0  0  0  0  0  0  0  0  0
    3.8933   -2.5072    1.4544 C   0  0  1  0  0  0  0  0  0  0  0  0
    4.2586   -1.5926    0.4220 O   0  0  0  0  0  0  0  0  0  0  0  0
    5.3751   -2.0748    0.3604 C   0  0  1  0  0  0  0  0  0  0  0  0
    6.2218   -1.2871   -0.4180 O   0  0  0  0  0  0  0  0  0  0  0  0
    5.6283   -0.8460   -1.6302 C   0  0  0  0  0  0  0  0  0  0  0  0
    5.4522   -1.6637    2.0040 C   0  0  0  0  0  0  0  0  0  0  0  0
    3.9466   -1.8234    2.6410 C   0  0  2  0  0  0  0  0  0  0  0  0
    3.2349   -2.9530    3.4064 N   0  0  0  0  0  0  0  0  0  0  0  0
    2.9555   -2.7226    4.8049 C   0  0  0  0  0  0  0  0  0  0  0  0
    1.6798   -1.9362    5.1127 C   0  0  0  0  0  0  0  0  0  0  0  0
    2.3404   -4.0384    2.6909 C   0  0  0  0  0  0  0  0  0  0  0  0
    2.8836   -4.8726    1.3292 C   0  0  2  0  0  0  0  0  0  0  0  0
    1.8120   -5.9643    1.0459 C   0  0  0  0  0  0  0  0  0  0  0  0
    1.4630   -6.6965    2.2204 O   0  0  0  0  0  0  0  0  0  0  0  0
    0.6406   -7.8356    1.9823 C   0  0  2  0  0  0  0  0  0  0  0  0
   -0.8046   -7.4674    1.7142 C   0  0  0  0  0  0  0  0  0  0  0  0
   -1.5417   -8.7436    2.0912 C   0  0  0  0  0  0  0  0  0  0  0  0
   -0.7960   -9.3086    3.1528 O   0  0  0  0  0  0  0  0  0  0  0  0
    0.5013   -8.7261    3.2165 C   0  0  0  0  0  0  0  0  0  0  0  0
    4.1011   -5.4128    1.9485 C   0  0  1  0  0  0  0  0  0  0  0  0
    4.6282   -6.7605    1.3729 C   0  0  0  0  0  0  0  0  0  0  0  0
    4.8790   -4.0818    1.8826 C   0  0  1  0  0  0  0  0  0  0  0  0
    6.2753   -4.4115    1.2261 C   0  0  0  0  0  0  0  0  0  0  0  0
    6.1310   -4.4171   -0.2707 C   0  0  0  0  0  0  0  0  0  0  0  0
    4.9572   -3.5203   -0.4878 C   0  0  1  0  0  0  0  0  0  0  0  0
    3.4291   -4.2392   -0.1736 C   0  0  2  0  0  0  0  0  0  0  0  0
    2.5853   -1.0513   -3.3899 H   0  0  0  0  0  0  0  0  0  0  0  0
    2.7083   -0.6341   -1.6008 H   0  0  0  0  0  0  0  0  0  0  0  0
    1.5677   -4.2499   -2.8211 H   0  0  0  0  0  0  0  0  0  0  0  0
    3.3157   -4.2496   -3.0978 H   0  0  0  0  0  0  0  0  0  0  0  0
    2.3006   -3.2085   -4.1020 H   0  0  0  0  0  0  0  0  0  0  0  0
    1.4447   -3.7061   -0.5498 H   0  0  0  0  0  0  0  0  0  0  0  0
    2.2838   -1.1936    0.4841 H   0  0  0  0  0  0  0  0  0  0  0  0
    1.5902   -2.3235    1.2406 H   0  0  0  0  0  0  0  0  0  0  0  0
    6.3802   -0.6810   -2.3332 H   0  0  0  0  0  0  0  0  0  0  0  0
    5.0546    0.0653   -1.5419 H   0  0  0  0  0  0  0  0  0  0  0  0
    5.0698   -1.5409   -2.2379 H   0  0  0  0  0  0  0  0  0  0  0  0
    6.2556   -2.1242    2.5738 H   0  0  0  0  0  0  0  0  0  0  0  0
    5.7140   -0.6079    2.0487 H   0  0  0  0  0  0  0  0  0  0  0  0
    3.3668   -0.8984    2.5942 H   0  0  0  0  0  0  0  0  0  0  0  0
    2.8927   -3.6964    5.2890 H   0  0  0  0  0  0  0  0  0  0  0  0
    3.8168   -2.2227    5.2486 H   0  0  0  0  0  0  0  0  0  0  0  0
    1.5680   -1.8335    6.1912 H   0  0  0  0  0  0  0  0  0  0  0  0
    0.7913   -2.4433    4.7385 H   0  0  0  0  0  0  0  0  0  0  0  0
    1.7146   -0.9366    4.6845 H   0  0  0  0  0  0  0  0  0  0  0  0
    2.1381   -4.7913    3.4488 H   0  0  0  0  0  0  0  0  0  0  0  0
    1.3229   -3.6861    2.5502 H   0  0  0  0  0  0  0  0  0  0  0  0
    0.9103   -5.5061    0.6587 H   0  0  0  0  0  0  0  0  0  0  0  0
    2.1395   -6.6431    0.2612 H   0  0  0  0  0  0  0  0  0  0  0  0
    1.0412   -8.4425    1.1729 H   0  0  0  0  0  0  0  0  0  0  0  0
   -1.1290   -6.6651    2.3767 H   0  0  0  0  0  0  0  0  0  0  0  0
   -0.9662   -7.1717    0.6807 H   0  0  0  0  0  0  0  0  0  0  0  0
   -2.5803   -8.5776    2.3711 H   0  0  0  0  0  0  0  0  0  0  0  0
   -1.5465   -9.4623    1.2878 H   0  0  0  0  0  0  0  0  0  0  0  0
    1.2872   -9.4802    3.2806 H   0  0  0  0  0  0  0  0  0  0  0  0
    0.5204   -8.1330    4.1286 H   0  0  0  0  0  0  0  0  0  0  0  0
    3.9459   -5.6655    2.9974 H   0  0  0  0  0  0  0  0  0  0  0  0
    4.7398   -6.7800    0.2925 H   0  0  0  0  0  0  0  0  0  0  0  0
    3.9360   -7.5677    1.6114 H   0  0  0  0  0  0  0  0  0  0  0  0
    5.5651   -7.0693    1.8348 H   0  0  0  0  0  0  0  0  0  0  0  0
    5.2586   -4.0060    2.9002 H   0  0  0  0  0  0  0  0  0  0  0  0
    7.0468   -3.6895    1.4878 H   0  0  0  0  0  0  0  0  0  0  0  0
    6.7206   -5.3358    1.5781 H   0  0  0  0  0  0  0  0  0  0  0  0
    7.0343   -4.0187   -0.7383 H   0  0  0  0  0  0  0  0  0  0  0  0
    5.9076   -5.3863   -0.7000 H   0  0  0  0  0  0  0  0  0  0  0  0
    4.9575   -3.3630   -1.5525 H   0  0  0  0  0  0  0  0  0  0  0  0
    3.3859   -5.0667   -0.8554 H   0  0  0  0  0  0  0  0  0  0  0  0
  1  2  2  0
  1 32  1  0
  1 33  1  0
  2  3  1  0
  2  4  1  0
  3 34  1  0
  3 35  1  0
  3 36  1  0
  4 31  1  0
  4  5  1  0
  4 37  1  6
  6  5  1  6
  5 38  1  0
  5 39  1  0
  6 12  1  0
  6 27  1  0
  6  7  1  0
  7  8  1  0
  8 30  1  0
  8  9  1  6
  8 11  1  0
  9 10  1  0
 10 40  1  0
 10 41  1  0
 10 42  1  0
 11 12  1  0
 11 43  1  0
 11 44  1  0
 12 13  1  0
 12 45  1  6
 13 14  1  0
 13 16  1  0
 14 15  1  0
 14 46  1  0
 14 47  1  0
 15 48  1  0
 15 49  1  0
 15 50  1  0
 16 17  1  0
 16 51  1  0
 16 52  1  0
 17 31  1  0
 17 18  1  6
 17 25  1  0
 18 19  1  0
 18 53  1  0
 18 54  1  0
 19 20  1  0
 20 24  1  0
 20 21  1  0
 20 55  1  6
 21 22  1  0
 21 56  1  0
 21 57  1  0
 22 23  1  0
 22 58  1  0
 22 59  1  0
 23 24  1  0
 24 60  1  0
 24 61  1  0
 25 26  1  0
 25 27  1  0
 25 62  1  1
 26 63  1  0
 26 64  1  0
 26 65  1  0
 27 28  1  0
 27 66  1  1
 28 29  1  0
 28 67  1  0
 28 68  1  0
 29 30  1  0
 29 69  1  0
 29 70  1  0
 30 31  1  0
 30 71  1  6
 31 72  1  6
M  END
>  <i_m_ct_stereo_status>  (129) 
1

>  <s_m_source_file>  (129) 
/var/tmp/pbs.5076255.sched01/tmpav68hifr/35m6z7vsub.sdf

>  <i_m_source_file_index>  (129) 
25

>  <i_lp_mmshare_version>  (129) 
48012

>  <i_f3d_flags>  (129) 
2

>  <s_epik_input>  (129) 
W0NAXTEyM1tDQEhdNFtDSDJdW0NAXShPMikoT1tDSDNdKVtDQEBIXTVbQ0BIXShbQ0BASF0oW0NIMl0xKUMoPVtDSDJdKVtDSDNdKVtDQF0oW0NIMl1ONFtDSDJdW0NIM10pKFtDQEBIXShbQ0gzXSlbQ0BIXTNbQ0gyXVtDSDJdNSlbQ0gyXU9bQ0BASF02W0NIMl1bQ0gyXU9bQ0gyXTY=

>  <s_epik_cmdline>  (129) 
J2VwaWtfcHl0aG9uJywgJy1waHQnLCAnMi4wJywgJy1waCcsICc3LjAnLCAnLXRuJywgJzgnLCAnLW1hJywgJzIwMCcsICctaW1hZScsICc8aW5maWxlLm1hZT4nLCAnLW9tYWUnLCAnPG91dGZpbGUubWFlPic=

>  <r_epik_Ionization_Penalty>  (129) 
1.65163

>  <r_epik_Ionization_Penalty_Charging>  (129) 
0

>  <r_epik_Ionization_Penalty_Neutral>  (129) 
1.65163

>  <r_epik_State_Penalty>  (129) 
1.75377

>  <r_epik_Charging_Adjusted_Penalty>  (129) 
1.75377

>  <i_epik_Tot_Q>  (129) 
0

>  <i_epik_Tot_abs_Q>  (129) 
0

>  <s_lp_Force_Field>  (129) 
OPLS3e

>  <r_lp_Energy>  (129) 
431.789

>  <b_lp_Chiralities_Consistent>  (129) 
0

>  <s_lp_Variant>  (129) 
49:0-2

>  <s_i_glide_gridfile>  (129) 
pfpi4k_grid

>  <i_i_glide_lignum>  (129) 
25

>  <i_i_glide_rotatable_bonds>  (129) 
6

>  <r_i_docking_score>  (129) 
-0.837956

>  <r_i_glide_ligand_efficiency>  (129) 
-0.0270308

>  <r_i_glide_ligand_efficiency_sa>  (129) 
-0.0849141

>  <r_i_glide_ligand_efficiency_ln>  (129) 
-0.188985

>  <r_i_glide_gscore>  (129) 
-0.837956

>  <r_i_glide_lipo>  (129) 
-0.626513

>  <r_i_glide_hbond>  (129) 
-0.0800649

>  <r_i_glide_metal>  (129) 
-0

>  <r_i_glide_rewards>  (129) 
-0.524402

>  <r_i_glide_evdw>  (129) 
-1.50992

>  <r_i_glide_ecoul>  (129) 
0.276029

>  <r_i_glide_erotb>  (129) 
0.427115

>  <r_i_glide_esite>  (129) 
0

>  <r_i_glide_emodel>  (129) 
2.78727

>  <r_i_glide_energy>  (129) 
-1.23389

>  <r_i_glide_einternal>  (129) 
3.34604

>  <r_i_glide_intrahb_reward>  (129) 
-0

>  <i_i_glide_confnum>  (129) 
5

>  <i_i_glide_posenum>  (129) 
40

>  <r_i_glide_eff_state_penalty>  (129) 
0

>  <ligand_id>  (129) 
49

>  <original_smiles>  (129) 
C=C(C)C1CC23OC4(OC)CC2N(CC)CC2(COC5CCOC5)C(C)C3CCC4C12

>  <smiles>  (129) 
[H]C([H])=C(C([H])([H])[H])C1([H])C([H])([H])C23OC4(OC([H])([H])[H])C([H])([H])C2([H])N(C([H])([H])C([H])([H])[H])C([H])([H])C2(C([H])([H])OC5([H])C([H])([H])OC([H])([H])C5([H])[H])C([H])(C([H])([H])[H])C3([H])C([H])([H])C([H])([H])C4([H])C12[H]

$$$$
50:0:0
     RDKit          3D

 71 76  0  0  1  0  0  0  0  0999 V2000
    4.2339   -1.0252    8.2493 C   0  0  0  0  0  0  0  0  0  0  0  0
    2.9490   -0.3158    7.7355 C   0  0  2  0  0  0  0  0  0  0  0  0
    1.8416   -0.3853    8.8235 C   0  0  0  0  0  0  0  0  0  0  0  0
    0.3643   -0.3623    8.2874 C   0  0  0  0  0  0  0  0  0  0  0  0
    0.0603    0.0877    6.7832 C   0  0  1  0  0  0  0  0  0  0  0  0
   -1.2416    0.5931    7.1318 O   0  0  0  0  0  0  0  0  0  0  0  0
    1.2525    0.7766    6.3892 C   0  0  2  0  0  0  0  0  0  0  0  0
    0.5087    1.7702    5.3460 C   0  0  0  0  0  0  0  0  0  0  0  0
   -0.3471    2.8763    6.0957 C   0  0  0  0  0  0  0  0  0  0  0  0
    1.3032    2.8019    4.4565 C   0  0  0  0  0  0  0  0  0  0  0  0
   -0.4897    0.8834    4.7570 O   0  0  0  0  0  0  0  0  0  0  0  0
   -0.1654   -0.4330    5.2419 C   0  0  2  0  0  0  0  0  0  0  0  0
   -1.1821   -1.5164    5.3972 C   0  0  0  0  0  0  0  0  0  0  0  0
   -0.8735   -2.6392    6.0799 C   0  0  0  0  0  0  0  0  0  0  0  0
    0.4535   -3.1129    6.7530 C   0  0  0  0  0  0  0  0  0  0  0  0
    0.1585   -3.5111    8.2372 C   0  0  0  0  0  0  0  0  0  0  0  0
    0.7029   -4.5535    6.1611 C   0  0  0  0  0  0  0  0  0  0  0  0
    1.8379   -2.2638    6.6301 C   0  0  0  0  0  0  0  0  0  0  0  0
    2.8154   -3.0084    6.7633 O   0  0  0  0  0  0  0  0  0  0  0  0
    2.2470   -0.6610    6.3652 C   0  0  2  0  0  0  0  0  0  0  0  0
    3.2772   -0.8017    5.1554 C   0  0  2  0  0  0  0  0  0  0  0  0
    3.5497    0.5073    4.4261 C   0  0  1  0  0  0  0  0  0  0  0  0
    4.9016    0.9125    4.4856 O   0  0  0  0  0  0  0  0  0  0  0  0
    3.0485    0.2186    2.9849 C   0  0  2  0  0  0  0  0  0  0  0  0
    1.4559    0.1933    2.8939 C   0  0  0  0  0  0  0  0  0  0  0  0
    0.6918   -0.7832    3.8706 C   0  0  1  0  0  0  0  0  0  0  0  0
    1.4668   -2.0796    3.7209 C   0  0  0  0  0  0  0  0  0  0  0  0
    2.9813   -1.8541    3.9827 C   0  0  1  0  0  0  0  0  0  0  0  0
    3.6089   -1.2097    2.7180 C   0  0  0  0  0  0  0  0  0  0  0  0
    3.2428   -1.8088    1.3239 C   0  0  0  0  0  0  0  0  0  0  0  0
    5.1599   -1.3517    2.7375 C   0  0  0  0  0  0  0  0  0  0  0  0
    4.0670   -2.0478    8.5851 H   0  0  0  0  0  0  0  0  0  0  0  0
    4.6102   -0.4886    9.1234 H   0  0  0  0  0  0  0  0  0  0  0  0
    5.0459   -1.0209    7.5215 H   0  0  0  0  0  0  0  0  0  0  0  0
    3.3331    0.7028    7.6608 H   0  0  0  0  0  0  0  0  0  0  0  0
    1.9741   -1.2665    9.4504 H   0  0  0  0  0  0  0  0  0  0  0  0
    1.9922    0.4527    9.5068 H   0  0  0  0  0  0  0  0  0  0  0  0
   -0.2248   -1.1981    8.6041 H   0  0  0  0  0  0  0  0  0  0  0  0
   -0.0428    0.4032    8.9596 H   0  0  0  0  0  0  0  0  0  0  0  0
   -1.4428    1.2810    6.5117 H   0  0  0  0  0  0  0  0  0  0  0  0
    1.5726    1.5042    7.1350 H   0  0  0  0  0  0  0  0  0  0  0  0
   -0.1309    3.9165    5.8463 H   0  0  0  0  0  0  0  0  0  0  0  0
   -0.2135    2.8476    7.1788 H   0  0  0  0  0  0  0  0  0  0  0  0
   -1.4146    2.7805    5.8803 H   0  0  0  0  0  0  0  0  0  0  0  0
    1.8630    3.4892    5.0929 H   0  0  0  0  0  0  0  0  0  0  0  0
    0.6169    3.3992    3.8520 H   0  0  0  0  0  0  0  0  0  0  0  0
    2.0450    2.4847    3.7424 H   0  0  0  0  0  0  0  0  0  0  0  0
   -2.1637   -1.3520    4.9832 H   0  0  0  0  0  0  0  0  0  0  0  0
   -1.6724   -3.3618    6.1641 H   0  0  0  0  0  0  0  0  0  0  0  0
    0.9168   -3.1476    8.9288 H   0  0  0  0  0  0  0  0  0  0  0  0
    0.1257   -4.5855    8.4161 H   0  0  0  0  0  0  0  0  0  0  0  0
   -0.8186   -3.1734    8.5800 H   0  0  0  0  0  0  0  0  0  0  0  0
    1.0258   -4.6187    5.1284 H   0  0  0  0  0  0  0  0  0  0  0  0
   -0.1960   -5.1704    6.2170 H   0  0  0  0  0  0  0  0  0  0  0  0
    1.4675   -5.1005    6.7162 H   0  0  0  0  0  0  0  0  0  0  0  0
    4.2225   -1.1329    5.5750 H   0  0  0  0  0  0  0  0  0  0  0  0
    3.1229    1.3294    4.9603 H   0  0  0  0  0  0  0  0  0  0  0  0
    4.9977    1.6715    3.9308 H   0  0  0  0  0  0  0  0  0  0  0  0
    3.4516    0.9384    2.2701 H   0  0  0  0  0  0  0  0  0  0  0  0
    0.9536    1.1396    2.7689 H   0  0  0  0  0  0  0  0  0  0  0  0
    1.2328   -0.1551    1.8894 H   0  0  0  0  0  0  0  0  0  0  0  0
   -0.1770   -0.9830    3.2426 H   0  0  0  0  0  0  0  0  0  0  0  0
    1.0201   -2.8432    4.3032 H   0  0  0  0  0  0  0  0  0  0  0  0
    1.2937   -2.5015    2.7352 H   0  0  0  0  0  0  0  0  0  0  0  0
    3.4511   -2.8209    4.1818 H   0  0  0  0  0  0  0  0  0  0  0  0
    3.4876   -2.8719    1.2819 H   0  0  0  0  0  0  0  0  0  0  0  0
    3.8141   -1.3144    0.5373 H   0  0  0  0  0  0  0  0  0  0  0  0
    2.2075   -1.7266    1.0102 H   0  0  0  0  0  0  0  0  0  0  0  0
    5.4781   -2.3103    2.3250 H   0  0  0  0  0  0  0  0  0  0  0  0
    5.5954   -1.3249    3.7346 H   0  0  0  0  0  0  0  0  0  0  0  0
    5.6340   -0.5730    2.1400 H   0  0  0  0  0  0  0  0  0  0  0  0
  1  2  1  0
  1 32  1  0
  1 33  1  0
  1 34  1  0
  2 20  1  0
  2  3  1  0
  2 35  1  6
  3  4  1  0
  3 36  1  0
  3 37  1  0
  4  5  1  0
  4 38  1  0
  4 39  1  0
  5 12  1  0
  5  6  1  1
  5  7  1  0
  6 40  1  0
  7 20  1  0
  7  8  1  0
  7 41  1  1
  8  9  1  0
  8 10  1  0
  8 11  1  0
  9 42  1  0
  9 43  1  0
  9 44  1  0
 10 45  1  0
 10 46  1  0
 10 47  1  0
 12 11  1  6
 12 26  1  0
 12 13  1  0
 13 14  2  3
 13 48  1  0
 14 15  1  0
 14 49  1  0
 15 16  1  0
 15 17  1  0
 15 18  1  0
 16 50  1  0
 16 51  1  0
 16 52  1  0
 17 53  1  0
 17 54  1  0
 17 55  1  0
 18 19  2  0
 20 18  1  1
 20 21  1  0
 21 28  1  0
 21 22  1  0
 21 56  1  1
 22 23  1  0
 22 24  1  0
 22 57  1  1
 23 58  1  0
 24 29  1  0
 24 25  1  0
 24 59  1  6
 25 26  1  0
 25 60  1  0
 25 61  1  0
 26 27  1  0
 26 62  1  6
 27 28  1  0
 27 63  1  0
 27 64  1  0
 28 29  1  0
 28 65  1  1
 29 30  1  0
 29 31  1  0
 30 66  1  0
 30 67  1  0
 30 68  1  0
 31 69  1  0
 31 70  1  0
 31 71  1  0
M  END
>  <i_m_ct_stereo_status>  (130) 
1

>  <s_m_source_file>  (130) 
/var/tmp/pbs.5076255.sched01/tmpav68hifr/35m6z7vsub.sdf

>  <i_m_source_file_index>  (130) 
26

>  <i_lp_mmshare_version>  (130) 
48012

>  <i_f3d_flags>  (130) 
0

>  <s_epik_input>  (130) 
W0NIXVwxPVtDSF1cQyhbQ0gzXSkoW0NIM10pQyg9TylbQ0BdKFtDQEhdKFtDSDNdKVtDSDJdW0NIMl0yKShbQ0BIXShbQ0BdMihbQ0BAXTEzNClbT0hdKUMoTzMpKFtDSDNdKVtDSDNdKVtDQEhdNVtDQEhdNltDSDJdW0NAQEhdNFtDSDJdW0NAQEhdKFtDQEBIXTVbT0hdKUM2KFtDSDNdKVtDSDNd

>  <s_epik_cmdline>  (130) 
J2VwaWtfcHl0aG9uJywgJy1waHQnLCAnMi4wJywgJy1waCcsICc3LjAnLCAnLXRuJywgJzgnLCAnLW1hJywgJzIwMCcsICctaW1hZScsICc8aW5maWxlLm1hZT4nLCAnLW9tYWUnLCAnPG91dGZpbGUubWFlPic=

>  <r_lp_tautomer_probability>  (130) 
1

>  <r_epik_Ionization_Penalty>  (130) 
1.15316e-06

>  <r_epik_Ionization_Penalty_Charging>  (130) 
0

>  <r_epik_Ionization_Penalty_Neutral>  (130) 
1.15316e-06

>  <r_epik_State_Penalty>  (130) 
-0

>  <r_epik_Charging_Adjusted_Penalty>  (130) 
0

>  <i_epik_Tot_Q>  (130) 
0

>  <i_epik_Tot_abs_Q>  (130) 
0

>  <s_lp_Force_Field>  (130) 
OPLS3e

>  <r_lp_Energy>  (130) 
350.298

>  <b_lp_Chiralities_Consistent>  (130) 
1

>  <s_lp_Variant>  (130) 
50:0-1

>  <s_i_glide_gridfile>  (130) 
pfpi4k_grid

>  <i_i_glide_lignum>  (130) 
26

>  <i_i_glide_rotatable_bonds>  (130) 
2

>  <r_i_docking_score>  (130) 
-2.4532

>  <r_i_glide_ligand_efficiency>  (130) 
-0.0791356

>  <r_i_glide_ligand_efficiency_sa>  (130) 
-0.248595

>  <r_i_glide_ligand_efficiency_ln>  (130) 
-0.553273

>  <r_i_glide_gscore>  (130) 
-2.4532

>  <r_i_glide_lipo>  (130) 
-0.134593

>  <r_i_glide_hbond>  (130) 
-0.20378

>  <r_i_glide_metal>  (130) 
-0

>  <r_i_glide_rewards>  (130) 
-0.48679

>  <r_i_glide_evdw>  (130) 
-20.6411

>  <r_i_glide_ecoul>  (130) 
-3.96944

>  <r_i_glide_erotb>  (130) 
0

>  <r_i_glide_esite>  (130) 
-0.000571552

>  <r_i_glide_emodel>  (130) 
-28.2827

>  <r_i_glide_energy>  (130) 
-24.6105

>  <r_i_glide_einternal>  (130) 
0.59022

>  <r_i_glide_intrahb_reward>  (130) 
-0

>  <i_i_glide_confnum>  (130) 
2

>  <i_i_glide_posenum>  (130) 
5

>  <r_i_glide_eff_state_penalty>  (130) 
0

>  <ligand_id>  (130) 
50

>  <original_smiles>  (130) 
CC1CCC2(O)C3C(C)(C)OC24C=CC(C)(C)C(=O)C13C1C(O)C2CC4CC1C2(C)C

>  <smiles>  (130) 
[H]OC1([H])C2([H])C3([H])C([H])([H])C([H])(C([H])([H])C1([H])C3(C([H])([H])[H])C([H])([H])[H])C13OC(C([H])([H])[H])(C([H])([H])[H])C4([H])C1(O[H])C([H])([H])C([H])([H])C([H])(C([H])([H])[H])C24C(=O)C(C([H])([H])[H])(C([H])([H])[H])C([H])=C3[H]

$$$$
50:0:1
     RDKit          3D

 71 76  0  0  1  0  0  0  0  0999 V2000
    0.3050    1.6049    9.3160 C   0  0  0  0  0  0  0  0  0  0  0  0
    0.9008    0.3155    8.6849 C   0  0  2  0  0  0  0  0  0  0  0  0
    2.1292   -0.1602    9.5137 C   0  0  0  0  0  0  0  0  0  0  0  0
    3.2157   -0.9679    8.7114 C   0  0  0  0  0  0  0  0  0  0  0  0
    2.8703   -1.5677    7.2688 C   0  0  1  0  0  0  0  0  0  0  0  0
    3.7805   -2.6642    7.4521 O   0  0  0  0  0  0  0  0  0  0  0  0
    1.4387   -1.5475    7.2266 C   0  0  2  0  0  0  0  0  0  0  0  0
    1.3065   -2.8195    6.2319 C   0  0  0  0  0  0  0  0  0  0  0  0
    1.6533   -4.1810    6.9725 C   0  0  0  0  0  0  0  0  0  0  0  0
   -0.0873   -3.3223    5.6930 C   0  0  0  0  0  0  0  0  0  0  0  0
    2.4189   -2.5931    5.3137 O   0  0  0  0  0  0  0  0  0  0  0  0
    2.9391   -1.2938    5.6491 C   0  0  2  0  0  0  0  0  0  0  0  0
    4.3635   -0.8932    5.4326 C   0  0  0  0  0  0  0  0  0  0  0  0
    4.8297    0.2515    5.9686 C   0  0  0  0  0  0  0  0  0  0  0  0
    4.1254    1.3684    6.8064 C   0  0  0  0  0  0  0  0  0  0  0  0
    4.9331    1.6070    8.1256 C   0  0  0  0  0  0  0  0  0  0  0  0
    4.4810    2.7082    6.0561 C   0  0  0  0  0  0  0  0  0  0  0  0
    2.5176    1.3614    7.0901 C   0  0  0  0  0  0  0  0  0  0  0  0
    2.1054    2.5058    7.2915 O   0  0  0  0  0  0  0  0  0  0  0  0
    1.3177    0.1939    7.1660 C   0  0  2  0  0  0  0  0  0  0  0  0
    0.2276    0.8063    6.1711 C   0  0  2  0  0  0  0  0  0  0  0  0
   -0.8327   -0.1971    5.7243 C   0  0  1  0  0  0  0  0  0  0  0  0
   -2.1587    0.1447    6.0933 O   0  0  0  0  0  0  0  0  0  0  0  0
   -0.6194   -0.2615    4.1908 C   0  0  2  0  0  0  0  0  0  0  0  0
    0.6946   -1.0739    3.7909 C   0  0  0  0  0  0  0  0  0  0  0  0
    2.0610   -0.6014    4.4259 C   0  0  1  0  0  0  0  0  0  0  0  0
    2.0219    0.9021    4.2280 C   0  0  0  0  0  0  0  0  0  0  0  0
    0.7131    1.5051    4.8121 C   0  0  1  0  0  0  0  0  0  0  0  0
   -0.4402    1.2352    3.8108 C   0  0  0  0  0  0  0  0  0  0  0  0
   -0.1793    1.4926    2.2927 C   0  0  0  0  0  0  0  0  0  0  0  0
   -1.6526    2.1697    4.1049 C   0  0  0  0  0  0  0  0  0  0  0  0
    1.0334    2.4041    9.4486 H   0  0  0  0  0  0  0  0  0  0  0  0
   -0.0596    1.3767   10.3201 H   0  0  0  0  0  0  0  0  0  0  0  0
   -0.5497    1.9986    8.7681 H   0  0  0  0  0  0  0  0  0  0  0  0
    0.0597   -0.3580    8.8496 H   0  0  0  0  0  0  0  0  0  0  0  0
    2.6078    0.6837   10.0079 H   0  0  0  0  0  0  0  0  0  0  0  0
    1.7531   -0.7709   10.3391 H   0  0  0  0  0  0  0  0  0  0  0  0
    4.2113   -0.5666    8.7758 H   0  0  0  0  0  0  0  0  0  0  0  0
    3.3359   -1.8030    9.4099 H   0  0  0  0  0  0  0  0  0  0  0  0
    4.6592   -2.3345    7.3664 H   0  0  0  0  0  0  0  0  0  0  0  0
    0.9998   -1.9730    8.1271 H   0  0  0  0  0  0  0  0  0  0  0  0
    0.9054   -4.9750    6.9378 H   0  0  0  0  0  0  0  0  0  0  0  0
    1.8281   -4.0458    8.0412 H   0  0  0  0  0  0  0  0  0  0  0  0
    2.5487   -4.6461    6.5541 H   0  0  0  0  0  0  0  0  0  0  0  0
   -0.7342   -3.5980    6.5259 H   0  0  0  0  0  0  0  0  0  0  0  0
    0.0437   -4.2105    5.0712 H   0  0  0  0  0  0  0  0  0  0  0  0
   -0.7214   -2.6923    5.0918 H   0  0  0  0  0  0  0  0  0  0  0  0
    4.9993   -1.5566    4.8663 H   0  0  0  0  0  0  0  0  0  0  0  0
    5.8763    0.4530    5.7819 H   0  0  0  0  0  0  0  0  0  0  0  0
    4.2928    1.7137    8.9986 H   0  0  0  0  0  0  0  0  0  0  0  0
    5.5386    2.5144    8.1231 H   0  0  0  0  0  0  0  0  0  0  0  0
    5.6632    0.8214    8.3185 H   0  0  0  0  0  0  0  0  0  0  0  0
    3.9954    2.8909    5.1036 H   0  0  0  0  0  0  0  0  0  0  0  0
    5.5492    2.7676    5.8437 H   0  0  0  0  0  0  0  0  0  0  0  0
    4.2509    3.5924    6.6531 H   0  0  0  0  0  0  0  0  0  0  0  0
   -0.2860    1.5997    6.7044 H   0  0  0  0  0  0  0  0  0  0  0  0
   -0.7341   -1.0989    6.2865 H   0  0  0  0  0  0  0  0  0  0  0  0
   -2.3921    0.9244    5.6153 H   0  0  0  0  0  0  0  0  0  0  0  0
   -1.4905   -0.6804    3.6907 H   0  0  0  0  0  0  0  0  0  0  0  0
    0.6129   -2.1472    3.7235 H   0  0  0  0  0  0  0  0  0  0  0  0
    0.8068   -0.9335    2.7209 H   0  0  0  0  0  0  0  0  0  0  0  0
    2.7256   -0.9021    3.6113 H   0  0  0  0  0  0  0  0  0  0  0  0
    2.9186    1.3409    4.5845 H   0  0  0  0  0  0  0  0  0  0  0  0
    2.1337    1.1387    3.1742 H   0  0  0  0  0  0  0  0  0  0  0  0
    0.8544    2.5819    4.9358 H   0  0  0  0  0  0  0  0  0  0  0  0
    0.1331    2.5249    2.1261 H   0  0  0  0  0  0  0  0  0  0  0  0
   -1.0925    1.3421    1.7149 H   0  0  0  0  0  0  0  0  0  0  0  0
    0.5683    0.8769    1.8013 H   0  0  0  0  0  0  0  0  0  0  0  0
   -1.5336    3.1332    3.6059 H   0  0  0  0  0  0  0  0  0  0  0  0
   -1.7838    2.4182    5.1567 H   0  0  0  0  0  0  0  0  0  0  0  0
   -2.5829    1.7446    3.7275 H   0  0  0  0  0  0  0  0  0  0  0  0
  1  2  1  0
  1 32  1  0
  1 33  1  0
  1 34  1  0
  2 20  1  0
  2  3  1  0
  2 35  1  6
  3  4  1  0
  3 36  1  0
  3 37  1  0
  4  5  1  0
  4 38  1  0
  4 39  1  0
  5 12  1  0
  5  6  1  6
  5  7  1  0
  6 40  1  0
  7 20  1  0
  7  8  1  0
  7 41  1  1
  8  9  1  0
  8 10  1  0
  8 11  1  0
  9 42  1  0
  9 43  1  0
  9 44  1  0
 10 45  1  0
 10 46  1  0
 10 47  1  0
 12 11  1  6
 12 26  1  0
 12 13  1  0
 13 14  2  3
 13 48  1  0
 14 15  1  0
 14 49  1  0
 15 16  1  0
 15 17  1  0
 15 18  1  0
 16 50  1  0
 16 51  1  0
 16 52  1  0
 17 53  1  0
 17 54  1  0
 17 55  1  0
 18 19  2  0
 20 18  1  1
 20 21  1  0
 21 28  1  0
 21 22  1  0
 21 56  1  1
 22 23  1  0
 22 24  1  0
 22 57  1  1
 23 58  1  0
 24 29  1  0
 24 25  1  0
 24 59  1  6
 25 26  1  0
 25 60  1  0
 25 61  1  0
 26 27  1  0
 26 62  1  6
 27 28  1  0
 27 63  1  0
 27 64  1  0
 28 29  1  0
 28 65  1  1
 29 30  1  0
 29 31  1  0
 30 66  1  0
 30 67  1  0
 30 68  1  0
 31 69  1  0
 31 70  1  0
 31 71  1  0
M  END
>  <i_m_ct_stereo_status>  (131) 
1

>  <s_m_source_file>  (131) 
/var/tmp/pbs.5076255.sched01/tmpav68hifr/35m6z7vsub.sdf

>  <i_m_source_file_index>  (131) 
26

>  <i_lp_mmshare_version>  (131) 
48012

>  <i_f3d_flags>  (131) 
0

>  <s_epik_input>  (131) 
W0NIXVwxPVtDSF1cQyhbQ0gzXSkoW0NIM10pQyg9TylbQ0BdKFtDQEhdKFtDSDNdKVtDSDJdW0NIMl0yKShbQ0BIXShbQ0BdMihbQ0BAXTEzNClbT0hdKUMoTzMpKFtDSDNdKVtDSDNdKVtDQEhdNVtDQEhdNltDSDJdW0NAQEhdNFtDSDJdW0NAQEhdKFtDQEBIXTVbT0hdKUM2KFtDSDNdKVtDSDNd

>  <s_epik_cmdline>  (131) 
J2VwaWtfcHl0aG9uJywgJy1waHQnLCAnMi4wJywgJy1waCcsICc3LjAnLCAnLXRuJywgJzgnLCAnLW1hJywgJzIwMCcsICctaW1hZScsICc8aW5maWxlLm1hZT4nLCAnLW9tYWUnLCAnPG91dGZpbGUubWFlPic=

>  <r_lp_tautomer_probability>  (131) 
1

>  <r_epik_Ionization_Penalty>  (131) 
1.15316e-06

>  <r_epik_Ionization_Penalty_Charging>  (131) 
0

>  <r_epik_Ionization_Penalty_Neutral>  (131) 
1.15316e-06

>  <r_epik_State_Penalty>  (131) 
-0

>  <r_epik_Charging_Adjusted_Penalty>  (131) 
0

>  <i_epik_Tot_Q>  (131) 
0

>  <i_epik_Tot_abs_Q>  (131) 
0

>  <s_lp_Force_Field>  (131) 
OPLS3e

>  <r_lp_Energy>  (131) 
350.298

>  <b_lp_Chiralities_Consistent>  (131) 
1

>  <s_lp_Variant>  (131) 
50:0-1

>  <s_i_glide_gridfile>  (131) 
pfpi4k_grid

>  <i_i_glide_lignum>  (131) 
26

>  <i_i_glide_rotatable_bonds>  (131) 
2

>  <r_i_docking_score>  (131) 
-2.15803

>  <r_i_glide_ligand_efficiency>  (131) 
-0.0696139

>  <r_i_glide_ligand_efficiency_sa>  (131) 
-0.218684

>  <r_i_glide_ligand_efficiency_ln>  (131) 
-0.486702

>  <r_i_glide_gscore>  (131) 
-2.15803

>  <r_i_glide_lipo>  (131) 
-0.0236469

>  <r_i_glide_hbond>  (131) 
-0.16

>  <r_i_glide_metal>  (131) 
-0

>  <r_i_glide_rewards>  (131) 
-0.48679

>  <r_i_glide_evdw>  (131) 
-19.6036

>  <r_i_glide_ecoul>  (131) 
-3.38278

>  <r_i_glide_erotb>  (131) 
0

>  <r_i_glide_esite>  (131) 
0

>  <r_i_glide_emodel>  (131) 
-26.4333

>  <r_i_glide_energy>  (131) 
-22.9863

>  <r_i_glide_einternal>  (131) 
0.0316763

>  <r_i_glide_intrahb_reward>  (131) 
-0

>  <i_i_glide_confnum>  (131) 
1

>  <i_i_glide_posenum>  (131) 
12

>  <r_i_glide_eff_state_penalty>  (131) 
0

>  <ligand_id>  (131) 
50

>  <original_smiles>  (131) 
CC1CCC2(O)C3C(C)(C)OC24C=CC(C)(C)C(=O)C13C1C(O)C2CC4CC1C2(C)C

>  <smiles>  (131) 
[H]OC1([H])C2([H])C3([H])C([H])([H])C([H])(C([H])([H])C1([H])C3(C([H])([H])[H])C([H])([H])[H])C13OC(C([H])([H])[H])(C([H])([H])[H])C4([H])C1(O[H])C([H])([H])C([H])([H])C([H])(C([H])([H])[H])C24C(=O)C(C([H])([H])[H])(C([H])([H])[H])C([H])=C3[H]

$$$$
50:0:2
     RDKit          3D

 71 76  0  0  1  0  0  0  0  0999 V2000
   -1.4371    4.3316    7.9913 C   0  0  0  0  0  0  0  0  0  0  0  0
    0.0329    3.8346    8.0350 C   0  0  2  0  0  0  0  0  0  0  0  0
    0.8848    4.7971    8.9114 C   0  0  0  0  0  0  0  0  0  0  0  0
    2.4143    4.8747    8.5453 C   0  0  0  0  0  0  0  0  0  0  0  0
    3.0657    3.7565    7.6085 C   0  0  1  0  0  0  0  0  0  0  0  0
    4.3489    3.8960    8.2382 O   0  0  0  0  0  0  0  0  0  0  0  0
    2.1260    2.6780    7.6482 C   0  0  2  0  0  0  0  0  0  0  0  0
    3.2308    1.5136    7.4186 C   0  0  0  0  0  0  0  0  0  0  0  0
    4.1287    1.2864    8.7078 C   0  0  0  0  0  0  0  0  0  0  0  0
    2.8316   -0.0043    7.2767 C   0  0  0  0  0  0  0  0  0  0  0  0
    4.1316    2.1488    6.4587 O   0  0  0  0  0  0  0  0  0  0  0  0
    3.4728    3.3690    6.0647 C   0  0  2  0  0  0  0  0  0  0  0  0
    4.2118    4.5780    5.5942 C   0  0  0  0  0  0  0  0  0  0  0  0
    3.5681    5.7570    5.4691 C   0  0  0  0  0  0  0  0  0  0  0  0
    2.0725    6.1496    5.6911 C   0  0  0  0  0  0  0  0  0  0  0  0
    2.0060    7.3679    6.6714 C   0  0  0  0  0  0  0  0  0  0  0  0
    1.6627    6.8846    4.3604 C   0  0  0  0  0  0  0  0  0  0  0  0
    0.9238    5.0463    6.0365 C   0  0  0  0  0  0  0  0  0  0  0  0
   -0.1909    5.4470    5.6749 O   0  0  0  0  0  0  0  0  0  0  0  0
    0.8923    3.5275    6.7482 C   0  0  2  0  0  0  0  0  0  0  0  0
    0.0957    2.6881    5.6502 C   0  0  2  0  0  0  0  0  0  0  0  0
    0.2125    1.1740    5.8237 C   0  0  1  0  0  0  0  0  0  0  0  0
   -1.0291    0.5235    6.0527 O   0  0  0  0  0  0  0  0  0  0  0  0
    0.9194    0.7368    4.5096 C   0  0  2  0  0  0  0  0  0  0  0  0
    2.4662    1.1327    4.4798 C   0  0  0  0  0  0  0  0  0  0  0  0
    2.8368    2.6489    4.7159 C   0  0  1  0  0  0  0  0  0  0  0  0
    1.8631    3.3762    3.8063 C   0  0  0  0  0  0  0  0  0  0  0  0
    0.4006    2.9400    4.0957 C   0  0  1  0  0  0  0  0  0  0  0  0
    0.1576    1.5612    3.4321 C   0  0  0  0  0  0  0  0  0  0  0  0
    0.6556    1.3439    1.9687 C   0  0  0  0  0  0  0  0  0  0  0  0
   -1.3661    1.2817    3.3085 C   0  0  0  0  0  0  0  0  0  0  0  0
   -1.5297    5.3709    7.6804 H   0  0  0  0  0  0  0  0  0  0  0  0
   -1.8586    4.2968    8.9979 H   0  0  0  0  0  0  0  0  0  0  0  0
   -2.0851    3.7123    7.3706 H   0  0  0  0  0  0  0  0  0  0  0  0
   -0.1229    2.8903    8.5603 H   0  0  0  0  0  0  0  0  0  0  0  0
    0.4652    5.8023    8.8993 H   0  0  0  0  0  0  0  0  0  0  0  0
    0.7774    4.4766    9.9492 H   0  0  0  0  0  0  0  0  0  0  0  0
    2.7900    5.8605    8.3428 H   0  0  0  0  0  0  0  0  0  0  0  0
    2.8222    4.7497    9.5549 H   0  0  0  0  0  0  0  0  0  0  0  0
    4.8881    3.1828    7.9277 H   0  0  0  0  0  0  0  0  0  0  0  0
    1.8234    2.4392    8.6686 H   0  0  0  0  0  0  0  0  0  0  0  0
    4.1720    0.2721    9.1093 H   0  0  0  0  0  0  0  0  0  0  0  0
    3.7935    1.8785    9.5609 H   0  0  0  0  0  0  0  0  0  0  0  0
    5.1764    1.5313    8.5196 H   0  0  0  0  0  0  0  0  0  0  0  0
    2.3084   -0.3364    8.1748 H   0  0  0  0  0  0  0  0  0  0  0  0
    3.7222   -0.6267    7.1672 H   0  0  0  0  0  0  0  0  0  0  0  0
    2.1872   -0.3502    6.4860 H   0  0  0  0  0  0  0  0  0  0  0  0
    5.2661    4.4882    5.3920 H   0  0  0  0  0  0  0  0  0  0  0  0
    4.1853    6.5828    5.1426 H   0  0  0  0  0  0  0  0  0  0  0  0
    1.2197    7.2671    7.4162 H   0  0  0  0  0  0  0  0  0  0  0  0
    1.7995    8.3228    6.1871 H   0  0  0  0  0  0  0  0  0  0  0  0
    2.9523    7.5484    7.1823 H   0  0  0  0  0  0  0  0  0  0  0  0
    1.5309    6.2755    3.4723 H   0  0  0  0  0  0  0  0  0  0  0  0
    2.3982    7.6399    4.0753 H   0  0  0  0  0  0  0  0  0  0  0  0
    0.7180    7.4229    4.4594 H   0  0  0  0  0  0  0  0  0  0  0  0
   -0.9552    2.9381    5.7587 H   0  0  0  0  0  0  0  0  0  0  0  0
    0.6916    0.9469    6.7523 H   0  0  0  0  0  0  0  0  0  0  0  0
   -1.5592    0.6460    5.2786 H   0  0  0  0  0  0  0  0  0  0  0  0
    0.8035   -0.3347    4.3355 H   0  0  0  0  0  0  0  0  0  0  0  0
    3.1598    0.4555    4.9517 H   0  0  0  0  0  0  0  0  0  0  0  0
    2.8002    0.9073    3.4714 H   0  0  0  0  0  0  0  0  0  0  0  0
    3.7489    2.6835    4.1163 H   0  0  0  0  0  0  0  0  0  0  0  0
    2.0354    4.4206    3.8452 H   0  0  0  0  0  0  0  0  0  0  0  0
    2.1290    3.2085    2.7656 H   0  0  0  0  0  0  0  0  0  0  0  0
   -0.2712    3.6857    3.6629 H   0  0  0  0  0  0  0  0  0  0  0  0
    0.2188    2.0899    1.3019 H   0  0  0  0  0  0  0  0  0  0  0  0
    0.3441    0.3680    1.5940 H   0  0  0  0  0  0  0  0  0  0  0  0
    1.7264    1.3889    1.7975 H   0  0  0  0  0  0  0  0  0  0  0  0
   -1.7719    1.7118    2.3911 H   0  0  0  0  0  0  0  0  0  0  0  0
   -1.9767    1.7119    4.1005 H   0  0  0  0  0  0  0  0  0  0  0  0
   -1.5570    0.2091    3.2637 H   0  0  0  0  0  0  0  0  0  0  0  0
  1  2  1  0
  1 32  1  0
  1 33  1  0
  1 34  1  0
  2 20  1  0
  2  3  1  0
  2 35  1  1
  3  4  1  0
  3 36  1  0
  3 37  1  0
  4  5  1  0
  4 38  1  0
  4 39  1  0
  5 12  1  0
  5  6  1  1
  5  7  1  0
  6 40  1  0
  7 20  1  0
  7  8  1  0
  7 41  1  1
  8  9  1  0
  8 10  1  0
  8 11  1  0
  9 42  1  0
  9 43  1  0
  9 44  1  0
 10 45  1  0
 10 46  1  0
 10 47  1  0
 12 11  1  1
 12 26  1  0
 12 13  1  0
 13 14  2  3
 13 48  1  0
 14 15  1  0
 14 49  1  0
 15 16  1  0
 15 17  1  0
 15 18  1  0
 16 50  1  0
 16 51  1  0
 16 52  1  0
 17 53  1  0
 17 54  1  0
 17 55  1  0
 18 19  2  0
 20 18  1  6
 20 21  1  0
 21 28  1  0
 21 22  1  0
 21 56  1  6
 22 23  1  0
 22 24  1  0
 22 57  1  1
 23 58  1  0
 24 29  1  0
 24 25  1  0
 24 59  1  6
 25 26  1  0
 25 60  1  0
 25 61  1  0
 26 27  1  0
 26 62  1  6
 27 28  1  0
 27 63  1  0
 27 64  1  0
 28 29  1  0
 28 65  1  6
 29 30  1  0
 29 31  1  0
 30 66  1  0
 30 67  1  0
 30 68  1  0
 31 69  1  0
 31 70  1  0
 31 71  1  0
M  END
>  <i_m_ct_stereo_status>  (132) 
1

>  <s_m_source_file>  (132) 
/var/tmp/pbs.5076255.sched01/tmpav68hifr/35m6z7vsub.sdf

>  <i_m_source_file_index>  (132) 
26

>  <i_lp_mmshare_version>  (132) 
48012

>  <i_f3d_flags>  (132) 
0

>  <s_epik_input>  (132) 
W0NIXVwxPVtDSF1cQyhbQ0gzXSkoW0NIM10pQyg9TylbQ0BdKFtDQEhdKFtDSDNdKVtDSDJdW0NIMl0yKShbQ0BIXShbQ0BdMihbQ0BAXTEzNClbT0hdKUMoTzMpKFtDSDNdKVtDSDNdKVtDQEhdNVtDQEhdNltDSDJdW0NAQEhdNFtDSDJdW0NAQEhdKFtDQEBIXTVbT0hdKUM2KFtDSDNdKVtDSDNd

>  <s_epik_cmdline>  (132) 
J2VwaWtfcHl0aG9uJywgJy1waHQnLCAnMi4wJywgJy1waCcsICc3LjAnLCAnLXRuJywgJzgnLCAnLW1hJywgJzIwMCcsICctaW1hZScsICc8aW5maWxlLm1hZT4nLCAnLW9tYWUnLCAnPG91dGZpbGUubWFlPic=

>  <r_lp_tautomer_probability>  (132) 
1

>  <r_epik_Ionization_Penalty>  (132) 
1.15316e-06

>  <r_epik_Ionization_Penalty_Charging>  (132) 
0

>  <r_epik_Ionization_Penalty_Neutral>  (132) 
1.15316e-06

>  <r_epik_State_Penalty>  (132) 
-0

>  <r_epik_Charging_Adjusted_Penalty>  (132) 
0

>  <i_epik_Tot_Q>  (132) 
0

>  <i_epik_Tot_abs_Q>  (132) 
0

>  <s_lp_Force_Field>  (132) 
OPLS3e

>  <r_lp_Energy>  (132) 
350.298

>  <b_lp_Chiralities_Consistent>  (132) 
1

>  <s_lp_Variant>  (132) 
50:0-1

>  <s_i_glide_gridfile>  (132) 
pfpi4k_grid

>  <i_i_glide_lignum>  (132) 
26

>  <i_i_glide_rotatable_bonds>  (132) 
2

>  <r_i_docking_score>  (132) 
-2.03623

>  <r_i_glide_ligand_efficiency>  (132) 
-0.0656847

>  <r_i_glide_ligand_efficiency_sa>  (132) 
-0.206341

>  <r_i_glide_ligand_efficiency_ln>  (132) 
-0.459231

>  <r_i_glide_gscore>  (132) 
-2.03623

>  <r_i_glide_lipo>  (132) 
-1.06252e-05

>  <r_i_glide_hbond>  (132) 
0

>  <r_i_glide_metal>  (132) 
-0

>  <r_i_glide_rewards>  (132) 
-0.48679

>  <r_i_glide_evdw>  (132) 
-21.257

>  <r_i_glide_ecoul>  (132) 
-3.22123

>  <r_i_glide_erotb>  (132) 
0

>  <r_i_glide_esite>  (132) 
-0.00339041

>  <r_i_glide_emodel>  (132) 
-27.701

>  <r_i_glide_energy>  (132) 
-24.4782

>  <r_i_glide_einternal>  (132) 
0.0273258

>  <r_i_glide_intrahb_reward>  (132) 
-0

>  <i_i_glide_confnum>  (132) 
2

>  <i_i_glide_posenum>  (132) 
29

>  <r_i_glide_eff_state_penalty>  (132) 
0

>  <ligand_id>  (132) 
50

>  <original_smiles>  (132) 
CC1CCC2(O)C3C(C)(C)OC24C=CC(C)(C)C(=O)C13C1C(O)C2CC4CC1C2(C)C

>  <smiles>  (132) 
[H]OC1([H])C2([H])C3([H])C([H])([H])C([H])(C([H])([H])C1([H])C3(C([H])([H])[H])C([H])([H])[H])C13OC(C([H])([H])[H])(C([H])([H])[H])C4([H])C1(O[H])C([H])([H])C([H])([H])C([H])(C([H])([H])[H])C24C(=O)C(C([H])([H])[H])(C([H])([H])[H])C([H])=C3[H]

$$$$
50:1:0
     RDKit          3D

 71 76  0  0  1  0  0  0  0  0999 V2000
    7.6305   -7.9589    4.2171 C   0  0  0  0  0  0  0  0  0  0  0  0
    6.2552   -8.6108    3.8411 C   0  0  2  0  0  0  0  0  0  0  0  0
    6.3958   -9.1426    2.4160 C   0  0  0  0  0  0  0  0  0  0  0  0
    5.0979   -9.1911    1.5903 C   0  0  0  0  0  0  0  0  0  0  0  0
    3.6535   -8.8679    2.2637 C   0  0  1  0  0  0  0  0  0  0  0  0
    3.0234   -9.6095    1.1770 O   0  0  0  0  0  0  0  0  0  0  0  0
    3.7929   -9.1736    3.6884 C   0  0  2  0  0  0  0  0  0  0  0  0
    2.2101   -9.5638    3.8013 C   0  0  0  0  0  0  0  0  0  0  0  0
    2.0080  -11.0532    3.3095 C   0  0  0  0  0  0  0  0  0  0  0  0
    1.3754   -9.6176    5.1225 C   0  0  0  0  0  0  0  0  0  0  0  0
    1.5879   -8.6249    2.8431 O   0  0  0  0  0  0  0  0  0  0  0  0
    2.5781   -7.6135    2.5706 C   0  0  1  0  0  0  0  0  0  0  0  0
    2.0873   -6.8274    3.8654 C   0  0  0  0  0  0  0  0  0  0  0  0
    2.3705   -6.6407    5.1807 C   0  0  0  0  0  0  0  0  0  0  0  0
    3.5116   -6.8499    6.1848 C   0  0  0  0  0  0  0  0  0  0  0  0
    3.8545   -5.4865    6.8615 C   0  0  0  0  0  0  0  0  0  0  0  0
    3.0664   -7.7272    7.3886 C   0  0  0  0  0  0  0  0  0  0  0  0
    4.7581   -7.4998    5.5622 C   0  0  0  0  0  0  0  0  0  0  0  0
    5.6644   -7.7965    6.3534 O   0  0  0  0  0  0  0  0  0  0  0  0
    4.8572   -7.8786    4.0370 C   0  0  1  0  0  0  0  0  0  0  0  0
    5.0437   -6.4530    3.1055 C   0  0  2  0  0  0  0  0  0  0  0  0
    4.4871   -5.0417    3.5538 C   0  0  1  0  0  0  0  0  0  0  0  0
    5.4201   -4.2576    4.2821 O   0  0  0  0  0  0  0  0  0  0  0  0
    4.0400   -4.3742    2.2534 C   0  0  2  0  0  0  0  0  0  0  0  0
    2.6233   -4.9564    1.8030 C   0  0  0  0  0  0  0  0  0  0  0  0
    2.5552   -6.5121    1.4289 C   0  0  1  0  0  0  0  0  0  0  0  0
    3.8153   -6.6617    0.5957 C   0  0  0  0  0  0  0  0  0  0  0  0
    5.0856   -6.2605    1.4616 C   0  0  1  0  0  0  0  0  0  0  0  0
    5.1831   -4.7117    1.2664 C   0  0  0  0  0  0  0  0  0  0  0  0
    4.9544   -4.0810   -0.1461 C   0  0  0  0  0  0  0  0  0  0  0  0
    6.6060   -4.1749    1.6204 C   0  0  0  0  0  0  0  0  0  0  0  0
    7.9697   -7.2462    3.4626 H   0  0  0  0  0  0  0  0  0  0  0  0
    8.4040   -8.7286    4.2658 H   0  0  0  0  0  0  0  0  0  0  0  0
    7.6630   -7.4269    5.1663 H   0  0  0  0  0  0  0  0  0  0  0  0
    6.2366   -9.4993    4.4864 H   0  0  0  0  0  0  0  0  0  0  0  0
    7.0864   -8.5060    1.8604 H   0  0  0  0  0  0  0  0  0  0  0  0
    6.8831  -10.1230    2.4456 H   0  0  0  0  0  0  0  0  0  0  0  0
    5.3277   -8.7467    0.6290 H   0  0  0  0  0  0  0  0  0  0  0  0
    5.1321  -10.2595    1.3420 H   0  0  0  0  0  0  0  0  0  0  0  0
    3.4486  -10.4536    1.0757 H   0  0  0  0  0  0  0  0  0  0  0  0
    4.2974  -10.1308    3.8903 H   0  0  0  0  0  0  0  0  0  0  0  0
    1.9997  -11.7732    4.1342 H   0  0  0  0  0  0  0  0  0  0  0  0
    2.8030  -11.4383    2.6677 H   0  0  0  0  0  0  0  0  0  0  0  0
    1.0666  -11.1739    2.7688 H   0  0  0  0  0  0  0  0  0  0  0  0
    1.9640   -9.9972    5.9526 H   0  0  0  0  0  0  0  0  0  0  0  0
    0.5323  -10.3180    5.0371 H   0  0  0  0  0  0  0  0  0  0  0  0
    0.8760   -8.6927    5.3929 H   0  0  0  0  0  0  0  0  0  0  0  0
    1.1999   -6.2778    3.5759 H   0  0  0  0  0  0  0  0  0  0  0  0
    1.8282   -5.8064    5.5020 H   0  0  0  0  0  0  0  0  0  0  0  0
    3.8435   -4.6340    6.1865 H   0  0  0  0  0  0  0  0  0  0  0  0
    4.8169   -5.4959    7.3869 H   0  0  0  0  0  0  0  0  0  0  0  0
    3.0960   -5.2488    7.6076 H   0  0  0  0  0  0  0  0  0  0  0  0
    3.0932   -8.7894    7.1978 H   0  0  0  0  0  0  0  0  0  0  0  0
    2.0726   -7.4681    7.7454 H   0  0  0  0  0  0  0  0  0  0  0  0
    3.7429   -7.5931    8.2347 H   0  0  0  0  0  0  0  0  0  0  0  0
    6.0915   -6.2833    3.3012 H   0  0  0  0  0  0  0  0  0  0  0  0
    3.6077   -4.9582    4.1719 H   0  0  0  0  0  0  0  0  0  0  0  0
    5.6250   -4.7081    5.0897 H   0  0  0  0  0  0  0  0  0  0  0  0
    3.9541   -3.2930    2.3877 H   0  0  0  0  0  0  0  0  0  0  0  0
    1.8733   -4.6573    2.5305 H   0  0  0  0  0  0  0  0  0  0  0  0
    2.3002   -4.4115    0.9255 H   0  0  0  0  0  0  0  0  0  0  0  0
    1.6813   -6.6963    0.8012 H   0  0  0  0  0  0  0  0  0  0  0  0
    3.8378   -7.6133    0.0950 H   0  0  0  0  0  0  0  0  0  0  0  0
    3.6848   -6.0906   -0.3190 H   0  0  0  0  0  0  0  0  0  0  0  0
    5.9767   -6.6971    1.0165 H   0  0  0  0  0  0  0  0  0  0  0  0
    5.5063   -4.6247   -0.9138 H   0  0  0  0  0  0  0  0  0  0  0  0
    5.2975   -3.0458   -0.1812 H   0  0  0  0  0  0  0  0  0  0  0  0
    3.9152   -4.0255   -0.4642 H   0  0  0  0  0  0  0  0  0  0  0  0
    7.2985   -4.3075    0.7881 H   0  0  0  0  0  0  0  0  0  0  0  0
    7.0902   -4.6513    2.4647 H   0  0  0  0  0  0  0  0  0  0  0  0
    6.5724   -3.1109    1.8513 H   0  0  0  0  0  0  0  0  0  0  0  0
  1  2  1  0
  1 32  1  0
  1 33  1  0
  1 34  1  0
  2 20  1  0
  2  3  1  0
  2 35  1  1
  3  4  1  0
  3 36  1  0
  3 37  1  0
  4  5  1  0
  4 38  1  0
  4 39  1  0
  5 12  1  0
  5  6  1  6
  5  7  1  0
  6 40  1  0
  7 20  1  0
  7  8  1  0
  7 41  1  6
  8  9  1  0
  8 10  1  0
  8 11  1  0
  9 42  1  0
  9 43  1  0
  9 44  1  0
 10 45  1  0
 10 46  1  0
 10 47  1  0
 12 11  1  6
 12 26  1  0
 12 13  1  0
 13 14  2  3
 13 48  1  0
 14 15  1  0
 14 49  1  0
 15 16  1  0
 15 17  1  0
 15 18  1  0
 16 50  1  0
 16 51  1  0
 16 52  1  0
 17 53  1  0
 17 54  1  0
 17 55  1  0
 18 19  2  0
 20 18  1  1
 20 21  1  0
 21 28  1  0
 21 22  1  0
 21 56  1  1
 22 23  1  0
 22 24  1  0
 22 57  1  1
 23 58  1  0
 24 29  1  0
 24 25  1  0
 24 59  1  1
 25 26  1  0
 25 60  1  0
 25 61  1  0
 26 27  1  0
 26 62  1  6
 27 28  1  0
 27 63  1  0
 27 64  1  0
 28 29  1  0
 28 65  1  6
 29 30  1  0
 29 31  1  0
 30 66  1  0
 30 67  1  0
 30 68  1  0
 31 69  1  0
 31 70  1  0
 31 71  1  0
M  END
>  <i_m_ct_stereo_status>  (133) 
1

>  <s_m_source_file>  (133) 
/var/tmp/pbs.5076255.sched01/tmpav68hifr/35m6z7vsub.sdf

>  <i_m_source_file_index>  (133) 
27

>  <i_lp_mmshare_version>  (133) 
48012

>  <i_f3d_flags>  (133) 
2

>  <s_epik_input>  (133) 
W0NIXVwxPVtDSF1cQyhbQ0gzXSkoW0NIM10pQyg9TylbQ0BdKFtDQEhdKFtDSDNdKVtDSDJdW0NIMl0yKShbQ0BIXShbQ0BdMihbQ0BAXTEzNClbT0hdKUMoTzMpKFtDSDNdKVtDSDNdKVtDQEhdNVtDQEhdNltDSDJdW0NAQEhdNFtDSDJdW0NAQEhdKFtDQEBIXTVbT0hdKUM2KFtDSDNdKVtDSDNd

>  <s_epik_cmdline>  (133) 
J2VwaWtfcHl0aG9uJywgJy1waHQnLCAnMi4wJywgJy1waCcsICc3LjAnLCAnLXRuJywgJzgnLCAnLW1hJywgJzIwMCcsICctaW1hZScsICc8aW5maWxlLm1hZT4nLCAnLW9tYWUnLCAnPG91dGZpbGUubWFlPic=

>  <r_lp_tautomer_probability>  (133) 
1

>  <r_epik_Ionization_Penalty>  (133) 
1.15316e-06

>  <r_epik_Ionization_Penalty_Charging>  (133) 
0

>  <r_epik_Ionization_Penalty_Neutral>  (133) 
1.15316e-06

>  <r_epik_State_Penalty>  (133) 
-0

>  <r_epik_Charging_Adjusted_Penalty>  (133) 
0

>  <i_epik_Tot_Q>  (133) 
0

>  <i_epik_Tot_abs_Q>  (133) 
0

>  <s_lp_Force_Field>  (133) 
OPLS3e

>  <r_lp_Energy>  (133) 
388.436

>  <b_lp_Chiralities_Consistent>  (133) 
0

>  <s_lp_Variant>  (133) 
50:0-2

>  <s_i_glide_gridfile>  (133) 
pfpi4k_grid

>  <i_i_glide_lignum>  (133) 
27

>  <i_i_glide_rotatable_bonds>  (133) 
2

>  <r_i_docking_score>  (133) 
-2.47481

>  <r_i_glide_ligand_efficiency>  (133) 
-0.0798325

>  <r_i_glide_ligand_efficiency_sa>  (133) 
-0.250784

>  <r_i_glide_ligand_efficiency_ln>  (133) 
-0.558145

>  <r_i_glide_gscore>  (133) 
-2.47481

>  <r_i_glide_lipo>  (133) 
-0.461961

>  <r_i_glide_hbond>  (133) 
0

>  <r_i_glide_metal>  (133) 
-0

>  <r_i_glide_rewards>  (133) 
-0.48679

>  <r_i_glide_evdw>  (133) 
-23.1516

>  <r_i_glide_ecoul>  (133) 
-2.45649

>  <r_i_glide_erotb>  (133) 
0

>  <r_i_glide_esite>  (133) 
0

>  <r_i_glide_emodel>  (133) 
-25.8596

>  <r_i_glide_energy>  (133) 
-25.6081

>  <r_i_glide_einternal>  (133) 
0.331062

>  <r_i_glide_intrahb_reward>  (133) 
-0

>  <i_i_glide_confnum>  (133) 
1

>  <i_i_glide_posenum>  (133) 
39

>  <r_i_glide_eff_state_penalty>  (133) 
0

>  <ligand_id>  (133) 
50

>  <original_smiles>  (133) 
CC1CCC2(O)C3C(C)(C)OC24C=CC(C)(C)C(=O)C13C1C(O)C2CC4CC1C2(C)C

>  <smiles>  (133) 
[H]OC1([H])C2([H])C3([H])C([H])([H])C([H])(C([H])([H])C1([H])C3(C([H])([H])[H])C([H])([H])[H])C13OC(C([H])([H])[H])(C([H])([H])[H])C4([H])C1(O[H])C([H])([H])C([H])([H])C([H])(C([H])([H])[H])C24C(=O)C(C([H])([H])[H])(C([H])([H])[H])C([H])=C3[H]

$$$$
50:1:1
     RDKit          3D

 71 76  0  0  1  0  0  0  0  0999 V2000
    7.2660   -5.8631    3.7926 C   0  0  0  0  0  0  0  0  0  0  0  0
    5.7443   -6.1824    3.6117 C   0  0  2  0  0  0  0  0  0  0  0  0
    5.6576   -7.1837    2.4654 C   0  0  0  0  0  0  0  0  0  0  0  0
    4.3478   -7.1437    1.6525 C   0  0  0  0  0  0  0  0  0  0  0  0
    3.0961   -6.2248    2.1103 C   0  0  1  0  0  0  0  0  0  0  0  0
    2.2068   -7.0817    1.3410 O   0  0  0  0  0  0  0  0  0  0  0  0
    3.2226   -6.0451    3.5526 C   0  0  2  0  0  0  0  0  0  0  0  0
    1.6066   -5.9142    3.7323 C   0  0  0  0  0  0  0  0  0  0  0  0
    0.9739   -7.3596    3.7824 C   0  0  0  0  0  0  0  0  0  0  0  0
    0.8761   -5.2738    4.9491 C   0  0  0  0  0  0  0  0  0  0  0  0
    1.2164   -5.2372    2.4752 O   0  0  0  0  0  0  0  0  0  0  0  0
    2.4261   -4.7121    1.9139 C   0  0  1  0  0  0  0  0  0  0  0  0
    2.2441   -3.4262    2.8588 C   0  0  0  0  0  0  0  0  0  0  0  0
    2.6749   -2.8697    3.9890 C   0  0  0  0  0  0  0  0  0  0  0  0
    3.7435   -3.0310    5.0816 C   0  0  0  0  0  0  0  0  0  0  0  0
    4.4875   -1.6785    5.2464 C   0  0  0  0  0  0  0  0  0  0  0  0
    3.1488   -3.2762    6.4903 C   0  0  0  0  0  0  0  0  0  0  0  0
    4.7201   -4.1809    4.7708 C   0  0  0  0  0  0  0  0  0  0  0  0
    5.5438   -4.4172    5.6439 O   0  0  0  0  0  0  0  0  0  0  0  0
    4.6209   -5.0664    3.4804 C   0  0  1  0  0  0  0  0  0  0  0  0
    5.1498   -4.1597    2.1166 C   0  0  2  0  0  0  0  0  0  0  0  0
    5.0316   -2.5899    2.0013 C   0  0  1  0  0  0  0  0  0  0  0  0
    6.1678   -1.8817    2.4186 O   0  0  0  0  0  0  0  0  0  0  0  0
    4.7063   -2.3089    0.5381 C   0  0  2  0  0  0  0  0  0  0  0  0
    3.1654   -2.5975    0.2752 C   0  0  0  0  0  0  0  0  0  0  0  0
    2.6486   -4.0980    0.4725 C   0  0  1  0  0  0  0  0  0  0  0  0
    3.7658   -4.8760   -0.1875 C   0  0  0  0  0  0  0  0  0  0  0  0
    5.1484   -4.5666    0.5115 C   0  0  1  0  0  0  0  0  0  0  0  0
    5.6573   -3.2790   -0.2088 C   0  0  0  0  0  0  0  0  0  0  0  0
    5.5217   -3.1353   -1.7635 C   0  0  0  0  0  0  0  0  0  0  0  0
    7.1861   -3.0624   -0.0054 C   0  0  0  0  0  0  0  0  0  0  0  0
    7.7510   -5.5687    2.8554 H   0  0  0  0  0  0  0  0  0  0  0  0
    7.7977   -6.7534    4.1285 H   0  0  0  0  0  0  0  0  0  0  0  0
    7.4993   -5.0860    4.5173 H   0  0  0  0  0  0  0  0  0  0  0  0
    5.5199   -6.7500    4.5246 H   0  0  0  0  0  0  0  0  0  0  0  0
    6.4635   -7.0108    1.7494 H   0  0  0  0  0  0  0  0  0  0  0  0
    5.8409   -8.1859    2.8501 H   0  0  0  0  0  0  0  0  0  0  0  0
    4.6197   -7.1665    0.6140 H   0  0  0  0  0  0  0  0  0  0  0  0
    4.0589   -8.2022    1.7869 H   0  0  0  0  0  0  0  0  0  0  0  0
    2.3692   -7.9965    1.5626 H   0  0  0  0  0  0  0  0  0  0  0  0
    3.4602   -6.9789    4.1003 H   0  0  0  0  0  0  0  0  0  0  0  0
    0.8149   -7.7286    4.8079 H   0  0  0  0  0  0  0  0  0  0  0  0
    1.5888   -8.1560    3.3516 H   0  0  0  0  0  0  0  0  0  0  0  0
    0.0071   -7.4027    3.2797 H   0  0  0  0  0  0  0  0  0  0  0  0
    1.3821   -5.4919    5.8929 H   0  0  0  0  0  0  0  0  0  0  0  0
   -0.1286   -5.7028    5.0816 H   0  0  0  0  0  0  0  0  0  0  0  0
    0.6652   -4.2145    4.8606 H   0  0  0  0  0  0  0  0  0  0  0  0
    1.5339   -2.7876    2.3473 H   0  0  0  0  0  0  0  0  0  0  0  0
    2.3736   -1.8414    3.9865 H   0  0  0  0  0  0  0  0  0  0  0  0
    4.6828   -1.1356    4.3161 H   0  0  0  0  0  0  0  0  0  0  0  0
    5.4436   -1.7644    5.7729 H   0  0  0  0  0  0  0  0  0  0  0  0
    3.8777   -0.9762    5.8310 H   0  0  0  0  0  0  0  0  0  0  0  0
    2.8754   -4.2996    6.6822 H   0  0  0  0  0  0  0  0  0  0  0  0
    2.2914   -2.6326    6.6944 H   0  0  0  0  0  0  0  0  0  0  0  0
    3.8926   -3.0445    7.2566 H   0  0  0  0  0  0  0  0  0  0  0  0
    6.2162   -4.2263    2.2890 H   0  0  0  0  0  0  0  0  0  0  0  0
    4.2577   -2.0523    2.5115 H   0  0  0  0  0  0  0  0  0  0  0  0
    6.0148   -0.9383    2.2849 H   0  0  0  0  0  0  0  0  0  0  0  0
    4.9219   -1.2727    0.2776 H   0  0  0  0  0  0  0  0  0  0  0  0
    2.5628   -1.8702    0.8161 H   0  0  0  0  0  0  0  0  0  0  0  0
    2.9410   -2.3287   -0.7523 H   0  0  0  0  0  0  0  0  0  0  0  0
    1.7463   -4.2512   -0.1181 H   0  0  0  0  0  0  0  0  0  0  0  0
    3.4788   -5.8979   -0.3297 H   0  0  0  0  0  0  0  0  0  0  0  0
    3.7511   -4.6299   -1.2347 H   0  0  0  0  0  0  0  0  0  0  0  0
    5.8510   -5.3641    0.2873 H   0  0  0  0  0  0  0  0  0  0  0  0
    5.8513   -4.0422   -2.2703 H   0  0  0  0  0  0  0  0  0  0  0  0
    6.1340   -2.3165   -2.1421 H   0  0  0  0  0  0  0  0  0  0  0  0
    4.5211   -2.9054   -2.1196 H   0  0  0  0  0  0  0  0  0  0  0  0
    7.7689   -3.6651   -0.7048 H   0  0  0  0  0  0  0  0  0  0  0  0
    7.5701   -3.3381    0.9774 H   0  0  0  0  0  0  0  0  0  0  0  0
    7.4646   -2.0196   -0.1650 H   0  0  0  0  0  0  0  0  0  0  0  0
  1  2  1  0
  1 32  1  0
  1 33  1  0
  1 34  1  0
  2 20  1  0
  2  3  1  0
  2 35  1  1
  3  4  1  0
  3 36  1  0
  3 37  1  0
  4  5  1  0
  4 38  1  0
  4 39  1  0
  5 12  1  0
  5  6  1  1
  5  7  1  0
  6 40  1  0
  7 20  1  0
  7  8  1  0
  7 41  1  1
  8  9  1  0
  8 10  1  0
  8 11  1  0
  9 42  1  0
  9 43  1  0
  9 44  1  0
 10 45  1  0
 10 46  1  0
 10 47  1  0
 12 11  1  6
 12 26  1  0
 12 13  1  0
 13 14  2  3
 13 48  1  0
 14 15  1  0
 14 49  1  0
 15 16  1  0
 15 17  1  0
 15 18  1  0
 16 50  1  0
 16 51  1  0
 16 52  1  0
 17 53  1  0
 17 54  1  0
 17 55  1  0
 18 19  2  0
 20 18  1  1
 20 21  1  0
 21 28  1  0
 21 22  1  0
 21 56  1  1
 22 23  1  0
 22 24  1  0
 22 57  1  1
 23 58  1  0
 24 29  1  0
 24 25  1  0
 24 59  1  6
 25 26  1  0
 25 60  1  0
 25 61  1  0
 26 27  1  0
 26 62  1  6
 27 28  1  0
 27 63  1  0
 27 64  1  0
 28 29  1  0
 28 65  1  1
 29 30  1  0
 29 31  1  0
 30 66  1  0
 30 67  1  0
 30 68  1  0
 31 69  1  0
 31 70  1  0
 31 71  1  0
M  END
>  <i_m_ct_stereo_status>  (134) 
1

>  <s_m_source_file>  (134) 
/var/tmp/pbs.5076255.sched01/tmpav68hifr/35m6z7vsub.sdf

>  <i_m_source_file_index>  (134) 
27

>  <i_lp_mmshare_version>  (134) 
48012

>  <i_f3d_flags>  (134) 
2

>  <s_epik_input>  (134) 
W0NIXVwxPVtDSF1cQyhbQ0gzXSkoW0NIM10pQyg9TylbQ0BdKFtDQEhdKFtDSDNdKVtDSDJdW0NIMl0yKShbQ0BIXShbQ0BdMihbQ0BAXTEzNClbT0hdKUMoTzMpKFtDSDNdKVtDSDNdKVtDQEhdNVtDQEhdNltDSDJdW0NAQEhdNFtDSDJdW0NAQEhdKFtDQEBIXTVbT0hdKUM2KFtDSDNdKVtDSDNd

>  <s_epik_cmdline>  (134) 
J2VwaWtfcHl0aG9uJywgJy1waHQnLCAnMi4wJywgJy1waCcsICc3LjAnLCAnLXRuJywgJzgnLCAnLW1hJywgJzIwMCcsICctaW1hZScsICc8aW5maWxlLm1hZT4nLCAnLW9tYWUnLCAnPG91dGZpbGUubWFlPic=

>  <r_lp_tautomer_probability>  (134) 
1

>  <r_epik_Ionization_Penalty>  (134) 
1.15316e-06

>  <r_epik_Ionization_Penalty_Charging>  (134) 
0

>  <r_epik_Ionization_Penalty_Neutral>  (134) 
1.15316e-06

>  <r_epik_State_Penalty>  (134) 
-0

>  <r_epik_Charging_Adjusted_Penalty>  (134) 
0

>  <i_epik_Tot_Q>  (134) 
0

>  <i_epik_Tot_abs_Q>  (134) 
0

>  <s_lp_Force_Field>  (134) 
OPLS3e

>  <r_lp_Energy>  (134) 
388.436

>  <b_lp_Chiralities_Consistent>  (134) 
0

>  <s_lp_Variant>  (134) 
50:0-2

>  <s_i_glide_gridfile>  (134) 
pfpi4k_grid

>  <i_i_glide_lignum>  (134) 
27

>  <i_i_glide_rotatable_bonds>  (134) 
2

>  <r_i_docking_score>  (134) 
-2.2567

>  <r_i_glide_ligand_efficiency>  (134) 
-0.0727966

>  <r_i_glide_ligand_efficiency_sa>  (134) 
-0.228682

>  <r_i_glide_ligand_efficiency_ln>  (134) 
-0.508954

>  <r_i_glide_gscore>  (134) 
-2.2567

>  <r_i_glide_lipo>  (134) 
-0.522919

>  <r_i_glide_hbond>  (134) 
-0.0250095

>  <r_i_glide_metal>  (134) 
-0

>  <r_i_glide_rewards>  (134) 
-0.491417

>  <r_i_glide_evdw>  (134) 
-18.7977

>  <r_i_glide_ecoul>  (134) 
-2.29755

>  <r_i_glide_erotb>  (134) 
0

>  <r_i_glide_esite>  (134) 
0

>  <r_i_glide_emodel>  (134) 
-20.7214

>  <r_i_glide_energy>  (134) 
-21.0953

>  <r_i_glide_einternal>  (134) 
0.335656

>  <r_i_glide_intrahb_reward>  (134) 
-0

>  <i_i_glide_confnum>  (134) 
2

>  <i_i_glide_posenum>  (134) 
31

>  <r_i_glide_eff_state_penalty>  (134) 
0

>  <ligand_id>  (134) 
50

>  <original_smiles>  (134) 
CC1CCC2(O)C3C(C)(C)OC24C=CC(C)(C)C(=O)C13C1C(O)C2CC4CC1C2(C)C

>  <smiles>  (134) 
[H]OC1([H])C2([H])C3([H])C([H])([H])C([H])(C([H])([H])C1([H])C3(C([H])([H])[H])C([H])([H])[H])C13OC(C([H])([H])[H])(C([H])([H])[H])C4([H])C1(O[H])C([H])([H])C([H])([H])C([H])(C([H])([H])[H])C24C(=O)C(C([H])([H])[H])(C([H])([H])[H])C([H])=C3[H]

$$$$
50:1:2
     RDKit          3D

 71 76  0  0  1  0  0  0  0  0999 V2000
    7.9340   -7.5477    3.3434 C   0  0  0  0  0  0  0  0  0  0  0  0
    6.5985   -8.3611    3.2268 C   0  0  2  0  0  0  0  0  0  0  0  0
    6.4012   -8.6401    1.7408 C   0  0  0  0  0  0  0  0  0  0  0  0
    4.9357   -8.7742    1.2822 C   0  0  0  0  0  0  0  0  0  0  0  0
    3.7143   -8.7963    2.3436 C   0  0  1  0  0  0  0  0  0  0  0  0
    2.9024   -9.4759    1.3497 O   0  0  0  0  0  0  0  0  0  0  0  0
    4.2721   -9.2817    3.6029 C   0  0  2  0  0  0  0  0  0  0  0  0
    2.8469   -9.9349    4.0472 C   0  0  0  0  0  0  0  0  0  0  0  0
    2.6949  -11.3501    3.3631 C   0  0  0  0  0  0  0  0  0  0  0  0
    2.4353  -10.3054    5.5015 C   0  0  0  0  0  0  0  0  0  0  0  0
    1.8754   -8.9864    3.4576 O   0  0  0  0  0  0  0  0  0  0  0  0
    2.6265   -7.8080    3.1282 C   0  0  1  0  0  0  0  0  0  0  0  0
    2.4387   -7.3146    4.6449 C   0  0  0  0  0  0  0  0  0  0  0  0
    3.0508   -7.2299    5.8237 C   0  0  0  0  0  0  0  0  0  0  0  0
    4.4332   -7.4303    6.4758 C   0  0  0  0  0  0  0  0  0  0  0  0
    4.7878   -6.1455    7.2684 C   0  0  0  0  0  0  0  0  0  0  0  0
    4.4508   -8.5295    7.5671 C   0  0  0  0  0  0  0  0  0  0  0  0
    5.5223   -7.7720    5.4377 C   0  0  0  0  0  0  0  0  0  0  0  0
    6.6276   -8.0243    5.8993 O   0  0  0  0  0  0  0  0  0  0  0  0
    5.2311   -7.9015    3.9013 C   0  0  1  0  0  0  0  0  0  0  0  0
    4.9856   -6.3442    3.2223 C   0  0  2  0  0  0  0  0  0  0  0  0
    4.4285   -5.1096    4.0349 C   0  0  1  0  0  0  0  0  0  0  0  0
    5.4281   -4.3100    4.6275 O   0  0  0  0  0  0  0  0  0  0  0  0
    3.5417   -4.3448    3.0510 C   0  0  2  0  0  0  0  0  0  0  0  0
    2.1438   -5.0933    2.8907 C   0  0  0  0  0  0  0  0  0  0  0  0
    2.1491   -6.5688    2.2668 C   0  0  1  0  0  0  0  0  0  0  0  0
    3.1315   -6.3814    1.1336 C   0  0  0  0  0  0  0  0  0  0  0  0
    4.5342   -5.9059    1.6877 C   0  0  1  0  0  0  0  0  0  0  0  0
    4.3968   -4.3535    1.7605 C   0  0  0  0  0  0  0  0  0  0  0  0
    3.7048   -3.5720    0.5946 C   0  0  0  0  0  0  0  0  0  0  0  0
    5.7789   -3.6429    1.8343 C   0  0  0  0  0  0  0  0  0  0  0  0
    7.9646   -6.6872    2.6676 H   0  0  0  0  0  0  0  0  0  0  0  0
    8.7734   -8.1770    3.0481 H   0  0  0  0  0  0  0  0  0  0  0  0
    8.1706   -7.1630    4.3320 H   0  0  0  0  0  0  0  0  0  0  0  0
    6.8655   -9.3238    3.6841 H   0  0  0  0  0  0  0  0  0  0  0  0
    6.8345   -7.8306    1.1456 H   0  0  0  0  0  0  0  0  0  0  0  0
    6.9681   -9.5225    1.4666 H   0  0  0  0  0  0  0  0  0  0  0  0
    4.8220   -8.1983    0.3845 H   0  0  0  0  0  0  0  0  0  0  0  0
    5.0145   -9.7855    0.8431 H   0  0  0  0  0  0  0  0  0  0  0  0
    3.2874  -10.3274    1.1430 H   0  0  0  0  0  0  0  0  0  0  0  0
    4.9281  -10.1656    3.4901 H   0  0  0  0  0  0  0  0  0  0  0  0
    3.0018  -12.1786    4.0213 H   0  0  0  0  0  0  0  0  0  0  0  0
    3.3239  -11.5120    2.4846 H   0  0  0  0  0  0  0  0  0  0  0  0
    1.6666  -11.5538    3.0646 H   0  0  0  0  0  0  0  0  0  0  0  0
    3.2701  -10.7128    6.0743 H   0  0  0  0  0  0  0  0  0  0  0  0
    1.7019  -11.1200    5.5050 H   0  0  0  0  0  0  0  0  0  0  0  0
    1.9235   -9.5301    6.0592 H   0  0  0  0  0  0  0  0  0  0  0  0
    1.4438   -6.8948    4.6856 H   0  0  0  0  0  0  0  0  0  0  0  0
    2.4825   -6.5750    6.4612 H   0  0  0  0  0  0  0  0  0  0  0  0
    4.4911   -5.2066    6.7923 H   0  0  0  0  0  0  0  0  0  0  0  0
    5.8530   -6.0578    7.5189 H   0  0  0  0  0  0  0  0  0  0  0  0
    4.2451   -6.1300    8.2254 H   0  0  0  0  0  0  0  0  0  0  0  0
    4.5538   -9.5308    7.1875 H   0  0  0  0  0  0  0  0  0  0  0  0
    3.5775   -8.4828    8.2136 H   0  0  0  0  0  0  0  0  0  0  0  0
    5.3136   -8.3973    8.2142 H   0  0  0  0  0  0  0  0  0  0  0  0
    6.0179   -6.0323    3.1734 H   0  0  0  0  0  0  0  0  0  0  0  0
    3.7569   -5.2466    4.8622 H   0  0  0  0  0  0  0  0  0  0  0  0
    4.9965   -3.5538    5.0410 H   0  0  0  0  0  0  0  0  0  0  0  0
    3.3657   -3.3263    3.3949 H   0  0  0  0  0  0  0  0  0  0  0  0
    1.5888   -5.0293    3.8239 H   0  0  0  0  0  0  0  0  0  0  0  0
    1.5206   -4.4882    2.2377 H   0  0  0  0  0  0  0  0  0  0  0  0
    1.1626   -6.8032    1.8656 H   0  0  0  0  0  0  0  0  0  0  0  0
    3.1282   -7.2428    0.4904 H   0  0  0  0  0  0  0  0  0  0  0  0
    2.6844   -5.7193    0.4087 H   0  0  0  0  0  0  0  0  0  0  0  0
    5.3113   -6.1251    0.9604 H   0  0  0  0  0  0  0  0  0  0  0  0
    4.0842   -3.9001   -0.3727 H   0  0  0  0  0  0  0  0  0  0  0  0
    3.8976   -2.5013    0.6672 H   0  0  0  0  0  0  0  0  0  0  0  0
    2.6196   -3.6439    0.5702 H   0  0  0  0  0  0  0  0  0  0  0  0
    6.2273   -3.5397    0.8457 H   0  0  0  0  0  0  0  0  0  0  0  0
    6.5368   -4.1602    2.4240 H   0  0  0  0  0  0  0  0  0  0  0  0
    5.6871   -2.6382    2.2547 H   0  0  0  0  0  0  0  0  0  0  0  0
  1  2  1  0
  1 32  1  0
  1 33  1  0
  1 34  1  0
  2 20  1  0
  2  3  1  0
  2 35  1  1
  3  4  1  0
  3 36  1  0
  3 37  1  0
  4  5  1  0
  4 38  1  0
  4 39  1  0
  5 12  1  0
  5  6  1  6
  5  7  1  0
  6 40  1  0
  7 20  1  0
  7  8  1  0
  7 41  1  6
  8  9  1  0
  8 10  1  0
  8 11  1  0
  9 42  1  0
  9 43  1  0
  9 44  1  0
 10 45  1  0
 10 46  1  0
 10 47  1  0
 12 11  1  1
 12 26  1  0
 12 13  1  0
 13 14  2  3
 13 48  1  0
 14 15  1  0
 14 49  1  0
 15 16  1  0
 15 17  1  0
 15 18  1  0
 16 50  1  0
 16 51  1  0
 16 52  1  0
 17 53  1  0
 17 54  1  0
 17 55  1  0
 18 19  2  0
 20 18  1  1
 20 21  1  0
 21 28  1  0
 21 22  1  0
 21 56  1  6
 22 23  1  0
 22 24  1  0
 22 57  1  1
 23 58  1  0
 24 29  1  0
 24 25  1  0
 24 59  1  1
 25 26  1  0
 25 60  1  0
 25 61  1  0
 26 27  1  0
 26 62  1  6
 27 28  1  0
 27 63  1  0
 27 64  1  0
 28 29  1  0
 28 65  1  6
 29 30  1  0
 29 31  1  0
 30 66  1  0
 30 67  1  0
 30 68  1  0
 31 69  1  0
 31 70  1  0
 31 71  1  0
M  END
>  <i_m_ct_stereo_status>  (135) 
1

>  <s_m_source_file>  (135) 
/var/tmp/pbs.5076255.sched01/tmpav68hifr/35m6z7vsub.sdf

>  <i_m_source_file_index>  (135) 
27

>  <i_lp_mmshare_version>  (135) 
48012

>  <i_f3d_flags>  (135) 
2

>  <s_epik_input>  (135) 
W0NIXVwxPVtDSF1cQyhbQ0gzXSkoW0NIM10pQyg9TylbQ0BdKFtDQEhdKFtDSDNdKVtDSDJdW0NIMl0yKShbQ0BIXShbQ0BdMihbQ0BAXTEzNClbT0hdKUMoTzMpKFtDSDNdKVtDSDNdKVtDQEhdNVtDQEhdNltDSDJdW0NAQEhdNFtDSDJdW0NAQEhdKFtDQEBIXTVbT0hdKUM2KFtDSDNdKVtDSDNd

>  <s_epik_cmdline>  (135) 
J2VwaWtfcHl0aG9uJywgJy1waHQnLCAnMi4wJywgJy1waCcsICc3LjAnLCAnLXRuJywgJzgnLCAnLW1hJywgJzIwMCcsICctaW1hZScsICc8aW5maWxlLm1hZT4nLCAnLW9tYWUnLCAnPG91dGZpbGUubWFlPic=

>  <r_lp_tautomer_probability>  (135) 
1

>  <r_epik_Ionization_Penalty>  (135) 
1.15316e-06

>  <r_epik_Ionization_Penalty_Charging>  (135) 
0

>  <r_epik_Ionization_Penalty_Neutral>  (135) 
1.15316e-06

>  <r_epik_State_Penalty>  (135) 
-0

>  <r_epik_Charging_Adjusted_Penalty>  (135) 
0

>  <i_epik_Tot_Q>  (135) 
0

>  <i_epik_Tot_abs_Q>  (135) 
0

>  <s_lp_Force_Field>  (135) 
OPLS3e

>  <r_lp_Energy>  (135) 
388.436

>  <b_lp_Chiralities_Consistent>  (135) 
0

>  <s_lp_Variant>  (135) 
50:0-2

>  <s_i_glide_gridfile>  (135) 
pfpi4k_grid

>  <i_i_glide_lignum>  (135) 
27

>  <i_i_glide_rotatable_bonds>  (135) 
2

>  <r_i_docking_score>  (135) 
-2.15575

>  <r_i_glide_ligand_efficiency>  (135) 
-0.0695404

>  <r_i_glide_ligand_efficiency_sa>  (135) 
-0.218453

>  <r_i_glide_ligand_efficiency_ln>  (135) 
-0.486188

>  <r_i_glide_gscore>  (135) 
-2.15575

>  <r_i_glide_lipo>  (135) 
-0.24781

>  <r_i_glide_hbond>  (135) 
0

>  <r_i_glide_metal>  (135) 
-0

>  <r_i_glide_rewards>  (135) 
-0.48679

>  <r_i_glide_evdw>  (135) 
-23.5062

>  <r_i_glide_ecoul>  (135) 
-1.63894

>  <r_i_glide_erotb>  (135) 
0

>  <r_i_glide_esite>  (135) 
0

>  <r_i_glide_emodel>  (135) 
-25.7743

>  <r_i_glide_energy>  (135) 
-25.1451

>  <r_i_glide_einternal>  (135) 
0.451806

>  <r_i_glide_intrahb_reward>  (135) 
-0

>  <i_i_glide_confnum>  (135) 
2

>  <i_i_glide_posenum>  (135) 
11

>  <r_i_glide_eff_state_penalty>  (135) 
0

>  <ligand_id>  (135) 
50

>  <original_smiles>  (135) 
CC1CCC2(O)C3C(C)(C)OC24C=CC(C)(C)C(=O)C13C1C(O)C2CC4CC1C2(C)C

>  <smiles>  (135) 
[H]OC1([H])C2([H])C3([H])C([H])([H])C([H])(C([H])([H])C1([H])C3(C([H])([H])[H])C([H])([H])[H])C13OC(C([H])([H])[H])(C([H])([H])[H])C4([H])C1(O[H])C([H])([H])C([H])([H])C([H])(C([H])([H])[H])C24C(=O)C(C([H])([H])[H])(C([H])([H])[H])C([H])=C3[H]

$$$$
51:0:0
     RDKit          3D

 69 77  0  0  1  0  0  0  0  0999 V2000
    0.9173    0.1081    6.8217 C   0  0  0  0  0  0  0  0  0  0  0  0
    1.2631    0.0690    5.3122 C   0  0  1  0  0  0  0  0  0  0  0  0
    0.0623    0.4212    4.5959 O   0  0  0  0  0  0  0  0  0  0  0  0
   -0.2987    1.7879    4.6756 C   0  0  2  0  0  0  0  0  0  0  0  0
   -1.4869    2.2213    3.8481 C   0  0  0  0  0  0  0  0  0  0  0  0
   -1.1431    3.6930    3.6726 C   0  0  0  0  0  0  0  0  0  0  0  0
   -1.9704    4.5527    3.3894 O   0  0  0  0  0  0  0  0  0  0  0  0
    0.1692    3.8681    3.9131 O   0  0  0  0  0  0  0  0  0  0  0  0
    0.8134    2.6207    4.0717 C   0  0  1  0  0  0  0  0  0  0  0  0
    2.0293    2.4999    4.9726 C   0  0  0  0  0  0  0  0  0  0  0  0
    2.4511    1.0287    4.9615 C   0  0  1  0  0  0  0  0  0  0  0  0
    3.6770    0.7369    5.6353 O   0  0  0  0  0  0  0  0  0  0  0  0
    3.7527    0.7166    4.2029 C   0  0  1  0  0  0  0  0  0  0  0  0
    4.2875   -0.5802    3.5964 C   0  0  1  0  0  0  0  0  0  0  0  0
    4.2698   -1.7369    4.4402 O   0  0  0  0  0  0  0  0  0  0  0  0
    3.4560   -1.7957    3.2638 C   0  0  2  0  0  0  0  0  0  0  0  0
    3.9387   -2.7998    2.2174 C   0  0  0  0  0  0  0  0  0  0  0  0
    4.1292   -4.2486    2.7329 C   0  0  0  0  0  0  0  0  0  0  0  0
    2.8584   -5.0615    3.0883 C   0  0  0  0  0  0  0  0  0  0  0  0
    2.0081   -4.3695    4.1902 C   0  0  0  0  0  0  0  0  0  0  0  0
    1.2441   -3.1244    3.7457 C   0  0  1  0  0  0  0  0  0  0  0  0
    0.3946   -2.4112    4.8056 C   0  0  0  0  0  0  0  0  0  0  0  0
    1.5238   -1.3858    4.9115 C   0  0  1  0  0  0  0  0  0  0  0  0
    1.9533   -1.7788    3.4799 C   0  0  1  0  0  0  0  0  0  0  0  0
    1.3264   -0.9623    2.3335 C   0  0  0  0  0  0  0  0  0  0  0  0
    2.1211   -5.3045    1.8868 O   0  0  0  0  0  0  0  0  0  0  0  0
    0.9164   -6.1641    2.2014 O   0  0  0  0  0  0  0  0  0  0  0  0
    1.3474   -7.3908    2.7969 C   0  0  0  0  0  0  0  0  0  0  0  0
    2.1634   -8.2576    1.8121 C   0  0  0  0  0  0  0  0  0  0  0  0
    2.4800   -9.6425    2.4202 C   0  0  0  0  0  0  0  0  0  0  0  0
    1.2023  -10.3820    2.8584 C   0  0  0  0  0  0  0  0  0  0  0  0
    0.3632   -9.5239    3.8179 C   0  0  0  0  0  0  0  0  0  0  0  0
    0.0612   -8.1414    3.2108 C   0  0  0  0  0  0  0  0  0  0  0  0
    2.1255   -7.1464    3.9675 O   0  0  0  0  0  0  0  0  0  0  0  0
    3.3213   -6.3035    3.6075 O   0  0  0  0  0  0  0  0  0  0  0  0
    1.6821   -0.3791    7.4262 H   0  0  0  0  0  0  0  0  0  0  0  0
   -0.0210   -0.4144    7.0064 H   0  0  0  0  0  0  0  0  0  0  0  0
    0.8054    1.1184    7.2145 H   0  0  0  0  0  0  0  0  0  0  0  0
   -0.4837    2.0783    5.7115 H   0  0  0  0  0  0  0  0  0  0  0  0
   -1.5055    1.7386    2.8710 H   0  0  0  0  0  0  0  0  0  0  0  0
   -2.4393    2.0858    4.3585 H   0  0  0  0  0  0  0  0  0  0  0  0
    1.0632    2.2470    3.0755 H   0  0  0  0  0  0  0  0  0  0  0  0
    2.8286    3.1262    4.5805 H   0  0  0  0  0  0  0  0  0  0  0  0
    1.8257    2.8381    5.9863 H   0  0  0  0  0  0  0  0  0  0  0  0
    4.2029    1.5970    3.7534 H   0  0  0  0  0  0  0  0  0  0  0  0
    5.2363   -0.4772    3.0707 H   0  0  0  0  0  0  0  0  0  0  0  0
    3.2911   -2.7869    1.3428 H   0  0  0  0  0  0  0  0  0  0  0  0
    4.9077   -2.4475    1.8635 H   0  0  0  0  0  0  0  0  0  0  0  0
    4.6782   -4.7988    1.9689 H   0  0  0  0  0  0  0  0  0  0  0  0
    4.8030   -4.2234    3.5922 H   0  0  0  0  0  0  0  0  0  0  0  0
    1.2634   -5.0455    4.5967 H   0  0  0  0  0  0  0  0  0  0  0  0
    2.6607   -4.1294    5.0301 H   0  0  0  0  0  0  0  0  0  0  0  0
    0.6145   -3.3621    2.8929 H   0  0  0  0  0  0  0  0  0  0  0  0
   -0.5427   -2.0067    4.4099 H   0  0  0  0  0  0  0  0  0  0  0  0
    0.2340   -2.9978    5.7121 H   0  0  0  0  0  0  0  0  0  0  0  0
    2.2278   -1.8238    5.6196 H   0  0  0  0  0  0  0  0  0  0  0  0
    0.2438   -0.8961    2.4415 H   0  0  0  0  0  0  0  0  0  0  0  0
    1.5232   -1.4005    1.3540 H   0  0  0  0  0  0  0  0  0  0  0  0
    1.7008    0.0618    2.3183 H   0  0  0  0  0  0  0  0  0  0  0  0
    1.5869   -8.3960    0.8970 H   0  0  0  0  0  0  0  0  0  0  0  0
    3.0902   -7.7678    1.5241 H   0  0  0  0  0  0  0  0  0  0  0  0
    3.0270  -10.2533    1.7018 H   0  0  0  0  0  0  0  0  0  0  0  0
    3.1317   -9.5211    3.2899 H   0  0  0  0  0  0  0  0  0  0  0  0
    0.6004  -10.6457    1.9887 H   0  0  0  0  0  0  0  0  0  0  0  0
    1.4633  -11.3292    3.3411 H   0  0  0  0  0  0  0  0  0  0  0  0
   -0.5676  -10.0385    4.0460 H   0  0  0  0  0  0  0  0  0  0  0  0
    0.8951   -9.4065    4.7655 H   0  0  0  0  0  0  0  0  0  0  0  0
   -0.5215   -7.5546    3.9181 H   0  0  0  0  0  0  0  0  0  0  0  0
   -0.5751   -8.2816    2.3336 H   0  0  0  0  0  0  0  0  0  0  0  0
  2  1  1  1
  1 36  1  0
  1 37  1  0
  1 38  1  0
  2 11  1  0
  2 23  1  0
  2  3  1  0
  3  4  1  0
  4  9  1  0
  4  5  1  0
  4 39  1  1
  5  6  1  0
  5 40  1  0
  5 41  1  0
  6  7  2  0
  6  8  1  0
  8  9  1  0
  9 10  1  0
  9 42  1  6
 10 11  1  0
 10 43  1  0
 10 44  1  0
 11 13  1  0
 11 12  1  1
 12 13  1  0
 13 14  1  0
 13 45  1  6
 14 16  1  0
 14 15  1  0
 14 46  1  6
 16 15  1  1
 16 24  1  0
 16 17  1  0
 17 18  1  0
 17 47  1  0
 17 48  1  0
 18 19  1  0
 18 49  1  0
 18 50  1  0
 19 35  1  0
 19 20  1  0
 19 26  1  0
 20 21  1  0
 20 51  1  0
 20 52  1  0
 21 24  1  0
 21 22  1  0
 21 53  1  6
 22 23  1  0
 22 54  1  0
 22 55  1  0
 23 24  1  0
 23 56  1  1
 24 25  1  6
 25 57  1  0
 25 58  1  0
 25 59  1  0
 26 27  1  0
 27 28  1  0
 28 33  1  0
 28 29  1  0
 28 34  1  0
 29 30  1  0
 29 60  1  0
 29 61  1  0
 30 31  1  0
 30 62  1  0
 30 63  1  0
 31 32  1  0
 31 64  1  0
 31 65  1  0
 32 33  1  0
 32 66  1  0
 32 67  1  0
 33 68  1  0
 33 69  1  0
 34 35  1  0
M  END
>  <i_m_ct_stereo_status>  (136) 
1

>  <s_m_source_file>  (136) 
/var/tmp/pbs.5076255.sched01/tmpav68hifr/35m6z7vsub.sdf

>  <i_m_source_file_index>  (136) 
28

>  <i_lp_mmshare_version>  (136) 
48012

>  <i_f3d_flags>  (136) 
0

>  <s_epik_input>  (136) 
W0NIMl0xQyg9TylPW0NAQEhdKFtDSDJdMilbQ0BASF0xT1tDQEBdKFtDQEBdMjM0KShbQ0gzXSlbQ0BASF01W0NAQF02KFtDSDNdKVtDQF03KFtDQEhdKE83KVtDQEBIXTRPMylbQ0gyXVtDSDJdQzgoW0NIMl1bQ0BIXTZbQ0gyXTUpT09DOShPTzgpW0NIMl1bQ0gyXVtDSDJdW0NIMl1bQ0gyXTk=

>  <s_epik_cmdline>  (136) 
J2VwaWtfcHl0aG9uJywgJy1waHQnLCAnMi4wJywgJy1waCcsICc3LjAnLCAnLXRuJywgJzgnLCAnLW1hJywgJzIwMCcsICctaW1hZScsICc8aW5maWxlLm1hZT4nLCAnLW9tYWUnLCAnPG91dGZpbGUubWFlPic=

>  <r_lp_tautomer_probability>  (136) 
1

>  <r_epik_Ionization_Penalty>  (136) 
3.1645e-12

>  <r_epik_Ionization_Penalty_Charging>  (136) 
0

>  <r_epik_Ionization_Penalty_Neutral>  (136) 
3.1645e-12

>  <r_epik_State_Penalty>  (136) 
-0

>  <r_epik_Charging_Adjusted_Penalty>  (136) 
0

>  <i_epik_Tot_Q>  (136) 
0

>  <i_epik_Tot_abs_Q>  (136) 
0

>  <s_epik_Chemistry_Notes>  (136) 
This compound has an ester and may undergo hydrolysis at high or low pH.

>  <s_lp_Force_Field>  (136) 
OPLS3e

>  <r_lp_Energy>  (136) 
54.9419

>  <b_lp_Chiralities_Consistent>  (136) 
1

>  <s_lp_Variant>  (136) 
51:0-1

>  <s_i_glide_gridfile>  (136) 
pfpi4k_grid

>  <i_i_glide_lignum>  (136) 
28

>  <i_i_glide_rotatable_bonds>  (136) 
0

>  <r_i_docking_score>  (136) 
-2.48596

>  <r_i_glide_ligand_efficiency>  (136) 
-0.0710275

>  <r_i_glide_ligand_efficiency_sa>  (136) 
-0.232336

>  <r_i_glide_ligand_efficiency_ln>  (136) 
-0.545724

>  <r_i_glide_gscore>  (136) 
-2.48596

>  <r_i_glide_lipo>  (136) 
-0.270461

>  <r_i_glide_hbond>  (136) 
-0.19163

>  <r_i_glide_metal>  (136) 
-0

>  <r_i_glide_rewards>  (136) 
-0.0644812

>  <r_i_glide_evdw>  (136) 
-22.3092

>  <r_i_glide_ecoul>  (136) 
-4.92314

>  <r_i_glide_erotb>  (136) 
0

>  <r_i_glide_esite>  (136) 
-0.105458

>  <r_i_glide_emodel>  (136) 
-31.6067

>  <r_i_glide_energy>  (136) 
-27.2323

>  <r_i_glide_einternal>  (136) 
0

>  <r_i_glide_intrahb_reward>  (136) 
-0

>  <i_i_glide_confnum>  (136) 
1

>  <i_i_glide_posenum>  (136) 
18

>  <r_i_glide_eff_state_penalty>  (136) 
0

>  <ligand_id>  (136) 
51

>  <original_smiles>  (136) 
CC12OC3CC(=O)OC3CC13OC3C1OC13CCC1(CC4CC2C43C)OOC2(CCCCC2)OO1

>  <smiles>  (136) 
[H]C([H])([H])C12OC3([H])C([H])([H])C(=O)OC3([H])C([H])([H])C13OC3([H])C1([H])OC13C([H])([H])C([H])([H])C1(OOC4(OO1)C([H])([H])C([H])([H])C([H])([H])C([H])([H])C4([H])[H])C([H])([H])C1([H])C([H])([H])C2([H])C13C([H])([H])[H]

$$$$
51:0:1
     RDKit          3D

 69 77  0  0  1  0  0  0  0  0999 V2000
    5.9228   -2.6177    1.8125 C   0  0  0  0  0  0  0  0  0  0  0  0
    4.4004   -2.4067    1.6255 C   0  0  1  0  0  0  0  0  0  0  0  0
    4.2429   -1.4945    0.5234 O   0  0  0  0  0  0  0  0  0  0  0  0
    4.5201   -2.0487   -0.7524 C   0  0  2  0  0  0  0  0  0  0  0  0
    4.2499   -1.1772   -1.9546 C   0  0  0  0  0  0  0  0  0  0  0  0
    4.0096   -2.2386   -3.0119 C   0  0  0  0  0  0  0  0  0  0  0  0
    4.1078   -2.0326   -4.2239 O   0  0  0  0  0  0  0  0  0  0  0  0
    3.7074   -3.3945   -2.3952 O   0  0  0  0  0  0  0  0  0  0  0  0
    3.5667   -3.1977   -0.9992 C   0  0  1  0  0  0  0  0  0  0  0  0
    3.9123   -4.3105   -0.0290 C   0  0  0  0  0  0  0  0  0  0  0  0
    3.6526   -3.7689    1.3841 C   0  0  1  0  0  0  0  0  0  0  0  0
    3.7901   -4.7111    2.4411 O   0  0  0  0  0  0  0  0  0  0  0  0
    2.4495   -4.3519    2.1232 C   0  0  1  0  0  0  0  0  0  0  0  0
    1.6136   -3.8054    3.2894 C   0  0  1  0  0  0  0  0  0  0  0  0
    2.3320   -3.3644    4.4325 O   0  0  0  0  0  0  0  0  0  0  0  0
    1.5741   -2.3771    3.7506 C   0  0  2  0  0  0  0  0  0  0  0  0
    0.3664   -1.8470    4.5369 C   0  0  0  0  0  0  0  0  0  0  0  0
    0.6731   -1.3149    5.9521 C   0  0  0  0  0  0  0  0  0  0  0  0
    1.4410    0.0232    6.0458 C   0  0  0  0  0  0  0  0  0  0  0  0
    2.8268   -0.0439    5.3541 C   0  0  0  0  0  0  0  0  0  0  0  0
    2.8230   -0.0628    3.8162 C   0  0  1  0  0  0  0  0  0  0  0  0
    4.1638   -0.1500    3.0688 C   0  0  0  0  0  0  0  0  0  0  0  0
    3.8636   -1.6340    2.8451 C   0  0  1  0  0  0  0  0  0  0  0  0
    2.3677   -1.3022    3.0201 C   0  0  1  0  0  0  0  0  0  0  0  0
    1.6091   -0.9743    1.7314 C   0  0  0  0  0  0  0  0  0  0  0  0
    0.7168    1.1234    5.5141 O   0  0  0  0  0  0  0  0  0  0  0  0
   -0.5245    1.3474    6.3505 O   0  0  0  0  0  0  0  0  0  0  0  0
   -0.1270    1.6773    7.6667 C   0  0  0  0  0  0  0  0  0  0  0  0
   -1.3894    1.9165    8.5178 C   0  0  0  0  0  0  0  0  0  0  0  0
   -2.1470    3.2055    8.1519 C   0  0  0  0  0  0  0  0  0  0  0  0
   -1.2299    4.4376    8.2166 C   0  0  0  0  0  0  0  0  0  0  0  0
    0.0201    4.2200    7.3445 C   0  0  0  0  0  0  0  0  0  0  0  0
    0.7779    2.9349    7.7298 C   0  0  0  0  0  0  0  0  0  0  0  0
    0.5231    0.5522    8.2065 O   0  0  0  0  0  0  0  0  0  0  0  0
    1.7652    0.2866    7.4050 O   0  0  0  0  0  0  0  0  0  0  0  0
    6.1473   -3.0906    2.7661 H   0  0  0  0  0  0  0  0  0  0  0  0
    6.4432   -1.6578    1.7964 H   0  0  0  0  0  0  0  0  0  0  0  0
    6.3807   -3.2411    1.0442 H   0  0  0  0  0  0  0  0  0  0  0  0
    5.5521   -2.3907   -0.8086 H   0  0  0  0  0  0  0  0  0  0  0  0
    3.3231   -0.6289   -1.8292 H   0  0  0  0  0  0  0  0  0  0  0  0
    5.0719   -0.5108   -2.2006 H   0  0  0  0  0  0  0  0  0  0  0  0
    2.5380   -2.8765   -0.8269 H   0  0  0  0  0  0  0  0  0  0  0  0
    3.2678   -5.1639   -0.2187 H   0  0  0  0  0  0  0  0  0  0  0  0
    4.9368   -4.6599   -0.1391 H   0  0  0  0  0  0  0  0  0  0  0  0
    1.9036   -5.0745    1.5277 H   0  0  0  0  0  0  0  0  0  0  0  0
    0.7660   -4.4307    3.5629 H   0  0  0  0  0  0  0  0  0  0  0  0
   -0.1697   -1.1081    3.9490 H   0  0  0  0  0  0  0  0  0  0  0  0
   -0.3174   -2.6923    4.6423 H   0  0  0  0  0  0  0  0  0  0  0  0
   -0.2725   -1.2164    6.4703 H   0  0  0  0  0  0  0  0  0  0  0  0
    1.2151   -2.0800    6.5004 H   0  0  0  0  0  0  0  0  0  0  0  0
    3.4072    0.8206    5.6784 H   0  0  0  0  0  0  0  0  0  0  0  0
    3.3704   -0.9156    5.7263 H   0  0  0  0  0  0  0  0  0  0  0  0
    2.3013    0.8092    3.4277 H   0  0  0  0  0  0  0  0  0  0  0  0
    4.1827    0.4255    2.1416 H   0  0  0  0  0  0  0  0  0  0  0  0
    5.0382    0.0357    3.6917 H   0  0  0  0  0  0  0  0  0  0  0  0
    4.2193   -2.1124    3.7518 H   0  0  0  0  0  0  0  0  0  0  0  0
    2.1287   -0.2271    1.1319 H   0  0  0  0  0  0  0  0  0  0  0  0
    0.6045   -0.5860    1.9091 H   0  0  0  0  0  0  0  0  0  0  0  0
    1.5163   -1.8583    1.1122 H   0  0  0  0  0  0  0  0  0  0  0  0
   -2.0651    1.0742    8.4471 H   0  0  0  0  0  0  0  0  0  0  0  0
   -1.0943    1.9927    9.5606 H   0  0  0  0  0  0  0  0  0  0  0  0
   -2.5736    3.1164    7.1499 H   0  0  0  0  0  0  0  0  0  0  0  0
   -2.9886    3.3553    8.8291 H   0  0  0  0  0  0  0  0  0  0  0  0
   -1.7755    5.3274    7.8858 H   0  0  0  0  0  0  0  0  0  0  0  0
   -0.9416    4.6413    9.2512 H   0  0  0  0  0  0  0  0  0  0  0  0
   -0.2798    4.1693    6.2954 H   0  0  0  0  0  0  0  0  0  0  0  0
    0.6731    5.0882    7.4377 H   0  0  0  0  0  0  0  0  0  0  0  0
    1.1453    3.0494    8.7471 H   0  0  0  0  0  0  0  0  0  0  0  0
    1.6669    2.8478    7.1104 H   0  0  0  0  0  0  0  0  0  0  0  0
  2  1  1  1
  1 36  1  0
  1 37  1  0
  1 38  1  0
  2 11  1  0
  2 23  1  0
  2  3  1  0
  3  4  1  0
  4  9  1  0
  4  5  1  0
  4 39  1  1
  5  6  1  0
  5 40  1  0
  5 41  1  0
  6  7  2  0
  6  8  1  0
  8  9  1  0
  9 10  1  0
  9 42  1  6
 10 11  1  0
 10 43  1  0
 10 44  1  0
 11 13  1  0
 11 12  1  1
 12 13  1  0
 13 14  1  0
 13 45  1  6
 14 16  1  0
 14 15  1  0
 14 46  1  1
 16 15  1  1
 16 24  1  0
 16 17  1  0
 17 18  1  0
 17 47  1  0
 17 48  1  0
 18 19  1  0
 18 49  1  0
 18 50  1  0
 19 35  1  0
 19 20  1  0
 19 26  1  0
 20 21  1  0
 20 51  1  0
 20 52  1  0
 21 24  1  0
 21 22  1  0
 21 53  1  6
 22 23  1  0
 22 54  1  0
 22 55  1  0
 23 24  1  0
 23 56  1  1
 24 25  1  6
 25 57  1  0
 25 58  1  0
 25 59  1  0
 26 27  1  0
 27 28  1  0
 28 33  1  0
 28 29  1  0
 28 34  1  0
 29 30  1  0
 29 60  1  0
 29 61  1  0
 30 31  1  0
 30 62  1  0
 30 63  1  0
 31 32  1  0
 31 64  1  0
 31 65  1  0
 32 33  1  0
 32 66  1  0
 32 67  1  0
 33 68  1  0
 33 69  1  0
 34 35  1  0
M  END
>  <i_m_ct_stereo_status>  (137) 
1

>  <s_m_source_file>  (137) 
/var/tmp/pbs.5076255.sched01/tmpav68hifr/35m6z7vsub.sdf

>  <i_m_source_file_index>  (137) 
28

>  <i_lp_mmshare_version>  (137) 
48012

>  <i_f3d_flags>  (137) 
0

>  <s_epik_input>  (137) 
W0NIMl0xQyg9TylPW0NAQEhdKFtDSDJdMilbQ0BASF0xT1tDQEBdKFtDQEBdMjM0KShbQ0gzXSlbQ0BASF01W0NAQF02KFtDSDNdKVtDQF03KFtDQEhdKE83KVtDQEBIXTRPMylbQ0gyXVtDSDJdQzgoW0NIMl1bQ0BIXTZbQ0gyXTUpT09DOShPTzgpW0NIMl1bQ0gyXVtDSDJdW0NIMl1bQ0gyXTk=

>  <s_epik_cmdline>  (137) 
J2VwaWtfcHl0aG9uJywgJy1waHQnLCAnMi4wJywgJy1waCcsICc3LjAnLCAnLXRuJywgJzgnLCAnLW1hJywgJzIwMCcsICctaW1hZScsICc8aW5maWxlLm1hZT4nLCAnLW9tYWUnLCAnPG91dGZpbGUubWFlPic=

>  <r_lp_tautomer_probability>  (137) 
1

>  <r_epik_Ionization_Penalty>  (137) 
3.1645e-12

>  <r_epik_Ionization_Penalty_Charging>  (137) 
0

>  <r_epik_Ionization_Penalty_Neutral>  (137) 
3.1645e-12

>  <r_epik_State_Penalty>  (137) 
-0

>  <r_epik_Charging_Adjusted_Penalty>  (137) 
0

>  <i_epik_Tot_Q>  (137) 
0

>  <i_epik_Tot_abs_Q>  (137) 
0

>  <s_epik_Chemistry_Notes>  (137) 
This compound has an ester and may undergo hydrolysis at high or low pH.

>  <s_lp_Force_Field>  (137) 
OPLS3e

>  <r_lp_Energy>  (137) 
54.9419

>  <b_lp_Chiralities_Consistent>  (137) 
1

>  <s_lp_Variant>  (137) 
51:0-1

>  <s_i_glide_gridfile>  (137) 
pfpi4k_grid

>  <i_i_glide_lignum>  (137) 
28

>  <i_i_glide_rotatable_bonds>  (137) 
0

>  <r_i_docking_score>  (137) 
-2.45654

>  <r_i_glide_ligand_efficiency>  (137) 
-0.0701867

>  <r_i_glide_ligand_efficiency_sa>  (137) 
-0.229586

>  <r_i_glide_ligand_efficiency_ln>  (137) 
-0.539264

>  <r_i_glide_gscore>  (137) 
-2.45654

>  <r_i_glide_lipo>  (137) 
-0.193187

>  <r_i_glide_hbond>  (137) 
-0.32

>  <r_i_glide_metal>  (137) 
-0

>  <r_i_glide_rewards>  (137) 
-0.232998

>  <r_i_glide_evdw>  (137) 
-23.8201

>  <r_i_glide_ecoul>  (137) 
-3.42259

>  <r_i_glide_erotb>  (137) 
0

>  <r_i_glide_esite>  (137) 
-0.00595451

>  <r_i_glide_emodel>  (137) 
-31.451

>  <r_i_glide_energy>  (137) 
-27.2427

>  <r_i_glide_einternal>  (137) 
0

>  <r_i_glide_intrahb_reward>  (137) 
-0

>  <i_i_glide_confnum>  (137) 
6

>  <i_i_glide_posenum>  (137) 
2

>  <r_i_glide_eff_state_penalty>  (137) 
0

>  <ligand_id>  (137) 
51

>  <original_smiles>  (137) 
CC12OC3CC(=O)OC3CC13OC3C1OC13CCC1(CC4CC2C43C)OOC2(CCCCC2)OO1

>  <smiles>  (137) 
[H]C([H])([H])C12OC3([H])C([H])([H])C(=O)OC3([H])C([H])([H])C13OC3([H])C1([H])OC13C([H])([H])C([H])([H])C1(OOC4(OO1)C([H])([H])C([H])([H])C([H])([H])C([H])([H])C4([H])[H])C([H])([H])C1([H])C([H])([H])C2([H])C13C([H])([H])[H]

$$$$
51:0:2
     RDKit          3D

 69 77  0  0  1  0  0  0  0  0999 V2000
    0.3168    0.1703    6.3585 C   0  0  0  0  0  0  0  0  0  0  0  0
    0.9614    0.4370    4.9744 C   0  0  1  0  0  0  0  0  0  0  0  0
   -0.1219    0.6868    4.0531 O   0  0  0  0  0  0  0  0  0  0  0  0
   -0.7497    1.9459    4.2125 C   0  0  2  0  0  0  0  0  0  0  0  0
   -1.8039    2.3158    3.1960 C   0  0  0  0  0  0  0  0  0  0  0  0
   -1.7126    3.8271    3.2742 C   0  0  0  0  0  0  0  0  0  0  0  0
   -2.5907    4.5926    2.8794 O   0  0  0  0  0  0  0  0  0  0  0  0
   -0.5509    4.1743    3.8502 O   0  0  0  0  0  0  0  0  0  0  0  0
    0.2729    3.0347    3.9907 C   0  0  1  0  0  0  0  0  0  0  0  0
    1.2820    2.9776    5.1239 C   0  0  0  0  0  0  0  0  0  0  0  0
    1.9799    1.6248    5.0218 C   0  0  1  0  0  0  0  0  0  0  0  0
    3.0744    1.4326    5.9209 O   0  0  0  0  0  0  0  0  0  0  0  0
    3.4465    1.6567    4.5544 C   0  0  1  0  0  0  0  0  0  0  0  0
    4.3338    0.5820    3.9337 C   0  0  1  0  0  0  0  0  0  0  0  0
    4.3681   -0.6843    4.5976 O   0  0  0  0  0  0  0  0  0  0  0  0
    3.8414   -0.6803    3.2660 C   0  0  2  0  0  0  0  0  0  0  0  0
    4.7187   -1.4042    2.2483 C   0  0  0  0  0  0  0  0  0  0  0  0
    5.0810   -2.8686    2.6100 C   0  0  0  0  0  0  0  0  0  0  0  0
    3.9491   -3.9156    2.5665 C   0  0  0  0  0  0  0  0  0  0  0  0
    2.7833   -3.5760    3.5171 C   0  0  0  0  0  0  0  0  0  0  0  0
    1.8889   -2.4216    3.0650 C   0  0  1  0  0  0  0  0  0  0  0  0
    0.7239   -2.0396    3.9886 C   0  0  0  0  0  0  0  0  0  0  0  0
    1.5783   -0.8699    4.4665 C   0  0  1  0  0  0  0  0  0  0  0  0
    2.3563   -0.9491    3.1364 C   0  0  1  0  0  0  0  0  0  0  0  0
    1.8235   -0.0751    1.9824 C   0  0  0  0  0  0  0  0  0  0  0  0
    3.5458   -4.1032    1.2099 O   0  0  0  0  0  0  0  0  0  0  0  0
    2.5032   -5.1737    1.1491 O   0  0  0  0  0  0  0  0  0  0  0  0
    3.0351   -6.4083    1.6497 C   0  0  0  0  0  0  0  0  0  0  0  0
    4.1886   -6.9295    0.7849 C   0  0  0  0  0  0  0  0  0  0  0  0
    4.6420   -8.3239    1.2682 C   0  0  0  0  0  0  0  0  0  0  0  0
    3.4775   -9.3303    1.3050 C   0  0  0  0  0  0  0  0  0  0  0  0
    2.3043   -8.7968    2.1436 C   0  0  0  0  0  0  0  0  0  0  0  0
    1.8648   -7.3974    1.6707 C   0  0  0  0  0  0  0  0  0  0  0  0
    3.5064   -6.2192    2.9856 O   0  0  0  0  0  0  0  0  0  0  0  0
    4.5360   -5.1415    3.0019 O   0  0  0  0  0  0  0  0  0  0  0  0
    1.0252   -0.2766    7.0573 H   0  0  0  0  0  0  0  0  0  0  0  0
   -0.5150   -0.5273    6.2558 H   0  0  0  0  0  0  0  0  0  0  0  0
   -0.0721    1.0666    6.8366 H   0  0  0  0  0  0  0  0  0  0  0  0
   -1.1961    2.0317    5.2032 H   0  0  0  0  0  0  0  0  0  0  0  0
   -1.5379    1.9876    2.1925 H   0  0  0  0  0  0  0  0  0  0  0  0
   -2.7918    1.9522    3.4716 H   0  0  0  0  0  0  0  0  0  0  0  0
    0.7855    2.8851    3.0392 H   0  0  0  0  0  0  0  0  0  0  0  0
    1.9961    3.7818    5.0027 H   0  0  0  0  0  0  0  0  0  0  0  0
    0.8093    3.1086    6.0988 H   0  0  0  0  0  0  0  0  0  0  0  0
    3.7894    2.6611    4.3273 H   0  0  0  0  0  0  0  0  0  0  0  0
    5.3339    0.9115    3.6716 H   0  0  0  0  0  0  0  0  0  0  0  0
    4.2713   -1.3560    1.2546 H   0  0  0  0  0  0  0  0  0  0  0  0
    5.6481   -0.8393    2.1720 H   0  0  0  0  0  0  0  0  0  0  0  0
    5.8768   -3.1826    1.9334 H   0  0  0  0  0  0  0  0  0  0  0  0
    5.5512   -2.8667    3.5992 H   0  0  0  0  0  0  0  0  0  0  0  0
    2.1178   -4.4181    3.6600 H   0  0  0  0  0  0  0  0  0  0  0  0
    3.1936   -3.3683    4.5028 H   0  0  0  0  0  0  0  0  0  0  0  0
    1.4840   -2.6125    2.0794 H   0  0  0  0  0  0  0  0  0  0  0  0
   -0.1782   -1.7310    3.4496 H   0  0  0  0  0  0  0  0  0  0  0  0
    0.5086   -2.7852    4.7552 H   0  0  0  0  0  0  0  0  0  0  0  0
    2.1954   -1.2980    5.2534 H   0  0  0  0  0  0  0  0  0  0  0  0
    0.7543   -0.2164    1.8366 H   0  0  0  0  0  0  0  0  0  0  0  0
    2.2978   -0.3034    1.0271 H   0  0  0  0  0  0  0  0  0  0  0  0
    1.9781    0.9864    2.1830 H   0  0  0  0  0  0  0  0  0  0  0  0
    3.8631   -7.0018   -0.2499 H   0  0  0  0  0  0  0  0  0  0  0  0
    5.0458   -6.2558    0.7800 H   0  0  0  0  0  0  0  0  0  0  0  0
    5.4333   -8.7167    0.6275 H   0  0  0  0  0  0  0  0  0  0  0  0
    5.0662   -8.2462    2.2733 H   0  0  0  0  0  0  0  0  0  0  0  0
    3.1422   -9.5628    0.2942 H   0  0  0  0  0  0  0  0  0  0  0  0
    3.8250  -10.2738    1.7297 H   0  0  0  0  0  0  0  0  0  0  0  0
    1.4719   -9.5042    2.0929 H   0  0  0  0  0  0  0  0  0  0  0  0
    2.6040   -8.7534    3.1944 H   0  0  0  0  0  0  0  0  0  0  0  0
    1.0491   -7.0471    2.3000 H   0  0  0  0  0  0  0  0  0  0  0  0
    1.4349   -7.4928    0.6744 H   0  0  0  0  0  0  0  0  0  0  0  0
  2  1  1  1
  1 36  1  0
  1 37  1  0
  1 38  1  0
  2 11  1  0
  2 23  1  0
  2  3  1  0
  3  4  1  0
  4  9  1  0
  4  5  1  0
  4 39  1  1
  5  6  1  0
  5 40  1  0
  5 41  1  0
  6  7  2  0
  6  8  1  0
  8  9  1  0
  9 10  1  0
  9 42  1  6
 10 11  1  0
 10 43  1  0
 10 44  1  0
 11 13  1  0
 11 12  1  1
 12 13  1  0
 13 14  1  0
 13 45  1  1
 14 16  1  0
 14 15  1  0
 14 46  1  6
 16 15  1  1
 16 24  1  0
 16 17  1  0
 17 18  1  0
 17 47  1  0
 17 48  1  0
 18 19  1  0
 18 49  1  0
 18 50  1  0
 19 35  1  0
 19 20  1  0
 19 26  1  0
 20 21  1  0
 20 51  1  0
 20 52  1  0
 21 24  1  0
 21 22  1  0
 21 53  1  6
 22 23  1  0
 22 54  1  0
 22 55  1  0
 23 24  1  0
 23 56  1  1
 24 25  1  6
 25 57  1  0
 25 58  1  0
 25 59  1  0
 26 27  1  0
 27 28  1  0
 28 33  1  0
 28 29  1  0
 28 34  1  0
 29 30  1  0
 29 60  1  0
 29 61  1  0
 30 31  1  0
 30 62  1  0
 30 63  1  0
 31 32  1  0
 31 64  1  0
 31 65  1  0
 32 33  1  0
 32 66  1  0
 32 67  1  0
 33 68  1  0
 33 69  1  0
 34 35  1  0
M  END
>  <i_m_ct_stereo_status>  (138) 
1

>  <s_m_source_file>  (138) 
/var/tmp/pbs.5076255.sched01/tmpav68hifr/35m6z7vsub.sdf

>  <i_m_source_file_index>  (138) 
28

>  <i_lp_mmshare_version>  (138) 
48012

>  <i_f3d_flags>  (138) 
0

>  <s_epik_input>  (138) 
W0NIMl0xQyg9TylPW0NAQEhdKFtDSDJdMilbQ0BASF0xT1tDQEBdKFtDQEBdMjM0KShbQ0gzXSlbQ0BASF01W0NAQF02KFtDSDNdKVtDQF03KFtDQEhdKE83KVtDQEBIXTRPMylbQ0gyXVtDSDJdQzgoW0NIMl1bQ0BIXTZbQ0gyXTUpT09DOShPTzgpW0NIMl1bQ0gyXVtDSDJdW0NIMl1bQ0gyXTk=

>  <s_epik_cmdline>  (138) 
J2VwaWtfcHl0aG9uJywgJy1waHQnLCAnMi4wJywgJy1waCcsICc3LjAnLCAnLXRuJywgJzgnLCAnLW1hJywgJzIwMCcsICctaW1hZScsICc8aW5maWxlLm1hZT4nLCAnLW9tYWUnLCAnPG91dGZpbGUubWFlPic=

>  <r_lp_tautomer_probability>  (138) 
1

>  <r_epik_Ionization_Penalty>  (138) 
3.1645e-12

>  <r_epik_Ionization_Penalty_Charging>  (138) 
0

>  <r_epik_Ionization_Penalty_Neutral>  (138) 
3.1645e-12

>  <r_epik_State_Penalty>  (138) 
-0

>  <r_epik_Charging_Adjusted_Penalty>  (138) 
0

>  <i_epik_Tot_Q>  (138) 
0

>  <i_epik_Tot_abs_Q>  (138) 
0

>  <s_epik_Chemistry_Notes>  (138) 
This compound has an ester and may undergo hydrolysis at high or low pH.

>  <s_lp_Force_Field>  (138) 
OPLS3e

>  <r_lp_Energy>  (138) 
54.9419

>  <b_lp_Chiralities_Consistent>  (138) 
1

>  <s_lp_Variant>  (138) 
51:0-1

>  <s_i_glide_gridfile>  (138) 
pfpi4k_grid

>  <i_i_glide_lignum>  (138) 
28

>  <i_i_glide_rotatable_bonds>  (138) 
0

>  <r_i_docking_score>  (138) 
-2.39781

>  <r_i_glide_ligand_efficiency>  (138) 
-0.0685087

>  <r_i_glide_ligand_efficiency_sa>  (138) 
-0.224097

>  <r_i_glide_ligand_efficiency_ln>  (138) 
-0.526372

>  <r_i_glide_gscore>  (138) 
-2.39781

>  <r_i_glide_lipo>  (138) 
-0.295423

>  <r_i_glide_hbond>  (138) 
-0.16

>  <r_i_glide_metal>  (138) 
-0

>  <r_i_glide_rewards>  (138) 
-0.108267

>  <r_i_glide_evdw>  (138) 
-24.2907

>  <r_i_glide_ecoul>  (138) 
-3.49796

>  <r_i_glide_erotb>  (138) 
0

>  <r_i_glide_esite>  (138) 
-0.0948887

>  <r_i_glide_emodel>  (138) 
-31.9428

>  <r_i_glide_energy>  (138) 
-27.7886

>  <r_i_glide_einternal>  (138) 
0

>  <r_i_glide_intrahb_reward>  (138) 
-0

>  <i_i_glide_confnum>  (138) 
1

>  <i_i_glide_posenum>  (138) 
1

>  <r_i_glide_eff_state_penalty>  (138) 
0

>  <ligand_id>  (138) 
51

>  <original_smiles>  (138) 
CC12OC3CC(=O)OC3CC13OC3C1OC13CCC1(CC4CC2C43C)OOC2(CCCCC2)OO1

>  <smiles>  (138) 
[H]C([H])([H])C12OC3([H])C([H])([H])C(=O)OC3([H])C([H])([H])C13OC3([H])C1([H])OC13C([H])([H])C([H])([H])C1(OOC4(OO1)C([H])([H])C([H])([H])C([H])([H])C([H])([H])C4([H])[H])C([H])([H])C1([H])C([H])([H])C2([H])C13C([H])([H])[H]

$$$$
52:0:0
     RDKit          3D

 76 80  0  0  1  0  0  0  0  0999 V2000
    3.8729   -0.6073   -3.6417 C   0  0  0  0  0  0  0  0  0  0  0  0
    3.9692   -1.7444   -2.6422 C   0  0  0  0  0  0  0  0  0  0  0  0
    3.0473   -2.5481   -2.5233 O   0  0  0  0  0  0  0  0  0  0  0  0
    5.1300   -1.7123   -1.9223 O   0  0  0  0  0  0  0  0  0  0  0  0
    5.4033   -2.5669   -0.7906 C   0  0  2  0  0  0  0  0  0  0  0  0
    5.0450   -4.0425   -1.0112 C   0  0  0  0  0  0  0  0  0  0  0  0
    5.6371   -4.9101    0.0964 C   0  0  0  0  0  0  0  0  0  0  0  0
    5.0789   -4.5691    1.5084 C   0  0  2  0  0  0  0  0  0  0  0  0
    6.0437   -5.3009    2.4880 C   0  0  0  0  0  0  0  0  0  0  0  0
    3.5713   -5.0197    1.7587 C   0  0  1  0  0  0  0  0  0  0  0  0
    3.1164   -6.3978    1.0994 C   0  0  1  0  0  0  0  0  0  0  0  0
    4.0719   -7.4128    1.2669 O   0  0  0  0  0  0  0  0  0  0  0  0
    1.6945   -6.9756    1.3808 C   0  0  0  0  0  0  0  0  0  0  0  0
    1.4141   -7.1322    2.8581 C   0  0  0  0  0  0  0  0  0  0  0  0
    2.2187   -7.6326    3.7895 C   0  0  0  0  0  0  0  0  0  0  0  0
    3.2971   -8.7142    3.7558 C   0  0  0  0  0  0  0  0  0  0  0  0
    2.1810   -6.6105    4.8764 C   0  0  2  0  0  0  0  0  0  0  0  0
    3.2630   -5.5235    4.4494 C   0  0  0  0  0  0  0  0  0  0  0  0
    3.0036   -4.6109    3.1735 C   0  0  1  0  0  0  0  0  0  0  0  0
    3.2981   -3.1194    3.4869 C   0  0  0  0  0  0  0  0  0  0  0  0
    4.6995   -2.6270    3.1198 C   0  0  0  0  0  0  0  0  0  0  0  0
    5.3214   -1.9033    3.8863 O   0  0  0  0  0  0  0  0  0  0  0  0
    5.2642   -3.0251    1.7465 C   0  0  2  0  0  0  0  0  0  0  0  0
    4.9018   -2.0024    0.5827 C   0  0  0  0  0  0  0  0  0  0  0  0
    5.6545   -0.6790    0.8599 C   0  0  0  0  0  0  0  0  0  0  0  0
    3.4042   -1.6424    0.5043 C   0  0  0  0  0  0  0  0  0  0  0  0
    2.3951   -7.0879    6.2149 O   0  0  0  0  0  0  0  0  0  0  0  0
    2.2077   -6.0668    7.2167 C   0  0  0  0  0  0  0  0  0  0  0  0
    0.9024   -5.2207    7.0652 C   0  0  1  0  0  0  0  0  0  0  0  0
    0.9693   -3.9139    7.8667 C   0  0  0  0  0  0  0  0  0  0  0  0
    0.4839   -4.9558    5.5933 C   0  0  0  0  0  0  0  0  0  0  0  0
    0.6968   -6.2377    4.7781 C   0  0  2  0  0  0  0  0  0  0  0  0
   -0.2872   -7.3432    5.2524 C   0  0  0  0  0  0  0  0  0  0  0  0
    0.5192   -6.2137    3.3670 O   0  0  0  0  0  0  0  0  0  0  0  0
    4.0162    0.3599   -3.1444 H   0  0  0  0  0  0  0  0  0  0  0  0
    2.8781   -0.6146   -4.0825 H   0  0  0  0  0  0  0  0  0  0  0  0
    4.6079   -0.7217   -4.4336 H   0  0  0  0  0  0  0  0  0  0  0  0
    6.4907   -2.5498   -0.7254 H   0  0  0  0  0  0  0  0  0  0  0  0
    3.9699   -4.2062   -1.0311 H   0  0  0  0  0  0  0  0  0  0  0  0
    5.4408   -4.3649   -1.9711 H   0  0  0  0  0  0  0  0  0  0  0  0
    5.4659   -5.9448   -0.1643 H   0  0  0  0  0  0  0  0  0  0  0  0
    6.7263   -4.7955    0.0857 H   0  0  0  0  0  0  0  0  0  0  0  0
    5.9060   -4.9955    3.5223 H   0  0  0  0  0  0  0  0  0  0  0  0
    7.0841   -5.0673    2.2538 H   0  0  0  0  0  0  0  0  0  0  0  0
    5.9497   -6.3780    2.4426 H   0  0  0  0  0  0  0  0  0  0  0  0
    3.0030   -4.3500    1.1200 H   0  0  0  0  0  0  0  0  0  0  0  0
    3.1232   -6.2180    0.0291 H   0  0  0  0  0  0  0  0  0  0  0  0
    3.7505   -8.2008    0.8195 H   0  0  0  0  0  0  0  0  0  0  0  0
    0.9501   -6.2986    0.9772 H   0  0  0  0  0  0  0  0  0  0  0  0
    1.5403   -7.9418    0.8926 H   0  0  0  0  0  0  0  0  0  0  0  0
    3.0512   -9.4393    4.5280 H   0  0  0  0  0  0  0  0  0  0  0  0
    4.2905   -8.3231    3.9638 H   0  0  0  0  0  0  0  0  0  0  0  0
    3.2981   -9.2507    2.8080 H   0  0  0  0  0  0  0  0  0  0  0  0
    3.4250   -4.8452    5.2761 H   0  0  0  0  0  0  0  0  0  0  0  0
    4.2130   -6.0325    4.3425 H   0  0  0  0  0  0  0  0  0  0  0  0
    1.9374   -4.5344    3.0332 H   0  0  0  0  0  0  0  0  0  0  0  0
    2.5729   -2.5033    2.9660 H   0  0  0  0  0  0  0  0  0  0  0  0
    3.1201   -2.8986    4.5436 H   0  0  0  0  0  0  0  0  0  0  0  0
    6.3430   -2.9063    1.8648 H   0  0  0  0  0  0  0  0  0  0  0  0
    5.2858   -0.1891    1.7684 H   0  0  0  0  0  0  0  0  0  0  0  0
    5.5152    0.0351    0.0541 H   0  0  0  0  0  0  0  0  0  0  0  0
    6.7229   -0.8294    0.9821 H   0  0  0  0  0  0  0  0  0  0  0  0
    2.9898   -1.2501    1.4409 H   0  0  0  0  0  0  0  0  0  0  0  0
    2.7995   -2.4761    0.1768 H   0  0  0  0  0  0  0  0  0  0  0  0
    3.2343   -0.8360   -0.2022 H   0  0  0  0  0  0  0  0  0  0  0  0
    2.2099   -6.5575    8.1871 H   0  0  0  0  0  0  0  0  0  0  0  0
    3.0750   -5.4185    7.2459 H   0  0  0  0  0  0  0  0  0  0  0  0
    0.0958   -5.8167    7.5213 H   0  0  0  0  0  0  0  0  0  0  0  0
    1.7296   -3.2477    7.4618 H   0  0  0  0  0  0  0  0  0  0  0  0
    1.2010   -4.0961    8.9096 H   0  0  0  0  0  0  0  0  0  0  0  0
    0.0141   -3.3862    7.8239 H   0  0  0  0  0  0  0  0  0  0  0  0
   -0.5556   -4.6573    5.5493 H   0  0  0  0  0  0  0  0  0  0  0  0
    1.0644   -4.1253    5.1796 H   0  0  0  0  0  0  0  0  0  0  0  0
   -0.1493   -7.6372    6.2945 H   0  0  0  0  0  0  0  0  0  0  0  0
   -0.1996   -8.2702    4.6756 H   0  0  0  0  0  0  0  0  0  0  0  0
   -1.3184   -7.0097    5.1369 H   0  0  0  0  0  0  0  0  0  0  0  0
  1  2  1  0
  1 35  1  0
  1 36  1  0
  1 37  1  0
  2  3  2  0
  2  4  1  0
  4  5  1  0
  5 24  1  0
  5  6  1  0
  5 38  1  1
  6  7  1  0
  6 39  1  0
  6 40  1  0
  7  8  1  0
  7 41  1  0
  7 42  1  0
  8 23  1  0
  8  9  1  1
  8 10  1  0
  9 43  1  0
  9 44  1  0
  9 45  1  0
 10 19  1  0
 10 11  1  0
 10 46  1  6
 11 12  1  0
 11 13  1  0
 11 47  1  6
 12 48  1  0
 13 14  1  0
 13 49  1  0
 13 50  1  0
 14 34  1  0
 14 15  2  0
 15 16  1  0
 15 17  1  0
 16 51  1  0
 16 52  1  0
 16 53  1  0
 17 32  1  0
 17 18  1  0
 17 27  1  1
 18 19  1  0
 18 54  1  0
 18 55  1  0
 19 20  1  0
 19 56  1  6
 20 21  1  0
 20 57  1  0
 20 58  1  0
 21 22  2  0
 21 23  1  0
 23 24  1  0
 23 59  1  1
 24 25  1  0
 24 26  1  0
 25 60  1  0
 25 61  1  0
 25 62  1  0
 26 63  1  0
 26 64  1  0
 26 65  1  0
 27 28  1  0
 28 29  1  0
 28 66  1  0
 28 67  1  0
 29 30  1  0
 29 31  1  0
 29 68  1  1
 30 69  1  0
 30 70  1  0
 30 71  1  0
 31 32  1  0
 31 72  1  0
 31 73  1  0
 32 33  1  1
 32 34  1  0
 33 74  1  0
 33 75  1  0
 33 76  1  0
M  END
>  <i_m_ct_stereo_status>  (139) 
1

>  <s_m_source_file>  (139) 
/var/tmp/pbs.5076255.sched01/tmpav68hifr/35m6z7vsub.sdf

>  <i_m_source_file_index>  (139) 
29

>  <i_lp_mmshare_version>  (139) 
48012

>  <i_f3d_flags>  (139) 
0

>  <s_epik_input>  (139) 
W0NIM11DKD1PKU9bQ0BIXShbQ0gyXVtDSDJdMSlDKFtDSDNdKShbQ0gzXSlbQ0BASF0oQyg9TylbQ0gyXVtDQEBIXTJbQ0gyXTMpW0NAQF0xKFtDSDNdKVtDQEhdMltDQEBIXShbT0hdKVtDSDJdQyg9QzRbQ0gzXSlPW0NAXShbQ0BdMzQ1KShbQ0gzXSlbQ0gyXVtDQEBIXShbQ0gyXU81KVtDSDNd

>  <s_epik_cmdline>  (139) 
J2VwaWtfcHl0aG9uJywgJy1waHQnLCAnMi4wJywgJy1waCcsICc3LjAnLCAnLXRuJywgJzgnLCAnLW1hJywgJzIwMCcsICctaW1hZScsICc8aW5maWxlLm1hZT4nLCAnLW9tYWUnLCAnPG91dGZpbGUubWFlPic=

>  <r_lp_tautomer_probability>  (139) 
1

>  <r_epik_Ionization_Penalty>  (139) 
4.26263e-08

>  <r_epik_Ionization_Penalty_Charging>  (139) 
0

>  <r_epik_Ionization_Penalty_Neutral>  (139) 
4.26263e-08

>  <r_epik_State_Penalty>  (139) 
-0

>  <r_epik_Charging_Adjusted_Penalty>  (139) 
0

>  <i_epik_Tot_Q>  (139) 
0

>  <i_epik_Tot_abs_Q>  (139) 
0

>  <s_epik_Chemistry_Notes>  (139) 
This compound has an ester and may undergo hydrolysis at high or low pH.

>  <s_lp_Force_Field>  (139) 
OPLS3e

>  <r_lp_Energy>  (139) 
82.1351

>  <b_lp_Chiralities_Consistent>  (139) 
1

>  <s_lp_Variant>  (139) 
52:0-1

>  <s_i_glide_gridfile>  (139) 
pfpi4k_grid

>  <i_i_glide_lignum>  (139) 
29

>  <i_i_glide_rotatable_bonds>  (139) 
3

>  <r_i_docking_score>  (139) 
-2.44688

>  <r_i_glide_ligand_efficiency>  (139) 
-0.0719671

>  <r_i_glide_ligand_efficiency_sa>  (139) 
-0.233145

>  <r_i_glide_ligand_efficiency_ln>  (139) 
-0.540585

>  <r_i_glide_gscore>  (139) 
-2.44688

>  <r_i_glide_lipo>  (139) 
-0.615975

>  <r_i_glide_hbond>  (139) 
-0.00261477

>  <r_i_glide_metal>  (139) 
-0

>  <r_i_glide_rewards>  (139) 
-0.221033

>  <r_i_glide_evdw>  (139) 
-34.9134

>  <r_i_glide_ecoul>  (139) 
0.437898

>  <r_i_glide_erotb>  (139) 
0.0898304

>  <r_i_glide_esite>  (139) 
-0.0171029

>  <r_i_glide_emodel>  (139) 
-36.2433

>  <r_i_glide_energy>  (139) 
-34.4755

>  <r_i_glide_einternal>  (139) 
5.9554

>  <r_i_glide_intrahb_reward>  (139) 
-0

>  <i_i_glide_confnum>  (139) 
4

>  <i_i_glide_posenum>  (139) 
3

>  <r_i_glide_eff_state_penalty>  (139) 
0

>  <ligand_id>  (139) 
52

>  <original_smiles>  (139) 
CC(=O)OC1CCC2(C)C3C(O)CC4=C(C)C5(CC3CC(=O)C2C1(C)C)OCC(C)CC5(C)O4

>  <smiles>  (139) 
[H]OC1([H])C([H])([H])C2=C(C([H])([H])[H])C3(OC([H])([H])C([H])(C([H])([H])[H])C([H])([H])C3(C([H])([H])[H])O2)C([H])([H])C2([H])C([H])([H])C(=O)C3([H])C(C([H])([H])[H])(C([H])([H])[H])C([H])(OC(=O)C([H])([H])[H])C([H])([H])C([H])([H])C3(C([H])([H])[H])C12[H]

$$$$
52:0:1
     RDKit          3D

 76 80  0  0  1  0  0  0  0  0999 V2000
   -0.2312    5.9236    7.8775 C   0  0  0  0  0  0  0  0  0  0  0  0
   -0.5915    4.5326    7.3706 C   0  0  0  0  0  0  0  0  0  0  0  0
   -1.6713    4.0124    7.6561 O   0  0  0  0  0  0  0  0  0  0  0  0
    0.3721    3.9945    6.5948 O   0  0  0  0  0  0  0  0  0  0  0  0
    0.2150    2.6893    6.0333 C   0  0  2  0  0  0  0  0  0  0  0  0
    1.2397    1.7529    6.6711 C   0  0  0  0  0  0  0  0  0  0  0  0
    0.9356    0.3197    6.2355 C   0  0  0  0  0  0  0  0  0  0  0  0
    1.0634    0.0740    4.7035 C   0  0  2  0  0  0  0  0  0  0  0  0
    0.3271   -1.2752    4.4396 C   0  0  0  0  0  0  0  0  0  0  0  0
    2.5632    0.0109    4.1768 C   0  0  1  0  0  0  0  0  0  0  0  0
    3.6170   -0.6907    5.1306 C   0  0  1  0  0  0  0  0  0  0  0  0
    3.1449   -1.9004    5.6689 O   0  0  0  0  0  0  0  0  0  0  0  0
    5.0842   -0.9026    4.6525 C   0  0  0  0  0  0  0  0  0  0  0  0
    5.1682   -1.6444    3.3436 C   0  0  0  0  0  0  0  0  0  0  0  0
    4.5001   -2.7482    2.9749 C   0  0  0  0  0  0  0  0  0  0  0  0
    3.9754   -3.9361    3.7630 C   0  0  0  0  0  0  0  0  0  0  0  0
    3.9688   -2.4042    1.6289 C   0  0  2  0  0  0  0  0  0  0  0  0
    2.6244   -1.5973    1.9318 C   0  0  0  0  0  0  0  0  0  0  0  0
    2.6772   -0.1571    2.6054 C   0  0  1  0  0  0  0  0  0  0  0  0
    1.7651    0.8542    1.8624 C   0  0  0  0  0  0  0  0  0  0  0  0
    0.3665    1.0417    2.4535 C   0  0  0  0  0  0  0  0  0  0  0  0
   -0.6338    1.0631    1.7519 O   0  0  0  0  0  0  0  0  0  0  0  0
    0.2418    1.1931    3.9717 C   0  0  2  0  0  0  0  0  0  0  0  0
    0.3101    2.6898    4.4848 C   0  0  0  0  0  0  0  0  0  0  0  0
   -0.9305    3.4533    3.9564 C   0  0  0  0  0  0  0  0  0  0  0  0
    1.5591    3.4877    4.0199 C   0  0  0  0  0  0  0  0  0  0  0  0
    3.7575   -3.4873    0.7203 O   0  0  0  0  0  0  0  0  0  0  0  0
    3.3702   -3.0565   -0.6011 C   0  0  0  0  0  0  0  0  0  0  0  0
    4.2379   -1.9098   -1.2112 C   0  0  1  0  0  0  0  0  0  0  0  0
    3.5338   -1.2132   -2.3888 C   0  0  0  0  0  0  0  0  0  0  0  0
    4.7214   -0.8711   -0.1627 C   0  0  0  0  0  0  0  0  0  0  0  0
    5.1746   -1.6118    1.0926 C   0  0  2  0  0  0  0  0  0  0  0  0
    6.4455   -2.4711    0.7910 C   0  0  0  0  0  0  0  0  0  0  0  0
    5.5332   -0.8738    2.2620 O   0  0  0  0  0  0  0  0  0  0  0  0
    0.7099    5.8947    8.4272 H   0  0  0  0  0  0  0  0  0  0  0  0
   -1.0064    6.2982    8.5470 H   0  0  0  0  0  0  0  0  0  0  0  0
   -0.1304    6.6210    7.0456 H   0  0  0  0  0  0  0  0  0  0  0  0
   -0.7692    2.2886    6.2859 H   0  0  0  0  0  0  0  0  0  0  0  0
    2.2591    2.0379    6.4164 H   0  0  0  0  0  0  0  0  0  0  0  0
    1.1607    1.8217    7.7564 H   0  0  0  0  0  0  0  0  0  0  0  0
    1.5424   -0.3731    6.8143 H   0  0  0  0  0  0  0  0  0  0  0  0
   -0.0907    0.1043    6.5476 H   0  0  0  0  0  0  0  0  0  0  0  0
    0.1770   -1.4753    3.3804 H   0  0  0  0  0  0  0  0  0  0  0  0
   -0.6737   -1.2760    4.8759 H   0  0  0  0  0  0  0  0  0  0  0  0
    0.8446   -2.1353    4.8560 H   0  0  0  0  0  0  0  0  0  0  0  0
    2.9018    1.0352    4.2858 H   0  0  0  0  0  0  0  0  0  0  0  0
    3.7088   -0.0393    6.0004 H   0  0  0  0  0  0  0  0  0  0  0  0
    3.0982   -2.5335    4.9645 H   0  0  0  0  0  0  0  0  0  0  0  0
    5.5519    0.0700    4.4997 H   0  0  0  0  0  0  0  0  0  0  0  0
    5.6754   -1.4178    5.4111 H   0  0  0  0  0  0  0  0  0  0  0  0
    4.3745   -4.8365    3.2926 H   0  0  0  0  0  0  0  0  0  0  0  0
    2.8856   -4.0124    3.7407 H   0  0  0  0  0  0  0  0  0  0  0  0
    4.3364   -3.9399    4.7909 H   0  0  0  0  0  0  0  0  0  0  0  0
    2.0889   -1.4689    1.0000 H   0  0  0  0  0  0  0  0  0  0  0  0
    1.9783   -2.2494    2.5114 H   0  0  0  0  0  0  0  0  0  0  0  0
    3.6370    0.2826    2.3572 H   0  0  0  0  0  0  0  0  0  0  0  0
    2.2534    1.8268    1.8452 H   0  0  0  0  0  0  0  0  0  0  0  0
    1.6641    0.5802    0.8140 H   0  0  0  0  0  0  0  0  0  0  0  0
   -0.7959    0.9197    4.1596 H   0  0  0  0  0  0  0  0  0  0  0  0
   -0.9282    3.5373    2.8699 H   0  0  0  0  0  0  0  0  0  0  0  0
   -0.9747    4.4699    4.3475 H   0  0  0  0  0  0  0  0  0  0  0  0
   -1.8558    2.9519    4.2448 H   0  0  0  0  0  0  0  0  0  0  0  0
    1.6391    3.5382    2.9341 H   0  0  0  0  0  0  0  0  0  0  0  0
    2.4932    3.0937    4.4137 H   0  0  0  0  0  0  0  0  0  0  0  0
    1.5068    4.5254    4.3534 H   0  0  0  0  0  0  0  0  0  0  0  0
    3.4125   -3.9258   -1.2587 H   0  0  0  0  0  0  0  0  0  0  0  0
    2.3202   -2.7797   -0.5999 H   0  0  0  0  0  0  0  0  0  0  0  0
    5.1233   -2.3826   -1.6291 H   0  0  0  0  0  0  0  0  0  0  0  0
    2.6358   -0.6880   -2.0605 H   0  0  0  0  0  0  0  0  0  0  0  0
    3.2331   -1.9293   -3.1534 H   0  0  0  0  0  0  0  0  0  0  0  0
    4.1856   -0.4755   -2.8547 H   0  0  0  0  0  0  0  0  0  0  0  0
    5.5493   -0.2896   -0.5605 H   0  0  0  0  0  0  0  0  0  0  0  0
    3.9371   -0.1556    0.0668 H   0  0  0  0  0  0  0  0  0  0  0  0
    6.2753   -3.2451    0.0409 H   0  0  0  0  0  0  0  0  0  0  0  0
    6.8161   -2.9941    1.6749 H   0  0  0  0  0  0  0  0  0  0  0  0
    7.2635   -1.8412    0.4410 H   0  0  0  0  0  0  0  0  0  0  0  0
  1  2  1  0
  1 35  1  0
  1 36  1  0
  1 37  1  0
  2  3  2  0
  2  4  1  0
  4  5  1  0
  5 24  1  0
  5  6  1  0
  5 38  1  6
  6  7  1  0
  6 39  1  0
  6 40  1  0
  7  8  1  0
  7 41  1  0
  7 42  1  0
  8 23  1  0
  8  9  1  1
  8 10  1  0
  9 43  1  0
  9 44  1  0
  9 45  1  0
 10 19  1  0
 10 11  1  0
 10 46  1  6
 11 12  1  0
 11 13  1  0
 11 47  1  1
 12 48  1  0
 13 14  1  0
 13 49  1  0
 13 50  1  0
 14 34  1  0
 14 15  2  0
 15 16  1  0
 15 17  1  0
 16 51  1  0
 16 52  1  0
 16 53  1  0
 17 32  1  0
 17 18  1  0
 17 27  1  6
 18 19  1  0
 18 54  1  0
 18 55  1  0
 19 20  1  0
 19 56  1  6
 20 21  1  0
 20 57  1  0
 20 58  1  0
 21 22  2  0
 21 23  1  0
 23 24  1  0
 23 59  1  6
 24 25  1  0
 24 26  1  0
 25 60  1  0
 25 61  1  0
 25 62  1  0
 26 63  1  0
 26 64  1  0
 26 65  1  0
 27 28  1  0
 28 29  1  0
 28 66  1  0
 28 67  1  0
 29 30  1  0
 29 31  1  0
 29 68  1  6
 30 69  1  0
 30 70  1  0
 30 71  1  0
 31 32  1  0
 31 72  1  0
 31 73  1  0
 32 33  1  6
 32 34  1  0
 33 74  1  0
 33 75  1  0
 33 76  1  0
M  END
>  <i_m_ct_stereo_status>  (140) 
1

>  <s_m_source_file>  (140) 
/var/tmp/pbs.5076255.sched01/tmpav68hifr/35m6z7vsub.sdf

>  <i_m_source_file_index>  (140) 
29

>  <i_lp_mmshare_version>  (140) 
48012

>  <i_f3d_flags>  (140) 
0

>  <s_epik_input>  (140) 
W0NIM11DKD1PKU9bQ0BIXShbQ0gyXVtDSDJdMSlDKFtDSDNdKShbQ0gzXSlbQ0BASF0oQyg9TylbQ0gyXVtDQEBIXTJbQ0gyXTMpW0NAQF0xKFtDSDNdKVtDQEhdMltDQEBIXShbT0hdKVtDSDJdQyg9QzRbQ0gzXSlPW0NAXShbQ0BdMzQ1KShbQ0gzXSlbQ0gyXVtDQEBIXShbQ0gyXU81KVtDSDNd

>  <s_epik_cmdline>  (140) 
J2VwaWtfcHl0aG9uJywgJy1waHQnLCAnMi4wJywgJy1waCcsICc3LjAnLCAnLXRuJywgJzgnLCAnLW1hJywgJzIwMCcsICctaW1hZScsICc8aW5maWxlLm1hZT4nLCAnLW9tYWUnLCAnPG91dGZpbGUubWFlPic=

>  <r_lp_tautomer_probability>  (140) 
1

>  <r_epik_Ionization_Penalty>  (140) 
4.26263e-08

>  <r_epik_Ionization_Penalty_Charging>  (140) 
0

>  <r_epik_Ionization_Penalty_Neutral>  (140) 
4.26263e-08

>  <r_epik_State_Penalty>  (140) 
-0

>  <r_epik_Charging_Adjusted_Penalty>  (140) 
0

>  <i_epik_Tot_Q>  (140) 
0

>  <i_epik_Tot_abs_Q>  (140) 
0

>  <s_epik_Chemistry_Notes>  (140) 
This compound has an ester and may undergo hydrolysis at high or low pH.

>  <s_lp_Force_Field>  (140) 
OPLS3e

>  <r_lp_Energy>  (140) 
82.1351

>  <b_lp_Chiralities_Consistent>  (140) 
1

>  <s_lp_Variant>  (140) 
52:0-1

>  <s_i_glide_gridfile>  (140) 
pfpi4k_grid

>  <i_i_glide_lignum>  (140) 
29

>  <i_i_glide_rotatable_bonds>  (140) 
3

>  <r_i_docking_score>  (140) 
-2.2051

>  <r_i_glide_ligand_efficiency>  (140) 
-0.0648558

>  <r_i_glide_ligand_efficiency_sa>  (140) 
-0.210107

>  <r_i_glide_ligand_efficiency_ln>  (140) 
-0.487168

>  <r_i_glide_gscore>  (140) 
-2.2051

>  <r_i_glide_lipo>  (140) 
-0.319258

>  <r_i_glide_hbond>  (140) 
0

>  <r_i_glide_metal>  (140) 
-0

>  <r_i_glide_rewards>  (140) 
-0.172981

>  <r_i_glide_evdw>  (140) 
-32.5685

>  <r_i_glide_ecoul>  (140) 
-0.808354

>  <r_i_glide_erotb>  (140) 
0.0898304

>  <r_i_glide_esite>  (140) 
-0.0530107

>  <r_i_glide_emodel>  (140) 
-37.539

>  <r_i_glide_energy>  (140) 
-33.3768

>  <r_i_glide_einternal>  (140) 
0.230158

>  <r_i_glide_intrahb_reward>  (140) 
-0

>  <i_i_glide_confnum>  (140) 
1

>  <i_i_glide_posenum>  (140) 
4

>  <r_i_glide_eff_state_penalty>  (140) 
0

>  <ligand_id>  (140) 
52

>  <original_smiles>  (140) 
CC(=O)OC1CCC2(C)C3C(O)CC4=C(C)C5(CC3CC(=O)C2C1(C)C)OCC(C)CC5(C)O4

>  <smiles>  (140) 
[H]OC1([H])C([H])([H])C2=C(C([H])([H])[H])C3(OC([H])([H])C([H])(C([H])([H])[H])C([H])([H])C3(C([H])([H])[H])O2)C([H])([H])C2([H])C([H])([H])C(=O)C3([H])C(C([H])([H])[H])(C([H])([H])[H])C([H])(OC(=O)C([H])([H])[H])C([H])([H])C([H])([H])C3(C([H])([H])[H])C12[H]

$$$$
52:0:2
     RDKit          3D

 76 80  0  0  1  0  0  0  0  0999 V2000
    4.9071   -3.6488    1.0482 C   0  0  0  0  0  0  0  0  0  0  0  0
    3.6127   -2.8523    1.1538 C   0  0  0  0  0  0  0  0  0  0  0  0
    2.6145   -3.1775    0.5077 O   0  0  0  0  0  0  0  0  0  0  0  0
    3.6999   -1.8227    2.0273 O   0  0  0  0  0  0  0  0  0  0  0  0
    2.5796   -0.9637    2.2642 C   0  0  2  0  0  0  0  0  0  0  0  0
    3.0278    0.4794    2.0483 C   0  0  0  0  0  0  0  0  0  0  0  0
    1.7977    1.3841    2.0795 C   0  0  0  0  0  0  0  0  0  0  0  0
    1.0412    1.4009    3.4397 C   0  0  2  0  0  0  0  0  0  0  0  0
   -0.3528    2.0228    3.1248 C   0  0  0  0  0  0  0  0  0  0  0  0
    1.7855    2.2242    4.5800 C   0  0  1  0  0  0  0  0  0  0  0  0
    2.5326    3.5507    4.1288 C   0  0  1  0  0  0  0  0  0  0  0  0
    1.7631    4.3662    3.2792 O   0  0  0  0  0  0  0  0  0  0  0  0
    3.1931    4.4824    5.1944 C   0  0  0  0  0  0  0  0  0  0  0  0
    2.2256    4.9164    6.2710 C   0  0  0  0  0  0  0  0  0  0  0  0
    0.9683    5.3519    6.1208 C   0  0  0  0  0  0  0  0  0  0  0  0
    0.2818    6.1362    5.0151 C   0  0  0  0  0  0  0  0  0  0  0  0
    0.1903    4.5442    7.0997 C   0  0  2  0  0  0  0  0  0  0  0  0
   -0.1250    3.1787    6.3321 C   0  0  0  0  0  0  0  0  0  0  0  0
    1.0489    2.1658    5.9817 C   0  0  1  0  0  0  0  0  0  0  0  0
    0.6727    0.7089    6.3647 C   0  0  0  0  0  0  0  0  0  0  0  0
    0.0865   -0.1420    5.2395 C   0  0  0  0  0  0  0  0  0  0  0  0
   -0.9005   -0.8499    5.4411 O   0  0  0  0  0  0  0  0  0  0  0  0
    0.7838   -0.0915    3.8668 C   0  0  2  0  0  0  0  0  0  0  0  0
    1.9373   -1.1654    3.6691 C   0  0  0  0  0  0  0  0  0  0  0  0
    1.2999   -2.5749    3.6859 C   0  0  0  0  0  0  0  0  0  0  0  0
    3.0384   -1.1654    4.7647 C   0  0  0  0  0  0  0  0  0  0  0  0
   -0.9890    5.1474    7.6419 O   0  0  0  0  0  0  0  0  0  0  0  0
   -1.6115    4.3554    8.6717 C   0  0  0  0  0  0  0  0  0  0  0  0
   -0.6435    3.8223    9.7730 C   0  0  1  0  0  0  0  0  0  0  0  0
   -1.2581    2.6588   10.5666 C   0  0  0  0  0  0  0  0  0  0  0  0
    0.7651    3.4394    9.2395 C   0  0  0  0  0  0  0  0  0  0  0  0
    1.2179    4.5062    8.2427 C   0  0  2  0  0  0  0  0  0  0  0  0
    1.4407    5.8729    8.9674 C   0  0  0  0  0  0  0  0  0  0  0  0
    2.4235    4.3200    7.4980 O   0  0  0  0  0  0  0  0  0  0  0  0
    5.7372   -2.9996    0.7685 H   0  0  0  0  0  0  0  0  0  0  0  0
    4.8112   -4.4295    0.2929 H   0  0  0  0  0  0  0  0  0  0  0  0
    5.1388   -4.1258    2.0013 H   0  0  0  0  0  0  0  0  0  0  0  0
    1.8076   -1.1512    1.5150 H   0  0  0  0  0  0  0  0  0  0  0  0
    3.7709    0.7908    2.7810 H   0  0  0  0  0  0  0  0  0  0  0  0
    3.5082    0.5607    1.0721 H   0  0  0  0  0  0  0  0  0  0  0  0
    2.0763    2.3803    1.7454 H   0  0  0  0  0  0  0  0  0  0  0  0
    1.1221    1.0232    1.2959 H   0  0  0  0  0  0  0  0  0  0  0  0
   -1.0628    1.9175    3.9425 H   0  0  0  0  0  0  0  0  0  0  0  0
   -0.8237    1.5293    2.2711 H   0  0  0  0  0  0  0  0  0  0  0  0
   -0.3049    3.0800    2.8768 H   0  0  0  0  0  0  0  0  0  0  0  0
    2.6555    1.6110    4.7922 H   0  0  0  0  0  0  0  0  0  0  0  0
    3.3691    3.2237    3.5089 H   0  0  0  0  0  0  0  0  0  0  0  0
    1.4723    3.8741    2.5226 H   0  0  0  0  0  0  0  0  0  0  0  0
    4.0021    3.9468    5.6902 H   0  0  0  0  0  0  0  0  0  0  0  0
    3.6394    5.3599    4.7234 H   0  0  0  0  0  0  0  0  0  0  0  0
   -0.1804    7.0105    5.4724 H   0  0  0  0  0  0  0  0  0  0  0  0
   -0.4967    5.5570    4.5140 H   0  0  0  0  0  0  0  0  0  0  0  0
    0.9931    6.5067    4.2776 H   0  0  0  0  0  0  0  0  0  0  0  0
   -0.8453    2.6106    6.9090 H   0  0  0  0  0  0  0  0  0  0  0  0
   -0.6651    3.4326    5.4258 H   0  0  0  0  0  0  0  0  0  0  0  0
    1.8405    2.3245    6.7054 H   0  0  0  0  0  0  0  0  0  0  0  0
    1.5636    0.2017    6.7326 H   0  0  0  0  0  0  0  0  0  0  0  0
   -0.0165    0.6962    7.2091 H   0  0  0  0  0  0  0  0  0  0  0  0
    0.0155   -0.4305    3.1727 H   0  0  0  0  0  0  0  0  0  0  0  0
    0.8441   -2.8172    4.6458 H   0  0  0  0  0  0  0  0  0  0  0  0
    2.0337   -3.3549    3.4813 H   0  0  0  0  0  0  0  0  0  0  0  0
    0.5314   -2.6524    2.9178 H   0  0  0  0  0  0  0  0  0  0  0  0
    2.6332   -1.3377    5.7603 H   0  0  0  0  0  0  0  0  0  0  0  0
    3.6266   -0.2509    4.7886 H   0  0  0  0  0  0  0  0  0  0  0  0
    3.7539   -1.9724    4.5979 H   0  0  0  0  0  0  0  0  0  0  0  0
   -2.3850    4.9670    9.1385 H   0  0  0  0  0  0  0  0  0  0  0  0
   -2.1634    3.5346    8.2232 H   0  0  0  0  0  0  0  0  0  0  0  0
   -0.5091    4.6332   10.4859 H   0  0  0  0  0  0  0  0  0  0  0  0
   -1.4062    1.7794    9.9419 H   0  0  0  0  0  0  0  0  0  0  0  0
   -2.2228    2.9358   10.9948 H   0  0  0  0  0  0  0  0  0  0  0  0
   -0.6114    2.3685   11.3948 H   0  0  0  0  0  0  0  0  0  0  0  0
    1.4717    3.3872   10.0637 H   0  0  0  0  0  0  0  0  0  0  0  0
    0.7545    2.4510    8.7884 H   0  0  0  0  0  0  0  0  0  0  0  0
    0.5353    6.2716    9.4282 H   0  0  0  0  0  0  0  0  0  0  0  0
    1.7968    6.6530    8.2914 H   0  0  0  0  0  0  0  0  0  0  0  0
    2.1934    5.7745    9.7492 H   0  0  0  0  0  0  0  0  0  0  0  0
  1  2  1  0
  1 35  1  0
  1 36  1  0
  1 37  1  0
  2  3  2  0
  2  4  1  0
  4  5  1  0
  5 24  1  0
  5  6  1  0
  5 38  1  6
  6  7  1  0
  6 39  1  0
  6 40  1  0
  7  8  1  0
  7 41  1  0
  7 42  1  0
  8 23  1  0
  8  9  1  6
  8 10  1  0
  9 43  1  0
  9 44  1  0
  9 45  1  0
 10 19  1  0
 10 11  1  0
 10 46  1  1
 11 12  1  0
 11 13  1  0
 11 47  1  6
 12 48  1  0
 13 14  1  0
 13 49  1  0
 13 50  1  0
 14 34  1  0
 14 15  2  0
 15 16  1  0
 15 17  1  0
 16 51  1  0
 16 52  1  0
 16 53  1  0
 17 32  1  0
 17 18  1  0
 17 27  1  1
 18 19  1  0
 18 54  1  0
 18 55  1  0
 19 20  1  0
 19 56  1  1
 20 21  1  0
 20 57  1  0
 20 58  1  0
 21 22  2  0
 21 23  1  0
 23 24  1  0
 23 59  1  6
 24 25  1  0
 24 26  1  0
 25 60  1  0
 25 61  1  0
 25 62  1  0
 26 63  1  0
 26 64  1  0
 26 65  1  0
 27 28  1  0
 28 29  1  0
 28 66  1  0
 28 67  1  0
 29 30  1  0
 29 31  1  0
 29 68  1  1
 30 69  1  0
 30 70  1  0
 30 71  1  0
 31 32  1  0
 31 72  1  0
 31 73  1  0
 32 33  1  1
 32 34  1  0
 33 74  1  0
 33 75  1  0
 33 76  1  0
M  END
>  <i_m_ct_stereo_status>  (141) 
1

>  <s_m_source_file>  (141) 
/var/tmp/pbs.5076255.sched01/tmpav68hifr/35m6z7vsub.sdf

>  <i_m_source_file_index>  (141) 
29

>  <i_lp_mmshare_version>  (141) 
48012

>  <i_f3d_flags>  (141) 
0

>  <s_epik_input>  (141) 
W0NIM11DKD1PKU9bQ0BIXShbQ0gyXVtDSDJdMSlDKFtDSDNdKShbQ0gzXSlbQ0BASF0oQyg9TylbQ0gyXVtDQEBIXTJbQ0gyXTMpW0NAQF0xKFtDSDNdKVtDQEhdMltDQEBIXShbT0hdKVtDSDJdQyg9QzRbQ0gzXSlPW0NAXShbQ0BdMzQ1KShbQ0gzXSlbQ0gyXVtDQEBIXShbQ0gyXU81KVtDSDNd

>  <s_epik_cmdline>  (141) 
J2VwaWtfcHl0aG9uJywgJy1waHQnLCAnMi4wJywgJy1waCcsICc3LjAnLCAnLXRuJywgJzgnLCAnLW1hJywgJzIwMCcsICctaW1hZScsICc8aW5maWxlLm1hZT4nLCAnLW9tYWUnLCAnPG91dGZpbGUubWFlPic=

>  <r_lp_tautomer_probability>  (141) 
1

>  <r_epik_Ionization_Penalty>  (141) 
4.26263e-08

>  <r_epik_Ionization_Penalty_Charging>  (141) 
0

>  <r_epik_Ionization_Penalty_Neutral>  (141) 
4.26263e-08

>  <r_epik_State_Penalty>  (141) 
-0

>  <r_epik_Charging_Adjusted_Penalty>  (141) 
0

>  <i_epik_Tot_Q>  (141) 
0

>  <i_epik_Tot_abs_Q>  (141) 
0

>  <s_epik_Chemistry_Notes>  (141) 
This compound has an ester and may undergo hydrolysis at high or low pH.

>  <s_lp_Force_Field>  (141) 
OPLS3e

>  <r_lp_Energy>  (141) 
82.1351

>  <b_lp_Chiralities_Consistent>  (141) 
1

>  <s_lp_Variant>  (141) 
52:0-1

>  <s_i_glide_gridfile>  (141) 
pfpi4k_grid

>  <i_i_glide_lignum>  (141) 
29

>  <i_i_glide_rotatable_bonds>  (141) 
3

>  <r_i_docking_score>  (141) 
-2.17259

>  <r_i_glide_ligand_efficiency>  (141) 
-0.0638996

>  <r_i_glide_ligand_efficiency_sa>  (141) 
-0.20701

>  <r_i_glide_ligand_efficiency_ln>  (141) 
-0.479985

>  <r_i_glide_gscore>  (141) 
-2.17259

>  <r_i_glide_lipo>  (141) 
-0.159689

>  <r_i_glide_hbond>  (141) 
-0.0408387

>  <r_i_glide_metal>  (141) 
-0

>  <r_i_glide_rewards>  (141) 
-0.172981

>  <r_i_glide_evdw>  (141) 
-28.6524

>  <r_i_glide_ecoul>  (141) 
-2.92578

>  <r_i_glide_erotb>  (141) 
0.0898304

>  <r_i_glide_esite>  (141) 
-0.0174223

>  <r_i_glide_emodel>  (141) 
-35.5552

>  <r_i_glide_energy>  (141) 
-31.5781

>  <r_i_glide_einternal>  (141) 
0.638851

>  <r_i_glide_intrahb_reward>  (141) 
-0

>  <i_i_glide_confnum>  (141) 
1

>  <i_i_glide_posenum>  (141) 
1

>  <r_i_glide_eff_state_penalty>  (141) 
0

>  <ligand_id>  (141) 
52

>  <original_smiles>  (141) 
CC(=O)OC1CCC2(C)C3C(O)CC4=C(C)C5(CC3CC(=O)C2C1(C)C)OCC(C)CC5(C)O4

>  <smiles>  (141) 
[H]OC1([H])C([H])([H])C2=C(C([H])([H])[H])C3(OC([H])([H])C([H])(C([H])([H])[H])C([H])([H])C3(C([H])([H])[H])O2)C([H])([H])C2([H])C([H])([H])C(=O)C3([H])C(C([H])([H])[H])(C([H])([H])[H])C([H])(OC(=O)C([H])([H])[H])C([H])([H])C([H])([H])C3(C([H])([H])[H])C12[H]

$$$$
53:0:0
     RDKit          3D

 56 60  0  0  1  0  0  0  0  0999 V2000
    3.8790   -2.7555    4.6598 C   0  0  0  0  0  0  0  0  0  0  0  0
    3.0393   -1.4690    4.8792 C   0  0  2  0  0  0  0  0  0  0  0  0
    3.1681   -1.0307    6.3420 C   0  0  0  0  0  0  0  0  0  0  0  0
    1.7902   -0.3932    6.6064 C   0  0  2  0  0  0  0  0  0  0  0  0
    0.9524   -1.6019    6.1532 C   0  0  0  0  0  0  0  0  0  0  0  0
    1.5683   -1.8653    4.8266 C   0  0  0  0  0  0  0  0  0  0  0  0
    0.8900   -1.9981    3.6953 C   0  0  0  0  0  0  0  0  0  0  0  0
    1.5019   -1.4323    2.4665 C   0  0  0  0  0  0  0  0  0  0  0  0
    2.1546   -0.0545    2.8253 C   0  0  1  0  0  0  0  0  0  0  0  0
    2.7488    0.2213    1.5502 O   0  0  0  0  0  0  0  0  0  0  0  0
    1.1267    1.1591    3.1745 C   0  0  1  0  0  0  0  0  0  0  0  0
    1.8109    2.3059    2.6519 O   0  0  0  0  0  0  0  0  0  0  0  0
   -0.0277    1.0603    2.1869 C   0  0  0  0  0  0  0  0  0  0  0  0
   -1.2975    1.4405    2.3788 C   0  0  0  0  0  0  0  0  0  0  0  0
   -1.7243    2.0418    3.6323 C   0  0  0  0  0  0  0  0  0  0  0  0
   -2.6369    2.8705    3.6461 O   0  0  0  0  0  0  0  0  0  0  0  0
   -0.9991    1.6166    4.9511 C   0  0  1  0  0  0  0  0  0  0  0  0
   -1.5211    2.6700    6.0243 C   0  0  0  0  0  0  0  0  0  0  0  0
   -1.6825    0.2695    5.3256 C   0  0  0  0  0  0  0  0  0  0  0  0
   -2.1811    0.1418    6.4804 O   0  0  0  0  0  0  0  0  0  0  0  0
   -1.7563   -0.6466    4.4718 O   0  0  0  0  0  0  0  0  0  0  0  0
    0.6297    1.5300    4.7204 C   0  0  2  0  0  0  0  0  0  0  0  0
    0.8013    2.9517    4.7674 O   0  0  0  0  0  0  0  0  0  0  0  0
    1.6286    1.1012    5.9741 C   0  0  1  0  0  0  0  0  0  0  0  0
    1.2490    1.8832    7.2719 C   0  0  0  0  0  0  0  0  0  0  0  0
    3.0683    1.6511    5.6401 C   0  0  0  0  0  0  0  0  0  0  0  0
    3.8755    1.0175    4.4694 C   0  0  1  0  0  0  0  0  0  0  0  0
    5.2232    0.8678    4.8914 O   0  0  0  0  0  0  0  0  0  0  0  0
    3.3360   -0.3060    3.8508 C   0  0  1  0  0  0  0  0  0  0  0  0
    4.3668   -0.7562    3.1144 F   0  0  0  0  0  0  0  0  0  0  0  0
    4.9449   -2.5875    4.8309 H   0  0  0  0  0  0  0  0  0  0  0  0
    3.7573   -3.1514    3.6489 H   0  0  0  0  0  0  0  0  0  0  0  0
    3.5633   -3.5536    5.3361 H   0  0  0  0  0  0  0  0  0  0  0  0
    3.2789   -1.9106    6.9805 H   0  0  0  0  0  0  0  0  0  0  0  0
    4.0551   -0.4633    6.6077 H   0  0  0  0  0  0  0  0  0  0  0  0
    1.6976   -0.3594    7.6936 H   0  0  0  0  0  0  0  0  0  0  0  0
    1.1717   -2.4692    6.7791 H   0  0  0  0  0  0  0  0  0  0  0  0
   -0.1232   -1.5060    6.1895 H   0  0  0  0  0  0  0  0  0  0  0  0
   -0.1713   -2.1971    3.6660 H   0  0  0  0  0  0  0  0  0  0  0  0
    2.2485   -2.1407    2.0923 H   0  0  0  0  0  0  0  0  0  0  0  0
    0.7417   -1.3618    1.6913 H   0  0  0  0  0  0  0  0  0  0  0  0
    2.0990    0.0777    0.8720 H   0  0  0  0  0  0  0  0  0  0  0  0
    1.2149    2.8149    2.1098 H   0  0  0  0  0  0  0  0  0  0  0  0
    0.2161    0.6876    1.2040 H   0  0  0  0  0  0  0  0  0  0  0  0
   -2.0330    1.3410    1.5941 H   0  0  0  0  0  0  0  0  0  0  0  0
   -2.6120    2.6525    6.0817 H   0  0  0  0  0  0  0  0  0  0  0  0
   -1.2719    3.7059    5.7892 H   0  0  0  0  0  0  0  0  0  0  0  0
   -1.2250    2.4769    7.0478 H   0  0  0  0  0  0  0  0  0  0  0  0
    0.5462    3.3028    3.9218 H   0  0  0  0  0  0  0  0  0  0  0  0
    1.0636    2.9461    7.1313 H   0  0  0  0  0  0  0  0  0  0  0  0
    2.0451    1.8340    8.0167 H   0  0  0  0  0  0  0  0  0  0  0  0
    0.3838    1.4376    7.7594 H   0  0  0  0  0  0  0  0  0  0  0  0
    3.0611    2.7252    5.4629 H   0  0  0  0  0  0  0  0  0  0  0  0
    3.6780    1.6026    6.5435 H   0  0  0  0  0  0  0  0  0  0  0  0
    3.9516    1.7570    3.6779 H   0  0  0  0  0  0  0  0  0  0  0  0
    5.7146    0.5418    4.1471 H   0  0  0  0  0  0  0  0  0  0  0  0
  2  1  1  6
  1 31  1  0
  1 32  1  0
  1 33  1  0
  2  6  1  0
  2 29  1  0
  2  3  1  0
  3  4  1  0
  3 34  1  0
  3 35  1  0
  4 24  1  0
  4  5  1  0
  4 36  1  1
  5  6  1  0
  5 37  1  0
  5 38  1  0
  6  7  2  0
  7  8  1  0
  7 39  1  0
  8  9  1  0
  8 40  1  0
  8 41  1  0
  9 29  1  0
  9 10  1  6
  9 11  1  0
 10 42  1  0
 11 22  1  0
 11 12  1  6
 11 13  1  0
 12 43  1  0
 13 14  2  0
 13 44  1  0
 14 15  1  0
 14 45  1  0
 15 16  2  0
 15 17  1  0
 17 18  1  1
 17 19  1  0
 17 22  1  0
 18 46  1  0
 18 47  1  0
 18 48  1  0
 19 20  2  0
 19 21  1  0
 22 23  1  6
 22 24  1  0
 23 49  1  0
 24 25  1  1
 24 26  1  0
 25 50  1  0
 25 51  1  0
 25 52  1  0
 26 27  1  0
 26 53  1  0
 26 54  1  0
 27 28  1  0
 27 29  1  0
 27 55  1  6
 28 56  1  0
 29 30  1  6
M  CHG  1  21  -1
M  END
>  <i_m_ct_stereo_status>  (142) 
1

>  <s_m_source_file>  (142) 
/var/tmp/pbs.5076255.sched01/tmpav68hifr/35m6z7vsub.sdf

>  <i_m_source_file_index>  (142) 
30

>  <i_lp_mmshare_version>  (142) 
48012

>  <i_f3d_flags>  (142) 
0

>  <s_epik_input>  (142) 
W0NIM11bQ0BAXTEyQzM9W0NIXVtDSDJdW0NAQF00KFtPSF0pW0NAXTUoW09IXSlbQ0BAXShbT0hdKShbQ0BdKFtDSDNdKShDKD1PKVtPSF0pQyg9TylbQ0hdPVtDSF01KVtDQEBdKFtDSDNdKShbQ0BIXShbQ0gyXTEpW0NIMl0zKVtDSDJdW0NAQEhdKFtPSF0pW0NAQF0yNEY=

>  <s_epik_cmdline>  (142) 
J2VwaWtfcHl0aG9uJywgJy1waHQnLCAnMi4wJywgJy1waCcsICc3LjAnLCAnLXRuJywgJzgnLCAnLW1hJywgJzIwMCcsICctaW1hZScsICc8aW5maWxlLm1hZT4nLCAnLW9tYWUnLCAnPG91dGZpbGUubWFlPic=

>  <r_lp_tautomer_probability>  (142) 
1

>  <r_epik_Ionization_Penalty>  (142) 
7.9915e-05

>  <r_epik_Ionization_Penalty_Charging>  (142) 
7.74248e-05

>  <r_epik_Ionization_Penalty_Neutral>  (142) 
2.4902e-06

>  <r_epik_State_Penalty>  (142) 
-0

>  <r_epik_Charging_Adjusted_Penalty>  (142) 
7.74248e-05

>  <i_epik_Tot_Q>  (142) 
-1

>  <i_epik_Tot_abs_Q>  (142) 
1

>  <s_lp_Force_Field>  (142) 
OPLS3e

>  <r_lp_Energy>  (142) 
155.937

>  <b_lp_Chiralities_Consistent>  (142) 
1

>  <s_lp_Variant>  (142) 
53:0-1

>  <s_i_glide_gridfile>  (142) 
pfpi4k_grid

>  <i_i_glide_lignum>  (142) 
30

>  <i_i_glide_rotatable_bonds>  (142) 
5

>  <r_i_docking_score>  (142) 
-3.58565

>  <r_i_glide_ligand_efficiency>  (142) 
-0.119522

>  <r_i_glide_ligand_efficiency_sa>  (142) 
-0.371381

>  <r_i_glide_ligand_efficiency_ln>  (142) 
-0.814698

>  <r_i_glide_gscore>  (142) 
-3.58565

>  <r_i_glide_lipo>  (142) 
-0.064191

>  <r_i_glide_hbond>  (142) 
-0.2

>  <r_i_glide_metal>  (142) 
-0

>  <r_i_glide_rewards>  (142) 
-0.602923

>  <r_i_glide_evdw>  (142) 
-24.5919

>  <r_i_glide_ecoul>  (142) 
-9.41715

>  <r_i_glide_erotb>  (142) 
0

>  <r_i_glide_esite>  (142) 
-0.0763669

>  <r_i_glide_emodel>  (142) 
-43.9842

>  <r_i_glide_energy>  (142) 
-34.009

>  <r_i_glide_einternal>  (142) 
2.48964

>  <r_i_glide_intrahb_reward>  (142) 
-0

>  <i_i_glide_confnum>  (142) 
1

>  <i_i_glide_posenum>  (142) 
37

>  <r_i_glide_eff_state_penalty>  (142) 
0

>  <ligand_id>  (142) 
53

>  <original_smiles>  (142) 
CC12CC3CC1=CCC1(O)C4(O)C=CC(=O)C(C)(C(=O)O)C4(O)C3(C)CC(O)C21F

>  <smiles>  (142) 
[H]OC1([H])C([H])([H])C2(C([H])([H])[H])C3([H])C([H])([H])C4=C([H])C([H])([H])C(O[H])(C5(O[H])C([H])=C([H])C(=O)C(C(=O)[O-])(C([H])([H])[H])C52O[H])C1(F)C4(C([H])([H])[H])C3([H])[H]

$$$$
54:0:0
     RDKit          3D

 41 45  0  0  1  0  0  0  0  0999 V2000
    2.0044   -5.9655    1.8181 C   0  0  0  0  0  0  0  0  0  0  0  0
    2.7221   -5.4462    0.5609 C   0  0  0  0  0  0  0  0  0  0  0  0
    3.4927   -4.0578    0.5968 C   0  0  2  0  0  0  0  0  0  0  0  0
    3.6119   -3.6127    2.1685 C   0  0  0  0  0  0  0  0  0  0  0  0
    2.8419   -2.2691    2.7430 C   0  0  0  0  0  0  0  0  0  0  0  0
    2.6564   -0.7890    2.0397 C   0  0  0  0  0  0  0  0  0  0  0  0
    3.7505   -0.1680    0.9414 C   0  0  1  0  0  0  0  0  0  0  0  0
    5.0117   -0.3076    1.5567 O   0  0  0  0  0  0  0  0  0  0  0  0
    5.2674   -1.5076    1.2432 C   0  0  0  0  0  0  0  0  0  0  0  0
    6.2079   -2.2026    1.6379 O   0  0  0  0  0  0  0  0  0  0  0  0
    4.1624   -1.7537    0.3622 N   0  0  0  0  0  0  0  0  0  0  0  0
    2.9777   -2.7836    0.0794 C   0  0  1  0  0  0  0  0  0  0  0  0
    2.9138   -3.4368   -1.3631 C   0  0  1  0  0  0  0  0  0  0  0  0
    3.0285   -2.6242   -2.6359 C   0  0  0  0  0  0  0  0  0  0  0  0
    4.1859   -1.9832   -2.7019 C   0  0  0  0  0  0  0  0  0  0  0  0
    4.8309   -2.1172   -1.3623 C   0  0  1  0  0  0  0  0  0  0  0  0
    6.2532   -1.9135   -1.4762 O   0  0  0  0  0  0  0  0  0  0  0  0
    7.0261   -3.0214   -1.9214 C   0  0  0  0  0  0  0  0  0  0  0  0
    4.0786   -0.8086   -0.5582 C   0  0  1  0  0  0  0  0  0  0  0  0
    4.3080   -3.6904   -0.8727 C   0  0  1  0  0  0  0  0  0  0  0  0
    1.3788   -6.8283    1.5944 H   0  0  0  0  0  0  0  0  0  0  0  0
    1.3511   -5.1939    2.2237 H   0  0  0  0  0  0  0  0  0  0  0  0
    2.7196   -6.2771    2.5837 H   0  0  0  0  0  0  0  0  0  0  0  0
    3.4181   -6.2067    0.2147 H   0  0  0  0  0  0  0  0  0  0  0  0
    1.8988   -5.4819   -0.1417 H   0  0  0  0  0  0  0  0  0  0  0  0
    3.2782   -4.3540    2.8850 H   0  0  0  0  0  0  0  0  0  0  0  0
    4.6506   -3.6466    2.4825 H   0  0  0  0  0  0  0  0  0  0  0  0
    1.8301   -2.5875    2.9853 H   0  0  0  0  0  0  0  0  0  0  0  0
    3.2949   -2.0741    3.7158 H   0  0  0  0  0  0  0  0  0  0  0  0
    1.6614   -0.7348    1.5904 H   0  0  0  0  0  0  0  0  0  0  0  0
    2.6077   -0.0763    2.8636 H   0  0  0  0  0  0  0  0  0  0  0  0
    3.5280    0.8937    0.8345 H   0  0  0  0  0  0  0  0  0  0  0  0
    1.9622   -2.5347    0.3885 H   0  0  0  0  0  0  0  0  0  0  0  0
    2.2530   -4.2544   -1.5777 H   0  0  0  0  0  0  0  0  0  0  0  0
    2.2941   -2.6619   -3.4305 H   0  0  0  0  0  0  0  0  0  0  0  0
    4.5551   -1.3932   -3.5214 H   0  0  0  0  0  0  0  0  0  0  0  0
    8.0656   -2.7133   -2.0301 H   0  0  0  0  0  0  0  0  0  0  0  0
    6.6815   -3.3964   -2.8858 H   0  0  0  0  0  0  0  0  0  0  0  0
    7.0144   -3.8370   -1.1980 H   0  0  0  0  0  0  0  0  0  0  0  0
    4.8545   -0.0933   -0.8198 H   0  0  0  0  0  0  0  0  0  0  0  0
    4.7487   -4.5443   -1.3980 H   0  0  0  0  0  0  0  0  0  0  0  0
  1  2  1  0
  1 21  1  0
  1 22  1  0
  1 23  1  0
  3  2  1  1
  2 24  1  0
  2 25  1  0
  3 12  1  0
  3 20  1  0
  3  4  1  0
  4  5  1  0
  4 26  1  0
  4 27  1  0
  5  6  1  0
  5 28  1  0
  5 29  1  0
  6  7  1  0
  6 30  1  0
  6 31  1  0
  7 19  1  0
  7  8  1  0
  7 32  1  6
  8  9  1  0
  9 10  2  0
  9 11  1  0
 11 19  1  0
 11 12  1  0
 12 13  1  0
 12 33  1  1
 13 20  1  0
 13 14  1  0
 13 34  1  6
 14 15  2  0
 14 35  1  0
 15 16  1  0
 15 36  1  0
 16 17  1  6
 16 19  1  0
 16 20  1  0
 17 18  1  0
 18 37  1  0
 18 38  1  0
 18 39  1  0
 19 40  1  6
 20 41  1  6
M  END
>  <i_m_ct_stereo_status>  (143) 
1

>  <s_m_source_file>  (143) 
/var/tmp/pbs.5076255.sched01/tmpav68hifr/35m6z7vsub.sdf

>  <i_m_source_file_index>  (143) 
31

>  <i_lp_mmshare_version>  (143) 
48012

>  <i_f3d_flags>  (143) 
0

>  <s_epik_input>  (143) 
W0NIM11bQ0gyXVtDQEBdMTJbQ0BIXTNONFtDQEBIXShbQ0BIXShPQzQ9TylbQ0gyXVtDSDJdW0NIMl0xKVtDQEBdNShPW0NIM10pW0NAQEhdMltDQEBIXTNbQ0hdPVtDSF01

>  <s_epik_cmdline>  (143) 
J2VwaWtfcHl0aG9uJywgJy1waHQnLCAnMi4wJywgJy1waCcsICc3LjAnLCAnLXRuJywgJzgnLCAnLW1hJywgJzIwMCcsICctaW1hZScsICc8aW5maWxlLm1hZT4nLCAnLW9tYWUnLCAnPG91dGZpbGUubWFlPic=

>  <r_lp_tautomer_probability>  (143) 
1

>  <r_epik_Ionization_Penalty>  (143) 
4.20864e-07

>  <r_epik_Ionization_Penalty_Charging>  (143) 
0

>  <r_epik_Ionization_Penalty_Neutral>  (143) 
4.20864e-07

>  <r_epik_State_Penalty>  (143) 
-0

>  <r_epik_Charging_Adjusted_Penalty>  (143) 
0

>  <i_epik_Tot_Q>  (143) 
0

>  <i_epik_Tot_abs_Q>  (143) 
0

>  <s_epik_Chemistry_Notes>  (143) 
This compound has an ester and may undergo hydrolysis at high or low pH.

>  <s_lp_Force_Field>  (143) 
OPLS3e

>  <r_lp_Energy>  (143) 
349.718

>  <b_lp_Chiralities_Consistent>  (143) 
1

>  <s_lp_Variant>  (143) 
54:0-1

>  <s_i_glide_gridfile>  (143) 
pfpi4k_grid

>  <i_i_glide_lignum>  (143) 
31

>  <i_i_glide_rotatable_bonds>  (143) 
2

>  <r_i_docking_score>  (143) 
-3.65568

>  <r_i_glide_ligand_efficiency>  (143) 
-0.182784

>  <r_i_glide_ligand_efficiency_sa>  (143) 
-0.496152

>  <r_i_glide_ligand_efficiency_ln>  (143) 
-0.914896

>  <r_i_glide_gscore>  (143) 
-3.65568

>  <r_i_glide_lipo>  (143) 
-0.14134

>  <r_i_glide_hbond>  (143) 
-0.219472

>  <r_i_glide_metal>  (143) 
-0

>  <r_i_glide_rewards>  (143) 
-1.66143

>  <r_i_glide_evdw>  (143) 
-22.461

>  <r_i_glide_ecoul>  (143) 
-3.28321

>  <r_i_glide_erotb>  (143) 
0

>  <r_i_glide_esite>  (143) 
-0.0179086

>  <r_i_glide_emodel>  (143) 
-23.6724

>  <r_i_glide_energy>  (143) 
-25.7442

>  <r_i_glide_einternal>  (143) 
16.0147

>  <r_i_glide_intrahb_reward>  (143) 
-0

>  <i_i_glide_confnum>  (143) 
2

>  <i_i_glide_posenum>  (143) 
26

>  <r_i_glide_eff_state_penalty>  (143) 
0

>  <ligand_id>  (143) 
54

>  <original_smiles>  (143) 
CCC12CCCC3OC(=O)N4C1C1C=CC(OC)(C34)C12

>  <smiles>  (143) 
[H]C1=C([H])C2(OC([H])([H])[H])C3([H])N4C(=O)OC3([H])C([H])([H])C([H])([H])C([H])([H])C3(C([H])([H])C([H])([H])[H])C4([H])C1([H])C23[H]

$$$$
54:0:1
     RDKit          3D

 41 45  0  0  1  0  0  0  0  0999 V2000
    7.2838   -6.1520    1.1117 C   0  0  0  0  0  0  0  0  0  0  0  0
    5.8223   -5.7014    1.3129 C   0  0  0  0  0  0  0  0  0  0  0  0
    5.3966   -4.3147    0.7027 C   0  0  2  0  0  0  0  0  0  0  0  0
    6.3522   -3.2472    1.4479 C   0  0  0  0  0  0  0  0  0  0  0  0
    5.7935   -2.0787    2.4735 C   0  0  0  0  0  0  0  0  0  0  0  0
    4.4096   -1.1822    2.3847 C   0  0  0  0  0  0  0  0  0  0  0  0
    3.6848   -0.7987    0.9343 C   0  0  1  0  0  0  0  0  0  0  0  0
    4.7298   -0.2658    0.1578 O   0  0  0  0  0  0  0  0  0  0  0  0
    5.2216   -1.3400   -0.3064 C   0  0  0  0  0  0  0  0  0  0  0  0
    6.2459   -1.4748   -0.9694 O   0  0  0  0  0  0  0  0  0  0  0  0
    4.2552   -2.2661    0.1871 N   0  0  0  0  0  0  0  0  0  0  0  0
    4.1352   -3.6296    1.0084 C   0  0  1  0  0  0  0  0  0  0  0  0
    3.3982   -4.8400    0.3232 C   0  0  1  0  0  0  0  0  0  0  0  0
    2.0584   -4.6710   -0.3278 C   0  0  0  0  0  0  0  0  0  0  0  0
    2.0863   -3.7814   -1.3036 C   0  0  0  0  0  0  0  0  0  0  0  0
    3.4127   -3.1091   -1.2659 C   0  0  1  0  0  0  0  0  0  0  0  0
    3.7747   -2.5589   -2.5434 O   0  0  0  0  0  0  0  0  0  0  0  0
    3.9945   -3.4609   -3.6184 C   0  0  0  0  0  0  0  0  0  0  0  0
    3.0374   -1.8862   -0.1347 C   0  0  1  0  0  0  0  0  0  0  0  0
    4.4166   -4.3874   -0.6897 C   0  0  1  0  0  0  0  0  0  0  0  0
    7.4388   -7.1028    1.6233 H   0  0  0  0  0  0  0  0  0  0  0  0
    8.0444   -5.4737    1.4944 H   0  0  0  0  0  0  0  0  0  0  0  0
    7.5035   -6.3152    0.0621 H   0  0  0  0  0  0  0  0  0  0  0  0
    5.2934   -6.5377    0.8594 H   0  0  0  0  0  0  0  0  0  0  0  0
    5.5609   -5.7156    2.3730 H   0  0  0  0  0  0  0  0  0  0  0  0
    7.0267   -3.7905    2.0875 H   0  0  0  0  0  0  0  0  0  0  0  0
    7.0798   -2.8417    0.7535 H   0  0  0  0  0  0  0  0  0  0  0  0
    5.7734   -2.5301    3.4646 H   0  0  0  0  0  0  0  0  0  0  0  0
    6.6003   -1.3442    2.5250 H   0  0  0  0  0  0  0  0  0  0  0  0
    3.6552   -1.6380    3.0320 H   0  0  0  0  0  0  0  0  0  0  0  0
    4.6450   -0.2357    2.8674 H   0  0  0  0  0  0  0  0  0  0  0  0
    2.9437   -0.0207    1.1222 H   0  0  0  0  0  0  0  0  0  0  0  0
    3.8284   -3.6033    2.0545 H   0  0  0  0  0  0  0  0  0  0  0  0
    3.4414   -5.8154    0.7982 H   0  0  0  0  0  0  0  0  0  0  0  0
    1.2216   -5.3206   -0.1244 H   0  0  0  0  0  0  0  0  0  0  0  0
    1.2953   -3.5423   -2.0039 H   0  0  0  0  0  0  0  0  0  0  0  0
    4.1933   -2.8797   -4.5184 H   0  0  0  0  0  0  0  0  0  0  0  0
    3.1236   -4.0787   -3.8337 H   0  0  0  0  0  0  0  0  0  0  0  0
    4.8598   -4.1041   -3.4559 H   0  0  0  0  0  0  0  0  0  0  0  0
    2.8080   -1.1467   -0.9067 H   0  0  0  0  0  0  0  0  0  0  0  0
    4.6728   -5.1839   -1.3914 H   0  0  0  0  0  0  0  0  0  0  0  0
  1  2  1  0
  1 21  1  0
  1 22  1  0
  1 23  1  0
  3  2  1  1
  2 24  1  0
  2 25  1  0
  3 12  1  0
  3 20  1  0
  3  4  1  0
  4  5  1  0
  4 26  1  0
  4 27  1  0
  5  6  1  0
  5 28  1  0
  5 29  1  0
  6  7  1  0
  6 30  1  0
  6 31  1  0
  7 19  1  0
  7  8  1  0
  7 32  1  1
  8  9  1  0
  9 10  2  0
  9 11  1  0
 11 19  1  0
 11 12  1  0
 12 13  1  0
 12 33  1  1
 13 20  1  0
 13 14  1  0
 13 34  1  1
 14 15  2  0
 14 35  1  0
 15 16  1  0
 15 36  1  0
 16 17  1  6
 16 19  1  0
 16 20  1  0
 17 18  1  0
 18 37  1  0
 18 38  1  0
 18 39  1  0
 19 40  1  1
 20 41  1  6
M  END
>  <i_m_ct_stereo_status>  (144) 
1

>  <s_m_source_file>  (144) 
/var/tmp/pbs.5076255.sched01/tmpav68hifr/35m6z7vsub.sdf

>  <i_m_source_file_index>  (144) 
31

>  <i_lp_mmshare_version>  (144) 
48012

>  <i_f3d_flags>  (144) 
0

>  <s_epik_input>  (144) 
W0NIM11bQ0gyXVtDQEBdMTJbQ0BIXTNONFtDQEBIXShbQ0BIXShPQzQ9TylbQ0gyXVtDSDJdW0NIMl0xKVtDQEBdNShPW0NIM10pW0NAQEhdMltDQEBIXTNbQ0hdPVtDSF01

>  <s_epik_cmdline>  (144) 
J2VwaWtfcHl0aG9uJywgJy1waHQnLCAnMi4wJywgJy1waCcsICc3LjAnLCAnLXRuJywgJzgnLCAnLW1hJywgJzIwMCcsICctaW1hZScsICc8aW5maWxlLm1hZT4nLCAnLW9tYWUnLCAnPG91dGZpbGUubWFlPic=

>  <r_lp_tautomer_probability>  (144) 
1

>  <r_epik_Ionization_Penalty>  (144) 
4.20864e-07

>  <r_epik_Ionization_Penalty_Charging>  (144) 
0

>  <r_epik_Ionization_Penalty_Neutral>  (144) 
4.20864e-07

>  <r_epik_State_Penalty>  (144) 
-0

>  <r_epik_Charging_Adjusted_Penalty>  (144) 
0

>  <i_epik_Tot_Q>  (144) 
0

>  <i_epik_Tot_abs_Q>  (144) 
0

>  <s_epik_Chemistry_Notes>  (144) 
This compound has an ester and may undergo hydrolysis at high or low pH.

>  <s_lp_Force_Field>  (144) 
OPLS3e

>  <r_lp_Energy>  (144) 
349.718

>  <b_lp_Chiralities_Consistent>  (144) 
1

>  <s_lp_Variant>  (144) 
54:0-1

>  <s_i_glide_gridfile>  (144) 
pfpi4k_grid

>  <i_i_glide_lignum>  (144) 
31

>  <i_i_glide_rotatable_bonds>  (144) 
2

>  <r_i_docking_score>  (144) 
-3.16013

>  <r_i_glide_ligand_efficiency>  (144) 
-0.158006

>  <r_i_glide_ligand_efficiency_sa>  (144) 
-0.428895

>  <r_i_glide_ligand_efficiency_ln>  (144) 
-0.790875

>  <r_i_glide_gscore>  (144) 
-3.16013

>  <r_i_glide_lipo>  (144) 
-0.54548

>  <r_i_glide_hbond>  (144) 
-0.11952

>  <r_i_glide_metal>  (144) 
-0

>  <r_i_glide_rewards>  (144) 
-1.53175

>  <r_i_glide_evdw>  (144) 
-13.835

>  <r_i_glide_ecoul>  (144) 
-1.61794

>  <r_i_glide_erotb>  (144) 
0

>  <r_i_glide_esite>  (144) 
-0.0289329

>  <r_i_glide_emodel>  (144) 
-18.963

>  <r_i_glide_energy>  (144) 
-15.4529

>  <r_i_glide_einternal>  (144) 
2.03793

>  <r_i_glide_intrahb_reward>  (144) 
-0

>  <i_i_glide_confnum>  (144) 
1

>  <i_i_glide_posenum>  (144) 
1

>  <r_i_glide_eff_state_penalty>  (144) 
0

>  <ligand_id>  (144) 
54

>  <original_smiles>  (144) 
CCC12CCCC3OC(=O)N4C1C1C=CC(OC)(C34)C12

>  <smiles>  (144) 
[H]C1=C([H])C2(OC([H])([H])[H])C3([H])N4C(=O)OC3([H])C([H])([H])C([H])([H])C([H])([H])C3(C([H])([H])C([H])([H])[H])C4([H])C1([H])C23[H]

$$$$
54:1:0
     RDKit          3D

 41 45  0  0  1  0  0  0  0  0999 V2000
    3.1326   -0.1616    2.8621 C   0  0  0  0  0  0  0  0  0  0  0  0
    4.5428   -0.6744    2.5255 C   0  0  0  0  0  0  0  0  0  0  0  0
    4.6497   -1.5485    1.2275 C   0  0  2  0  0  0  0  0  0  0  0  0
    4.1888   -0.5196    0.0918 C   0  0  0  0  0  0  0  0  0  0  0  0
    4.6410   -0.6251   -1.4321 C   0  0  0  0  0  0  0  0  0  0  0  0
    4.0473   -1.7253   -2.3569 C   0  0  0  0  0  0  0  0  0  0  0  0
    3.7481   -2.8631   -1.4309 C   0  0  1  0  0  0  0  0  0  0  0  0
    2.6862   -3.7884   -1.3796 O   0  0  0  0  0  0  0  0  0  0  0  0
    2.7778   -4.3810   -0.1647 C   0  0  0  0  0  0  0  0  0  0  0  0
    1.9082   -5.0743    0.3789 O   0  0  0  0  0  0  0  0  0  0  0  0
    4.0284   -4.0221    0.3264 N   0  0  0  0  0  0  0  0  0  0  0  0
    4.2064   -3.0857    1.4867 C   0  0  1  0  0  0  0  0  0  0  0  0
    5.6450   -3.2508    2.0808 C   0  0  1  0  0  0  0  0  0  0  0  0
    6.5000   -4.4249    1.6630 C   0  0  0  0  0  0  0  0  0  0  0  0
    6.8869   -4.3042    0.4030 C   0  0  0  0  0  0  0  0  0  0  0  0
    6.2518   -3.0947   -0.2613 C   0  0  1  0  0  0  0  0  0  0  0  0
    7.0431   -2.5286   -1.3152 O   0  0  0  0  0  0  0  0  0  0  0  0
    8.4244   -2.3226   -1.0482 C   0  0  0  0  0  0  0  0  0  0  0  0
    4.8802   -3.6427   -0.7822 C   0  0  2  0  0  0  0  0  0  0  0  0
    6.0092   -2.2244    0.9867 C   0  0  1  0  0  0  0  0  0  0  0  0
    3.1294    0.3072    3.8475 H   0  0  0  0  0  0  0  0  0  0  0  0
    2.4076   -0.9761    2.8858 H   0  0  0  0  0  0  0  0  0  0  0  0
    2.7878    0.5907    2.1550 H   0  0  0  0  0  0  0  0  0  0  0  0
    5.2477    0.1544    2.4824 H   0  0  0  0  0  0  0  0  0  0  0  0
    4.8315   -1.1990    3.4303 H   0  0  0  0  0  0  0  0  0  0  0  0
    3.1009   -0.4150    0.1107 H   0  0  0  0  0  0  0  0  0  0  0  0
    4.5342    0.4733    0.3864 H   0  0  0  0  0  0  0  0  0  0  0  0
    4.3282    0.2805   -1.9413 H   0  0  0  0  0  0  0  0  0  0  0  0
    5.7229   -0.5933   -1.5002 H   0  0  0  0  0  0  0  0  0  0  0  0
    3.1206   -1.3692   -2.8129 H   0  0  0  0  0  0  0  0  0  0  0  0
    4.7310   -1.9989   -3.1644 H   0  0  0  0  0  0  0  0  0  0  0  0
    3.1761   -2.2579   -0.7417 H   0  0  0  0  0  0  0  0  0  0  0  0
    3.4355   -3.1578    2.2516 H   0  0  0  0  0  0  0  0  0  0  0  0
    5.8205   -2.9467    3.1096 H   0  0  0  0  0  0  0  0  0  0  0  0
    6.8154   -5.2069    2.3437 H   0  0  0  0  0  0  0  0  0  0  0  0
    7.5689   -4.9747   -0.1020 H   0  0  0  0  0  0  0  0  0  0  0  0
    8.8739   -1.8576   -1.9237 H   0  0  0  0  0  0  0  0  0  0  0  0
    8.9522   -3.2617   -0.8931 H   0  0  0  0  0  0  0  0  0  0  0  0
    8.6041   -1.6707   -0.1924 H   0  0  0  0  0  0  0  0  0  0  0  0
    5.0937   -4.5171   -1.3991 H   0  0  0  0  0  0  0  0  0  0  0  0
    6.8449   -1.6085    1.2936 H   0  0  0  0  0  0  0  0  0  0  0  0
  1  2  1  0
  1 21  1  0
  1 22  1  0
  1 23  1  0
  3  2  1  1
  2 24  1  0
  2 25  1  0
  3 12  1  0
  3 20  1  0
  3  4  1  0
  4  5  1  0
  4 26  1  0
  4 27  1  0
  5  6  1  0
  5 28  1  0
  5 29  1  0
  6  7  1  0
  6 30  1  0
  6 31  1  0
  7 19  1  0
  7  8  1  0
  7 32  1  1
  8  9  1  0
  9 10  2  0
  9 11  1  0
 11 19  1  0
 11 12  1  0
 12 13  1  0
 12 33  1  1
 13 20  1  0
 13 14  1  0
 13 34  1  1
 14 15  2  0
 14 35  1  0
 15 16  1  0
 15 36  1  0
 16 17  1  6
 16 19  1  0
 16 20  1  0
 17 18  1  0
 18 37  1  0
 18 38  1  0
 18 39  1  0
 19 40  1  6
 20 41  1  1
M  END
>  <i_m_ct_stereo_status>  (145) 
1

>  <s_m_source_file>  (145) 
/var/tmp/pbs.5076255.sched01/tmpav68hifr/35m6z7vsub.sdf

>  <i_m_source_file_index>  (145) 
32

>  <i_lp_mmshare_version>  (145) 
48012

>  <i_f3d_flags>  (145) 
0

>  <s_epik_input>  (145) 
W0NIM11bQ0gyXVtDQEBdMTJbQ0BIXTNONFtDQEBIXShbQ0BIXShPQzQ9TylbQ0gyXVtDSDJdW0NIMl0xKVtDQEBdNShPW0NIM10pW0NAQEhdMltDQEBIXTNbQ0hdPVtDSF01

>  <s_epik_cmdline>  (145) 
J2VwaWtfcHl0aG9uJywgJy1waHQnLCAnMi4wJywgJy1waCcsICc3LjAnLCAnLXRuJywgJzgnLCAnLW1hJywgJzIwMCcsICctaW1hZScsICc8aW5maWxlLm1hZT4nLCAnLW9tYWUnLCAnPG91dGZpbGUubWFlPic=

>  <r_lp_tautomer_probability>  (145) 
1

>  <r_epik_Ionization_Penalty>  (145) 
4.20864e-07

>  <r_epik_Ionization_Penalty_Charging>  (145) 
0

>  <r_epik_Ionization_Penalty_Neutral>  (145) 
4.20864e-07

>  <r_epik_State_Penalty>  (145) 
-0

>  <r_epik_Charging_Adjusted_Penalty>  (145) 
0

>  <i_epik_Tot_Q>  (145) 
0

>  <i_epik_Tot_abs_Q>  (145) 
0

>  <s_epik_Chemistry_Notes>  (145) 
This compound has an ester and may undergo hydrolysis at high or low pH.

>  <s_lp_Force_Field>  (145) 
OPLS3e

>  <r_lp_Energy>  (145) 
112.206

>  <b_lp_Chiralities_Consistent>  (145) 
1

>  <s_lp_Variant>  (145) 
54:0-2

>  <s_i_glide_gridfile>  (145) 
pfpi4k_grid

>  <i_i_glide_lignum>  (145) 
32

>  <i_i_glide_rotatable_bonds>  (145) 
2

>  <r_i_docking_score>  (145) 
-3.55348

>  <r_i_glide_ligand_efficiency>  (145) 
-0.177674

>  <r_i_glide_ligand_efficiency_sa>  (145) 
-0.482281

>  <r_i_glide_ligand_efficiency_ln>  (145) 
-0.889318

>  <r_i_glide_gscore>  (145) 
-3.55348

>  <r_i_glide_lipo>  (145) 
-0.608617

>  <r_i_glide_hbond>  (145) 
-0.213796

>  <r_i_glide_metal>  (145) 
-0

>  <r_i_glide_rewards>  (145) 
-1.55414

>  <r_i_glide_evdw>  (145) 
-15.7729

>  <r_i_glide_ecoul>  (145) 
-2.28778

>  <r_i_glide_erotb>  (145) 
0

>  <r_i_glide_esite>  (145) 
-0.0451119

>  <r_i_glide_emodel>  (145) 
-21.0854

>  <r_i_glide_energy>  (145) 
-18.0607

>  <r_i_glide_einternal>  (145) 
2.40696

>  <r_i_glide_intrahb_reward>  (145) 
-0

>  <i_i_glide_confnum>  (145) 
1

>  <i_i_glide_posenum>  (145) 
12

>  <r_i_glide_eff_state_penalty>  (145) 
0

>  <ligand_id>  (145) 
54

>  <original_smiles>  (145) 
CCC12CCCC3OC(=O)N4C1C1C=CC(OC)(C34)C12

>  <smiles>  (145) 
[H]C1=C([H])C2(OC([H])([H])[H])C3([H])N4C(=O)OC3([H])C([H])([H])C([H])([H])C([H])([H])C3(C([H])([H])C([H])([H])[H])C4([H])C1([H])C23[H]

$$$$
54:1:1
     RDKit          3D

 41 45  0  0  1  0  0  0  0  0999 V2000
    4.2432   -1.1751    3.9515 C   0  0  0  0  0  0  0  0  0  0  0  0
    4.8950   -0.7628    2.6053 C   0  0  0  0  0  0  0  0  0  0  0  0
    4.7747   -1.7672    1.3933 C   0  0  2  0  0  0  0  0  0  0  0  0
    4.2068   -0.8363    0.2122 C   0  0  0  0  0  0  0  0  0  0  0  0
    4.4621   -1.1095   -1.3359 C   0  0  0  0  0  0  0  0  0  0  0  0
    3.7191   -2.2891   -2.0373 C   0  0  0  0  0  0  0  0  0  0  0  0
    3.5113   -3.3215   -0.9705 C   0  0  1  0  0  0  0  0  0  0  0  0
    2.4516   -4.2131   -0.7012 O   0  0  0  0  0  0  0  0  0  0  0  0
    2.6819   -4.6590    0.5684 C   0  0  0  0  0  0  0  0  0  0  0  0
    1.8544   -5.1661    1.3229 O   0  0  0  0  0  0  0  0  0  0  0  0
    4.0107   -4.3035    0.8301 N   0  0  0  0  0  0  0  0  0  0  0  0
    4.3373   -3.2624    1.8524 C   0  0  1  0  0  0  0  0  0  0  0  0
    5.8372   -3.4027    2.2740 C   0  0  1  0  0  0  0  0  0  0  0  0
    6.6053   -4.6495    1.8994 C   0  0  0  0  0  0  0  0  0  0  0  0
    6.8369   -4.6830    0.5834 C   0  0  0  0  0  0  0  0  0  0  0  0
    6.1402   -3.5327   -0.1206 C   0  0  1  0  0  0  0  0  0  0  0  0
    6.8135   -3.1174   -1.3177 O   0  0  0  0  0  0  0  0  0  0  0  0
    8.2089   -2.8377   -1.2291 C   0  0  0  0  0  0  0  0  0  0  0  0
    4.7065   -4.0801   -0.4098 C   0  0  2  0  0  0  0  0  0  0  0  0
    6.0732   -2.5179    1.0441 C   0  0  1  0  0  0  0  0  0  0  0  0
    4.4206   -0.4305    4.7287 H   0  0  0  0  0  0  0  0  0  0  0  0
    4.6208   -2.1095    4.3631 H   0  0  0  0  0  0  0  0  0  0  0  0
    3.1670   -1.2854    3.8236 H   0  0  0  0  0  0  0  0  0  0  0  0
    4.4341    0.2027    2.3866 H   0  0  0  0  0  0  0  0  0  0  0  0
    5.9448   -0.5179    2.7846 H   0  0  0  0  0  0  0  0  0  0  0  0
    3.1378   -0.6556    0.3741 H   0  0  0  0  0  0  0  0  0  0  0  0
    4.6447    0.1561    0.3168 H   0  0  0  0  0  0  0  0  0  0  0  0
    4.1551   -0.2246   -1.8846 H   0  0  0  0  0  0  0  0  0  0  0  0
    5.5278   -1.1543   -1.5306 H   0  0  0  0  0  0  0  0  0  0  0  0
    2.7445   -1.9525   -2.4100 H   0  0  0  0  0  0  0  0  0  0  0  0
    4.2794   -2.6851   -2.8905 H   0  0  0  0  0  0  0  0  0  0  0  0
    3.0657   -2.6224   -0.2727 H   0  0  0  0  0  0  0  0  0  0  0  0
    3.6462   -3.2944    2.6932 H   0  0  0  0  0  0  0  0  0  0  0  0
    6.1864   -2.9151    3.1766 H   0  0  0  0  0  0  0  0  0  0  0  0
    6.9856   -5.3696    2.6158 H   0  0  0  0  0  0  0  0  0  0  0  0
    7.4147   -5.4438    0.0918 H   0  0  0  0  0  0  0  0  0  0  0  0
    8.5626   -2.4957   -2.2019 H   0  0  0  0  0  0  0  0  0  0  0  0
    8.7783   -3.7305   -0.9747 H   0  0  0  0  0  0  0  0  0  0  0  0
    8.4407   -2.0549   -0.5076 H   0  0  0  0  0  0  0  0  0  0  0  0
    4.8252   -5.0225   -0.9488 H   0  0  0  0  0  0  0  0  0  0  0  0
    6.9607   -1.8976    1.1927 H   0  0  0  0  0  0  0  0  0  0  0  0
  1  2  1  0
  1 21  1  0
  1 22  1  0
  1 23  1  0
  3  2  1  1
  2 24  1  0
  2 25  1  0
  3 12  1  0
  3 20  1  0
  3  4  1  0
  4  5  1  0
  4 26  1  0
  4 27  1  0
  5  6  1  0
  5 28  1  0
  5 29  1  0
  6  7  1  0
  6 30  1  0
  6 31  1  0
  7 19  1  0
  7  8  1  0
  7 32  1  1
  8  9  1  0
  9 10  2  0
  9 11  1  0
 11 19  1  0
 11 12  1  0
 12 13  1  0
 12 33  1  1
 13 20  1  0
 13 14  1  0
 13 34  1  1
 14 15  2  0
 14 35  1  0
 15 16  1  0
 15 36  1  0
 16 17  1  6
 16 19  1  0
 16 20  1  0
 17 18  1  0
 18 37  1  0
 18 38  1  0
 18 39  1  0
 19 40  1  6
 20 41  1  1
M  END
>  <i_m_ct_stereo_status>  (146) 
1

>  <s_m_source_file>  (146) 
/var/tmp/pbs.5076255.sched01/tmpav68hifr/35m6z7vsub.sdf

>  <i_m_source_file_index>  (146) 
32

>  <i_lp_mmshare_version>  (146) 
48012

>  <i_f3d_flags>  (146) 
0

>  <s_epik_input>  (146) 
W0NIM11bQ0gyXVtDQEBdMTJbQ0BIXTNONFtDQEBIXShbQ0BIXShPQzQ9TylbQ0gyXVtDSDJdW0NIMl0xKVtDQEBdNShPW0NIM10pW0NAQEhdMltDQEBIXTNbQ0hdPVtDSF01

>  <s_epik_cmdline>  (146) 
J2VwaWtfcHl0aG9uJywgJy1waHQnLCAnMi4wJywgJy1waCcsICc3LjAnLCAnLXRuJywgJzgnLCAnLW1hJywgJzIwMCcsICctaW1hZScsICc8aW5maWxlLm1hZT4nLCAnLW9tYWUnLCAnPG91dGZpbGUubWFlPic=

>  <r_lp_tautomer_probability>  (146) 
1

>  <r_epik_Ionization_Penalty>  (146) 
4.20864e-07

>  <r_epik_Ionization_Penalty_Charging>  (146) 
0

>  <r_epik_Ionization_Penalty_Neutral>  (146) 
4.20864e-07

>  <r_epik_State_Penalty>  (146) 
-0

>  <r_epik_Charging_Adjusted_Penalty>  (146) 
0

>  <i_epik_Tot_Q>  (146) 
0

>  <i_epik_Tot_abs_Q>  (146) 
0

>  <s_epik_Chemistry_Notes>  (146) 
This compound has an ester and may undergo hydrolysis at high or low pH.

>  <s_lp_Force_Field>  (146) 
OPLS3e

>  <r_lp_Energy>  (146) 
112.206

>  <b_lp_Chiralities_Consistent>  (146) 
1

>  <s_lp_Variant>  (146) 
54:0-2

>  <s_i_glide_gridfile>  (146) 
pfpi4k_grid

>  <i_i_glide_lignum>  (146) 
32

>  <i_i_glide_rotatable_bonds>  (146) 
2

>  <r_i_docking_score>  (146) 
-3.38326

>  <r_i_glide_ligand_efficiency>  (146) 
-0.169163

>  <r_i_glide_ligand_efficiency_sa>  (146) 
-0.459179

>  <r_i_glide_ligand_efficiency_ln>  (146) 
-0.846718

>  <r_i_glide_gscore>  (146) 
-3.38326

>  <r_i_glide_lipo>  (146) 
-0.635006

>  <r_i_glide_hbond>  (146) 
-0.0674319

>  <r_i_glide_metal>  (146) 
-0

>  <r_i_glide_rewards>  (146) 
-1.5568

>  <r_i_glide_evdw>  (146) 
-17.4164

>  <r_i_glide_ecoul>  (146) 
-1.47214

>  <r_i_glide_erotb>  (146) 
0

>  <r_i_glide_esite>  (146) 
-0.032378

>  <r_i_glide_emodel>  (146) 
-20.1819

>  <r_i_glide_energy>  (146) 
-18.8885

>  <r_i_glide_einternal>  (146) 
5.46758

>  <r_i_glide_intrahb_reward>  (146) 
-0

>  <i_i_glide_confnum>  (146) 
1

>  <i_i_glide_posenum>  (146) 
31

>  <r_i_glide_eff_state_penalty>  (146) 
0

>  <ligand_id>  (146) 
54

>  <original_smiles>  (146) 
CCC12CCCC3OC(=O)N4C1C1C=CC(OC)(C34)C12

>  <smiles>  (146) 
[H]C1=C([H])C2(OC([H])([H])[H])C3([H])N4C(=O)OC3([H])C([H])([H])C([H])([H])C([H])([H])C3(C([H])([H])C([H])([H])[H])C4([H])C1([H])C23[H]

$$$$
54:1:2
     RDKit          3D

 41 45  0  0  1  0  0  0  0  0999 V2000
    4.8841   -0.7385    4.4319 C   0  0  0  0  0  0  0  0  0  0  0  0
    3.8580   -1.6749    3.7516 C   0  0  0  0  0  0  0  0  0  0  0  0
    4.2228   -2.1954    2.3317 C   0  0  2  0  0  0  0  0  0  0  0  0
    3.8223   -0.9438    1.4175 C   0  0  0  0  0  0  0  0  0  0  0  0
    4.4946   -0.6619    0.0014 C   0  0  0  0  0  0  0  0  0  0  0  0
    4.0857   -1.5267   -1.2313 C   0  0  0  0  0  0  0  0  0  0  0  0
    3.7257   -2.8654   -0.6693 C   0  0  1  0  0  0  0  0  0  0  0  0
    2.7294   -3.8097   -0.9685 O   0  0  0  0  0  0  0  0  0  0  0  0
    2.6891   -4.6662    0.0800 C   0  0  0  0  0  0  0  0  0  0  0  0
    1.7856   -5.4629    0.3583 O   0  0  0  0  0  0  0  0  0  0  0  0
    3.8484   -4.4099    0.7999 N   0  0  0  0  0  0  0  0  0  0  0  0
    3.8322   -3.7622    2.1467 C   0  0  1  0  0  0  0  0  0  0  0  0
    5.1836   -4.0256    2.9024 C   0  0  1  0  0  0  0  0  0  0  0  0
    6.1544   -5.0425    2.3457 C   0  0  0  0  0  0  0  0  0  0  0  0
    6.6942   -4.6259    1.2113 C   0  0  0  0  0  0  0  0  0  0  0  0
    6.0713   -3.3203    0.7387 C   0  0  1  0  0  0  0  0  0  0  0  0
    6.9919   -2.4603    0.0815 O   0  0  0  0  0  0  0  0  0  0  0  0
    7.5436   -2.9372   -1.1409 C   0  0  0  0  0  0  0  0  0  0  0  0
    4.8115   -3.7680   -0.0619 C   0  0  2  0  0  0  0  0  0  0  0  0
    5.6113   -2.7804    2.0886 C   0  0  1  0  0  0  0  0  0  0  0  0
    4.4971   -0.3891    5.3826 H   0  0  0  0  0  0  0  0  0  0  0  0
    5.1090    0.1489    3.8390 H   0  0  0  0  0  0  0  0  0  0  0  0
    5.8088   -1.2566    4.6385 H   0  0  0  0  0  0  0  0  0  0  0  0
    3.6938   -2.4988    4.4492 H   0  0  0  0  0  0  0  0  0  0  0  0
    2.8829   -1.1798    3.7368 H   0  0  0  0  0  0  0  0  0  0  0  0
    2.7368   -0.8787    1.3179 H   0  0  0  0  0  0  0  0  0  0  0  0
    4.0582   -0.0344    1.9530 H   0  0  0  0  0  0  0  0  0  0  0  0
    4.2157    0.3606   -0.2519 H   0  0  0  0  0  0  0  0  0  0  0  0
    5.5744   -0.5969    0.1031 H   0  0  0  0  0  0  0  0  0  0  0  0
    3.2083   -1.0957   -1.7219 H   0  0  0  0  0  0  0  0  0  0  0  0
    4.8813   -1.5819   -1.9808 H   0  0  0  0  0  0  0  0  0  0  0  0
    3.0508   -2.4666    0.0699 H   0  0  0  0  0  0  0  0  0  0  0  0
    2.9612   -4.0376    2.7755 H   0  0  0  0  0  0  0  0  0  0  0  0
    5.2095   -3.9090    3.9764 H   0  0  0  0  0  0  0  0  0  0  0  0
    6.4260   -5.9649    2.8597 H   0  0  0  0  0  0  0  0  0  0  0  0
    7.4662   -5.1536    0.6627 H   0  0  0  0  0  0  0  0  0  0  0  0
    8.1277   -2.1434   -1.6146 H   0  0  0  0  0  0  0  0  0  0  0  0
    6.7815   -3.2391   -1.8562 H   0  0  0  0  0  0  0  0  0  0  0  0
    8.2233   -3.7686   -0.9664 H   0  0  0  0  0  0  0  0  0  0  0  0
    5.1376   -4.4779   -0.8364 H   0  0  0  0  0  0  0  0  0  0  0  0
    6.3881   -2.2030    2.6095 H   0  0  0  0  0  0  0  0  0  0  0  0
  1  2  1  0
  1 21  1  0
  1 22  1  0
  1 23  1  0
  3  2  1  1
  2 24  1  0
  2 25  1  0
  3 12  1  0
  3 20  1  0
  3  4  1  0
  4  5  1  0
  4 26  1  0
  4 27  1  0
  5  6  1  0
  5 28  1  0
  5 29  1  0
  6  7  1  0
  6 30  1  0
  6 31  1  0
  7 19  1  0
  7  8  1  0
  7 32  1  1
  8  9  1  0
  9 10  2  0
  9 11  1  0
 11 19  1  0
 11 12  1  0
 12 13  1  0
 12 33  1  1
 13 20  1  0
 13 14  1  0
 13 34  1  1
 14 15  2  0
 14 35  1  0
 15 16  1  0
 15 36  1  0
 16 17  1  6
 16 19  1  0
 16 20  1  0
 17 18  1  0
 18 37  1  0
 18 38  1  0
 18 39  1  0
 19 40  1  6
 20 41  1  1
M  END
>  <i_m_ct_stereo_status>  (147) 
1

>  <s_m_source_file>  (147) 
/var/tmp/pbs.5076255.sched01/tmpav68hifr/35m6z7vsub.sdf

>  <i_m_source_file_index>  (147) 
32

>  <i_lp_mmshare_version>  (147) 
48012

>  <i_f3d_flags>  (147) 
0

>  <s_epik_input>  (147) 
W0NIM11bQ0gyXVtDQEBdMTJbQ0BIXTNONFtDQEBIXShbQ0BIXShPQzQ9TylbQ0gyXVtDSDJdW0NIMl0xKVtDQEBdNShPW0NIM10pW0NAQEhdMltDQEBIXTNbQ0hdPVtDSF01

>  <s_epik_cmdline>  (147) 
J2VwaWtfcHl0aG9uJywgJy1waHQnLCAnMi4wJywgJy1waCcsICc3LjAnLCAnLXRuJywgJzgnLCAnLW1hJywgJzIwMCcsICctaW1hZScsICc8aW5maWxlLm1hZT4nLCAnLW9tYWUnLCAnPG91dGZpbGUubWFlPic=

>  <r_lp_tautomer_probability>  (147) 
1

>  <r_epik_Ionization_Penalty>  (147) 
4.20864e-07

>  <r_epik_Ionization_Penalty_Charging>  (147) 
0

>  <r_epik_Ionization_Penalty_Neutral>  (147) 
4.20864e-07

>  <r_epik_State_Penalty>  (147) 
-0

>  <r_epik_Charging_Adjusted_Penalty>  (147) 
0

>  <i_epik_Tot_Q>  (147) 
0

>  <i_epik_Tot_abs_Q>  (147) 
0

>  <s_epik_Chemistry_Notes>  (147) 
This compound has an ester and may undergo hydrolysis at high or low pH.

>  <s_lp_Force_Field>  (147) 
OPLS3e

>  <r_lp_Energy>  (147) 
112.206

>  <b_lp_Chiralities_Consistent>  (147) 
1

>  <s_lp_Variant>  (147) 
54:0-2

>  <s_i_glide_gridfile>  (147) 
pfpi4k_grid

>  <i_i_glide_lignum>  (147) 
32

>  <i_i_glide_rotatable_bonds>  (147) 
2

>  <r_i_docking_score>  (147) 
-3.25363

>  <r_i_glide_ligand_efficiency>  (147) 
-0.162682

>  <r_i_glide_ligand_efficiency_sa>  (147) 
-0.441586

>  <r_i_glide_ligand_efficiency_ln>  (147) 
-0.814277

>  <r_i_glide_gscore>  (147) 
-3.25363

>  <r_i_glide_lipo>  (147) 
-0.405138

>  <r_i_glide_hbond>  (147) 
-0.102622

>  <r_i_glide_metal>  (147) 
-0

>  <r_i_glide_rewards>  (147) 
-1.54704

>  <r_i_glide_evdw>  (147) 
-16.3293

>  <r_i_glide_ecoul>  (147) 
-2.24466

>  <r_i_glide_erotb>  (147) 
0

>  <r_i_glide_esite>  (147) 
-0.045669

>  <r_i_glide_emodel>  (147) 
-22.4361

>  <r_i_glide_energy>  (147) 
-18.574

>  <r_i_glide_einternal>  (147) 
0.0917482

>  <r_i_glide_intrahb_reward>  (147) 
-0

>  <i_i_glide_confnum>  (147) 
2

>  <i_i_glide_posenum>  (147) 
34

>  <r_i_glide_eff_state_penalty>  (147) 
0

>  <ligand_id>  (147) 
54

>  <original_smiles>  (147) 
CCC12CCCC3OC(=O)N4C1C1C=CC(OC)(C34)C12

>  <smiles>  (147) 
[H]C1=C([H])C2(OC([H])([H])[H])C3([H])N4C(=O)OC3([H])C([H])([H])C([H])([H])C([H])([H])C3(C([H])([H])C([H])([H])[H])C4([H])C1([H])C23[H]

$$$$
55:0:0
     RDKit          3D

 36 38  0  0  1  0  0  0  0  0999 V2000
   -8.8194  -11.3533  -10.4638 C   0  0  0  0  0  0  0  0  0  0  0  0
   -8.3345  -10.3169   -9.5075 N   0  0  1  0  0  0  0  0  0  0  0  0
   -8.3163   -8.9544  -10.0946 C   0  0  0  0  0  0  0  0  0  0  0  0
   -7.6268   -7.9623   -9.1416 C   0  0  0  0  0  0  0  0  0  0  0  0
   -8.3635   -7.9265   -7.7727 C   0  0  2  0  0  0  0  0  0  0  0  0
   -8.4432   -9.3985   -7.2310 C   0  0  0  0  0  0  0  0  0  0  0  0
   -9.0879  -10.3533   -8.2331 C   0  0  0  0  0  0  0  0  0  0  0  0
   -9.7075   -7.5004   -7.9915 O   0  0  0  0  0  0  0  0  0  0  0  0
   -9.9294   -6.1100   -8.2443 C   0  0  0  0  0  0  0  0  0  0  0  0
   -9.4831   -5.2909   -7.0275 C   0  0  0  0  0  0  0  0  0  0  0  0
   -8.1477   -5.7552   -6.4523 C   0  0  0  0  0  0  0  0  0  0  0  0
   -7.4415   -4.9213   -5.5531 C   0  0  0  0  0  0  0  0  0  0  0  0
   -6.2286   -5.3505   -4.9825 C   0  0  0  0  0  0  0  0  0  0  0  0
   -5.7093   -6.6273   -5.3054 C   0  0  0  0  0  0  0  0  0  0  0  0
   -6.3923   -7.4438   -6.2176 C   0  0  0  0  0  0  0  0  0  0  0  0
   -7.6212   -7.0278   -6.7954 C   0  0  0  0  0  0  0  0  0  0  0  0
   -9.8530  -11.1532  -10.7478 H   0  0  0  0  0  0  0  0  0  0  0  0
   -8.7808  -12.3563  -10.0208 H   0  0  0  0  0  0  0  0  0  0  0  0
   -8.2124  -11.3734  -11.3723 H   0  0  0  0  0  0  0  0  0  0  0  0
   -7.7858   -8.9547  -11.0483 H   0  0  0  0  0  0  0  0  0  0  0  0
   -9.3280   -8.6343  -10.3087 H   0  0  0  0  0  0  0  0  0  0  0  0
   -6.5874   -8.2559   -9.0022 H   0  0  0  0  0  0  0  0  0  0  0  0
   -7.5750   -6.9825   -9.6188 H   0  0  0  0  0  0  0  0  0  0  0  0
   -7.4575   -9.8146   -7.0092 H   0  0  0  0  0  0  0  0  0  0  0  0
   -8.9806   -9.4712   -6.2757 H   0  0  0  0  0  0  0  0  0  0  0  0
  -10.1426  -10.1101   -8.3777 H   0  0  0  0  0  0  0  0  0  0  0  0
   -9.0567  -11.3662   -7.7986 H   0  0  0  0  0  0  0  0  0  0  0  0
   -9.3957   -5.7753   -9.1337 H   0  0  0  0  0  0  0  0  0  0  0  0
  -10.9905   -5.9393   -8.4504 H   0  0  0  0  0  0  0  0  0  0  0  0
   -9.4177   -4.2358   -7.3062 H   0  0  0  0  0  0  0  0  0  0  0  0
  -10.2410   -5.3575   -6.2447 H   0  0  0  0  0  0  0  0  0  0  0  0
   -7.8324   -3.9440   -5.2960 H   0  0  0  0  0  0  0  0  0  0  0  0
   -5.6845   -4.7119   -4.3023 H   0  0  0  0  0  0  0  0  0  0  0  0
   -4.7821   -6.9764   -4.8769 H   0  0  0  0  0  0  0  0  0  0  0  0
   -5.9354   -8.3897   -6.4604 H   0  0  0  0  0  0  0  0  0  0  0  0
   -7.3826  -10.5524   -9.2857 H   0  0  0  0  0  0  0  0  0  0  0  0
  1  2  1  0
  1 17  1  0
  1 18  1  0
  1 19  1  0
  2  7  1  0
  2  3  1  0
  2 36  1  1
  3  4  1  0
  3 20  1  0
  3 21  1  0
  4  5  1  0
  4 22  1  0
  4 23  1  0
  5 16  1  0
  5  6  1  0
  5  8  1  6
  6  7  1  0
  6 24  1  0
  6 25  1  0
  7 26  1  0
  7 27  1  0
  8  9  1  0
  9 10  1  0
  9 28  1  0
  9 29  1  0
 10 11  1  0
 10 30  1  0
 10 31  1  0
 11 16  2  0
 11 12  1  0
 12 13  2  0
 12 32  1  0
 13 14  1  0
 13 33  1  0
 14 15  2  0
 14 34  1  0
 15 16  1  0
 15 35  1  0
M  CHG  1   2   1
M  END
>  <i_m_ct_stereo_status>  (148) 
1

>  <s_m_source_file>  (148) 
/var/tmp/pbs.5076255.sched01/tmpav68hifr/35m6z7vsub.sdf

>  <i_m_source_file_index>  (148) 
33

>  <i_lp_mmshare_version>  (148) 
48012

>  <i_f3d_flags>  (148) 
0

>  <s_epik_input>  (148) 
W0NIMl0xW0NIMl1OKFtDSDNdKVtDSDJdW0NIMl1DMTJjM2MoW0NIMl1bQ0gyXU8yKVtjSF1bY0hdW2NIXVtjSF0z

>  <s_epik_cmdline>  (148) 
J2VwaWtfcHl0aG9uJywgJy1waHQnLCAnMi4wJywgJy1waCcsICc3LjAnLCAnLXRuJywgJzgnLCAnLW1hJywgJzIwMCcsICctaW1hZScsICc8aW5maWxlLm1hZT4nLCAnLW9tYWUnLCAnPG91dGZpbGUubWFlPic=

>  <r_epik_Ionization_Penalty>  (148) 
0.0106909

>  <r_epik_Ionization_Penalty_Charging>  (148) 
0.0106909

>  <r_epik_Ionization_Penalty_Neutral>  (148) 
1.33926e-13

>  <r_epik_State_Penalty>  (148) 
0.00818902

>  <r_epik_Charging_Adjusted_Penalty>  (148) 
0.0188799

>  <i_epik_Tot_Q>  (148) 
1

>  <i_epik_Tot_abs_Q>  (148) 
1

>  <s_lp_Force_Field>  (148) 
OPLS3e

>  <r_lp_Energy>  (148) 
33.5447

>  <b_lp_Chiralities_Consistent>  (148) 
1

>  <s_lp_Variant>  (148) 
55:0-1

>  <s_i_glide_gridfile>  (148) 
pfpi4k_grid

>  <i_i_glide_lignum>  (148) 
33

>  <i_i_glide_rotatable_bonds>  (148) 
0

>  <r_i_docking_score>  (148) 
-5.72911

>  <r_i_glide_ligand_efficiency>  (148) 
-0.358069

>  <r_i_glide_ligand_efficiency_sa>  (148) 
-0.902278

>  <r_i_glide_ligand_efficiency_ln>  (148) 
-1.51862

>  <r_i_glide_gscore>  (148) 
-5.72911

>  <r_i_glide_lipo>  (148) 
-2.38156

>  <r_i_glide_hbond>  (148) 
0

>  <r_i_glide_metal>  (148) 
-0

>  <r_i_glide_rewards>  (148) 
-2.42622

>  <r_i_glide_evdw>  (148) 
-18.761

>  <r_i_glide_ecoul>  (148) 
0.111413

>  <r_i_glide_erotb>  (148) 
0

>  <r_i_glide_esite>  (148) 
0

>  <r_i_glide_emodel>  (148) 
-25.8102

>  <r_i_glide_energy>  (148) 
-18.6496

>  <r_i_glide_einternal>  (148) 
0

>  <r_i_glide_intrahb_reward>  (148) 
-0

>  <i_i_glide_confnum>  (148) 
4

>  <i_i_glide_posenum>  (148) 
6

>  <r_i_glide_eff_state_penalty>  (148) 
0

>  <ligand_id>  (148) 
55

>  <original_smiles>  (148) 
CN1CCC2(CC1)OCCc1ccccc12

>  <smiles>  (148) 
[H]c1c([H])c([H])c2c(c1[H])C([H])([H])C([H])([H])OC21C([H])([H])C([H])([H])[N+]([H])(C([H])([H])[H])C([H])([H])C1([H])[H]

$$$$
55:0:1
     RDKit          3D

 36 38  0  0  1  0  0  0  0  0999 V2000
    3.9507   -7.3849    1.5452 C   0  0  0  0  0  0  0  0  0  0  0  0
    3.8376   -6.2663    0.5975 N   0  0  1  0  0  0  0  0  0  0  0  0
    2.7943   -5.2818    1.0033 C   0  0  0  0  0  0  0  0  0  0  0  0
    2.6194   -4.1974   -0.0566 C   0  0  0  0  0  0  0  0  0  0  0  0
    3.9637   -3.5102   -0.4359 C   0  0  2  0  0  0  0  0  0  0  0  0
    5.0244   -4.5750   -0.7910 C   0  0  0  0  0  0  0  0  0  0  0  0
    5.1413   -5.6054    0.3483 C   0  0  0  0  0  0  0  0  0  0  0  0
    4.3979   -2.8127    0.7492 O   0  0  0  0  0  0  0  0  0  0  0  0
    5.4909   -1.9137    0.5961 C   0  0  0  0  0  0  0  0  0  0  0  0
    5.0788   -0.7811   -0.3528 C   0  0  0  0  0  0  0  0  0  0  0  0
    4.3505   -1.2750   -1.5999 C   0  0  0  0  0  0  0  0  0  0  0  0
    4.2130   -0.4334   -2.7277 C   0  0  0  0  0  0  0  0  0  0  0  0
    3.5242   -0.8693   -3.8760 C   0  0  0  0  0  0  0  0  0  0  0  0
    2.9627   -2.1625   -3.8857 C   0  0  0  0  0  0  0  0  0  0  0  0
    3.0911   -3.0031   -2.7767 C   0  0  0  0  0  0  0  0  0  0  0  0
    3.7900   -2.5688   -1.6167 C   0  0  0  0  0  0  0  0  0  0  0  0
    4.2336   -7.0032    2.5368 H   0  0  0  0  0  0  0  0  0  0  0  0
    4.7103   -8.1077    1.2349 H   0  0  0  0  0  0  0  0  0  0  0  0
    3.0029   -7.9207    1.6502 H   0  0  0  0  0  0  0  0  0  0  0  0
    1.8497   -5.8040    1.1471 H   0  0  0  0  0  0  0  0  0  0  0  0
    3.0590   -4.8358    1.9683 H   0  0  0  0  0  0  0  0  0  0  0  0
    2.1567   -4.6874   -0.9160 H   0  0  0  0  0  0  0  0  0  0  0  0
    1.8919   -3.4551    0.2658 H   0  0  0  0  0  0  0  0  0  0  0  0
    4.7056   -5.0879   -1.7007 H   0  0  0  0  0  0  0  0  0  0  0  0
    6.0000   -4.1663   -1.0276 H   0  0  0  0  0  0  0  0  0  0  0  0
    5.4854   -5.1186    1.2669 H   0  0  0  0  0  0  0  0  0  0  0  0
    5.8969   -6.3387    0.0819 H   0  0  0  0  0  0  0  0  0  0  0  0
    5.7573   -1.5039    1.5770 H   0  0  0  0  0  0  0  0  0  0  0  0
    6.3699   -2.4328    0.2168 H   0  0  0  0  0  0  0  0  0  0  0  0
    4.4344   -0.0659    0.1629 H   0  0  0  0  0  0  0  0  0  0  0  0
    5.9763   -0.2536   -0.6506 H   0  0  0  0  0  0  0  0  0  0  0  0
    4.6306    0.5627   -2.7205 H   0  0  0  0  0  0  0  0  0  0  0  0
    3.4024   -0.2178   -4.7347 H   0  0  0  0  0  0  0  0  0  0  0  0
    2.4040   -2.5305   -4.7141 H   0  0  0  0  0  0  0  0  0  0  0  0
    2.6268   -3.9691   -2.8512 H   0  0  0  0  0  0  0  0  0  0  0  0
    3.5520   -6.6450   -0.3080 H   0  0  0  0  0  0  0  0  0  0  0  0
  1  2  1  0
  1 17  1  0
  1 18  1  0
  1 19  1  0
  2  7  1  0
  2  3  1  0
  2 36  1  6
  3  4  1  0
  3 20  1  0
  3 21  1  0
  4  5  1  0
  4 22  1  0
  4 23  1  0
  5 16  1  0
  5  6  1  0
  5  8  1  1
  6  7  1  0
  6 24  1  0
  6 25  1  0
  7 26  1  0
  7 27  1  0
  8  9  1  0
  9 10  1  0
  9 28  1  0
  9 29  1  0
 10 11  1  0
 10 30  1  0
 10 31  1  0
 11 16  2  0
 11 12  1  0
 12 13  2  0
 12 32  1  0
 13 14  1  0
 13 33  1  0
 14 15  2  0
 14 34  1  0
 15 16  1  0
 15 35  1  0
M  CHG  1   2   1
M  END
>  <i_m_ct_stereo_status>  (149) 
1

>  <s_m_source_file>  (149) 
/var/tmp/pbs.5076255.sched01/tmpav68hifr/35m6z7vsub.sdf

>  <i_m_source_file_index>  (149) 
33

>  <i_lp_mmshare_version>  (149) 
48012

>  <i_f3d_flags>  (149) 
0

>  <s_epik_input>  (149) 
W0NIMl0xW0NIMl1OKFtDSDNdKVtDSDJdW0NIMl1DMTJjM2MoW0NIMl1bQ0gyXU8yKVtjSF1bY0hdW2NIXVtjSF0z

>  <s_epik_cmdline>  (149) 
J2VwaWtfcHl0aG9uJywgJy1waHQnLCAnMi4wJywgJy1waCcsICc3LjAnLCAnLXRuJywgJzgnLCAnLW1hJywgJzIwMCcsICctaW1hZScsICc8aW5maWxlLm1hZT4nLCAnLW9tYWUnLCAnPG91dGZpbGUubWFlPic=

>  <r_epik_Ionization_Penalty>  (149) 
0.0106909

>  <r_epik_Ionization_Penalty_Charging>  (149) 
0.0106909

>  <r_epik_Ionization_Penalty_Neutral>  (149) 
1.33926e-13

>  <r_epik_State_Penalty>  (149) 
0.00818902

>  <r_epik_Charging_Adjusted_Penalty>  (149) 
0.0188799

>  <i_epik_Tot_Q>  (149) 
1

>  <i_epik_Tot_abs_Q>  (149) 
1

>  <s_lp_Force_Field>  (149) 
OPLS3e

>  <r_lp_Energy>  (149) 
33.5447

>  <b_lp_Chiralities_Consistent>  (149) 
1

>  <s_lp_Variant>  (149) 
55:0-1

>  <s_i_glide_gridfile>  (149) 
pfpi4k_grid

>  <i_i_glide_lignum>  (149) 
33

>  <i_i_glide_rotatable_bonds>  (149) 
0

>  <r_i_docking_score>  (149) 
-4.0785

>  <r_i_glide_ligand_efficiency>  (149) 
-0.254906

>  <r_i_glide_ligand_efficiency_sa>  (149) 
-0.642323

>  <r_i_glide_ligand_efficiency_ln>  (149) 
-1.08109

>  <r_i_glide_gscore>  (149) 
-4.0785

>  <r_i_glide_lipo>  (149) 
-0.770169

>  <r_i_glide_hbond>  (149) 
0

>  <r_i_glide_metal>  (149) 
-0

>  <r_i_glide_rewards>  (149) 
-1.92058

>  <r_i_glide_evdw>  (149) 
-18.291

>  <r_i_glide_ecoul>  (149) 
-3.15464

>  <r_i_glide_erotb>  (149) 
0

>  <r_i_glide_esite>  (149) 
0

>  <r_i_glide_emodel>  (149) 
-26.4151

>  <r_i_glide_energy>  (149) 
-21.4456

>  <r_i_glide_einternal>  (149) 
0

>  <r_i_glide_intrahb_reward>  (149) 
-0

>  <i_i_glide_confnum>  (149) 
1

>  <i_i_glide_posenum>  (149) 
8

>  <r_i_glide_eff_state_penalty>  (149) 
0

>  <ligand_id>  (149) 
55

>  <original_smiles>  (149) 
CN1CCC2(CC1)OCCc1ccccc12

>  <smiles>  (149) 
[H]c1c([H])c([H])c2c(c1[H])C([H])([H])C([H])([H])OC21C([H])([H])C([H])([H])[N+]([H])(C([H])([H])[H])C([H])([H])C1([H])[H]

$$$$
55:1:0
     RDKit          3D

 35 37  0  0  1  0  0  0  0  0999 V2000
   -9.8001  -12.0441   -9.9785 C   0  0  0  0  0  0  0  0  0  0  0  0
   -9.1698  -11.0449   -9.1236 N   0  0  0  0  0  0  0  0  0  0  0  0
   -7.9449  -10.5687   -9.7674 C   0  0  0  0  0  0  0  0  0  0  0  0
   -7.3245   -9.4661   -8.9131 C   0  0  0  0  0  0  0  0  0  0  0  0
   -6.9933   -9.9493   -7.4725 C   0  0  0  0  0  0  0  0  0  0  0  0
   -8.2868  -10.5711   -6.8863 C   0  0  0  0  0  0  0  0  0  0  0  0
   -8.8689  -11.6396   -7.8236 C   0  0  0  0  0  0  0  0  0  0  0  0
   -5.9926  -10.9615   -7.6014 O   0  0  0  0  0  0  0  0  0  0  0  0
   -5.3915  -11.3989   -6.3863 C   0  0  0  0  0  0  0  0  0  0  0  0
   -4.6084  -10.2343   -5.7620 C   0  0  0  0  0  0  0  0  0  0  0  0
   -5.3851   -8.9245   -5.7788 C   0  0  0  0  0  0  0  0  0  0  0  0
   -4.9639   -7.8494   -4.9663 C   0  0  0  0  0  0  0  0  0  0  0  0
   -5.6688   -6.6295   -4.9783 C   0  0  0  0  0  0  0  0  0  0  0  0
   -6.7996   -6.4757   -5.8012 C   0  0  0  0  0  0  0  0  0  0  0  0
   -7.2291   -7.5516   -6.6091 C   0  0  0  0  0  0  0  0  0  0  0  0
   -6.5214   -8.7775   -6.6080 C   0  0  0  0  0  0  0  0  0  0  0  0
  -10.0168  -11.6241  -10.9585 H   0  0  0  0  0  0  0  0  0  0  0  0
  -10.7409  -12.3761   -9.5441 H   0  0  0  0  0  0  0  0  0  0  0  0
   -9.1550  -12.9107  -10.1102 H   0  0  0  0  0  0  0  0  0  0  0  0
   -7.2434  -11.3879   -9.9274 H   0  0  0  0  0  0  0  0  0  0  0  0
   -8.1981  -10.1549  -10.7439 H   0  0  0  0  0  0  0  0  0  0  0  0
   -6.4332   -9.0529   -9.3963 H   0  0  0  0  0  0  0  0  0  0  0  0
   -8.0424   -8.6447   -8.9018 H   0  0  0  0  0  0  0  0  0  0  0  0
   -8.1102  -11.0093   -5.9020 H   0  0  0  0  0  0  0  0  0  0  0  0
   -9.0424   -9.7961   -6.7395 H   0  0  0  0  0  0  0  0  0  0  0  0
   -9.7782  -12.0528   -7.3827 H   0  0  0  0  0  0  0  0  0  0  0  0
   -8.1708  -12.4639   -7.9431 H   0  0  0  0  0  0  0  0  0  0  0  0
   -6.1497  -11.7751   -5.7010 H   0  0  0  0  0  0  0  0  0  0  0  0
   -4.7175  -12.2359   -6.5906 H   0  0  0  0  0  0  0  0  0  0  0  0
   -4.3322  -10.4861   -4.7374 H   0  0  0  0  0  0  0  0  0  0  0  0
   -3.6769  -10.0895   -6.3085 H   0  0  0  0  0  0  0  0  0  0  0  0
   -4.1065   -7.9690   -4.3251 H   0  0  0  0  0  0  0  0  0  0  0  0
   -5.3597   -5.8051   -4.3473 H   0  0  0  0  0  0  0  0  0  0  0  0
   -7.3472   -5.5463   -5.8187 H   0  0  0  0  0  0  0  0  0  0  0  0
   -8.1142   -7.4093   -7.2098 H   0  0  0  0  0  0  0  0  0  0  0  0
  1  2  1  0
  1 17  1  0
  1 18  1  0
  1 19  1  0
  2  7  1  0
  2  3  1  0
  3  4  1  0
  3 20  1  0
  3 21  1  0
  4  5  1  0
  4 22  1  0
  4 23  1  0
  5 16  1  0
  5  6  1  0
  5  8  1  0
  6  7  1  0
  6 24  1  0
  6 25  1  0
  7 26  1  0
  7 27  1  0
  8  9  1  0
  9 10  1  0
  9 28  1  0
  9 29  1  0
 10 11  1  0
 10 30  1  0
 10 31  1  0
 11 16  2  0
 11 12  1  0
 12 13  2  0
 12 32  1  0
 13 14  1  0
 13 33  1  0
 14 15  2  0
 14 34  1  0
 15 16  1  0
 15 35  1  0
M  END
>  <i_m_ct_stereo_status>  (150) 
1

>  <s_m_source_file>  (150) 
/var/tmp/pbs.5076255.sched01/tmpav68hifr/35m6z7vsub.sdf

>  <i_m_source_file_index>  (150) 
34

>  <i_lp_mmshare_version>  (150) 
48012

>  <i_f3d_flags>  (150) 
0

>  <s_epik_input>  (150) 
W0NIMl0xW0NIMl1OKFtDSDNdKVtDSDJdW0NIMl1DMTJjM2MoW0NIMl1bQ0gyXU8yKVtjSF1bY0hdW2NIXVtjSF0z

>  <s_epik_cmdline>  (150) 
J2VwaWtfcHl0aG9uJywgJy1waHQnLCAnMi4wJywgJy1waCcsICc3LjAnLCAnLXRuJywgJzgnLCAnLW1hJywgJzIwMCcsICctaW1hZScsICc8aW5maWxlLm1hZT4nLCAnLW9tYWUnLCAnPG91dGZpbGUubWFlPic=

>  <r_epik_Ionization_Penalty>  (150) 
2.38413

>  <r_epik_Ionization_Penalty_Charging>  (150) 
0

>  <r_epik_Ionization_Penalty_Neutral>  (150) 
2.38413

>  <r_epik_State_Penalty>  (150) 
2.54084

>  <r_epik_Charging_Adjusted_Penalty>  (150) 
2.54084

>  <i_epik_Tot_Q>  (150) 
0

>  <i_epik_Tot_abs_Q>  (150) 
0

>  <s_lp_Force_Field>  (150) 
OPLS3e

>  <r_lp_Energy>  (150) 
23.0938

>  <b_lp_Chiralities_Consistent>  (150) 
1

>  <s_lp_Variant>  (150) 
55:0-2

>  <s_i_glide_gridfile>  (150) 
pfpi4k_grid

>  <i_i_glide_lignum>  (150) 
34

>  <i_i_glide_rotatable_bonds>  (150) 
0

>  <r_i_docking_score>  (150) 
-5.29024

>  <r_i_glide_ligand_efficiency>  (150) 
-0.33064

>  <r_i_glide_ligand_efficiency_sa>  (150) 
-0.83316

>  <r_i_glide_ligand_efficiency_ln>  (150) 
-1.40228

>  <r_i_glide_gscore>  (150) 
-5.29024

>  <r_i_glide_lipo>  (150) 
-2.22576

>  <r_i_glide_hbond>  (150) 
0

>  <r_i_glide_metal>  (150) 
-0

>  <r_i_glide_rewards>  (150) 
-1.92745

>  <r_i_glide_evdw>  (150) 
-19.9162

>  <r_i_glide_ecoul>  (150) 
-0.941444

>  <r_i_glide_erotb>  (150) 
0

>  <r_i_glide_esite>  (150) 
0

>  <r_i_glide_emodel>  (150) 
-27.3222

>  <r_i_glide_energy>  (150) 
-20.8576

>  <r_i_glide_einternal>  (150) 
0

>  <r_i_glide_intrahb_reward>  (150) 
-0

>  <i_i_glide_confnum>  (150) 
2

>  <i_i_glide_posenum>  (150) 
7

>  <r_i_glide_eff_state_penalty>  (150) 
0

>  <ligand_id>  (150) 
55

>  <original_smiles>  (150) 
CN1CCC2(CC1)OCCc1ccccc12

>  <smiles>  (150) 
[H]c1c([H])c([H])c2c(c1[H])C([H])([H])C([H])([H])OC21C([H])([H])C([H])([H])N(C([H])([H])[H])C([H])([H])C1([H])[H]

$$$$
55:1:1
     RDKit          3D

 35 37  0  0  1  0  0  0  0  0999 V2000
    3.9506   -7.3084    1.6064 C   0  0  0  0  0  0  0  0  0  0  0  0
    3.8095   -6.2578    0.6105 N   0  0  0  0  0  0  0  0  0  0  0  0
    5.1117   -5.6093    0.4066 C   0  0  0  0  0  0  0  0  0  0  0  0
    4.9983   -4.5933   -0.7322 C   0  0  0  0  0  0  0  0  0  0  0  0
    3.9657   -3.4951   -0.3949 C   0  0  0  0  0  0  0  0  0  0  0  0
    2.6266   -4.2002   -0.0107 C   0  0  0  0  0  0  0  0  0  0  0  0
    2.8239   -5.2844    1.0612 C   0  0  0  0  0  0  0  0  0  0  0  0
    4.3944   -2.7911    0.7701 O   0  0  0  0  0  0  0  0  0  0  0  0
    5.4995   -1.9053    0.5955 C   0  0  0  0  0  0  0  0  0  0  0  0
    5.0868   -0.7825   -0.3597 C   0  0  0  0  0  0  0  0  0  0  0  0
    4.3602   -1.2775   -1.5959 C   0  0  0  0  0  0  0  0  0  0  0  0
    4.2192   -0.4522   -2.7329 C   0  0  0  0  0  0  0  0  0  0  0  0
    3.5170   -0.8948   -3.8671 C   0  0  0  0  0  0  0  0  0  0  0  0
    2.9520   -2.1806   -3.8697 C   0  0  0  0  0  0  0  0  0  0  0  0
    3.0804   -3.0036   -2.7482 C   0  0  0  0  0  0  0  0  0  0  0  0
    3.7742   -2.5763   -1.6044 C   0  0  0  0  0  0  0  0  0  0  0  0
    4.7174   -8.0202    1.3182 H   0  0  0  0  0  0  0  0  0  0  0  0
    3.0128   -7.8568    1.7064 H   0  0  0  0  0  0  0  0  0  0  0  0
    4.2111   -6.8931    2.5772 H   0  0  0  0  0  0  0  0  0  0  0  0
    5.4401   -5.1338    1.3280 H   0  0  0  0  0  0  0  0  0  0  0  0
    5.8608   -6.3577    0.1424 H   0  0  0  0  0  0  0  0  0  0  0  0
    5.9913   -4.1691   -0.9540 H   0  0  0  0  0  0  0  0  0  0  0  0
    4.6941   -5.1032   -1.6414 H   0  0  0  0  0  0  0  0  0  0  0  0
    1.9025   -3.4610    0.3185 H   0  0  0  0  0  0  0  0  0  0  0  0
    2.1716   -4.7028   -0.8580 H   0  0  0  0  0  0  0  0  0  0  0  0
    1.8753   -5.7985    1.2223 H   0  0  0  0  0  0  0  0  0  0  0  0
    3.1180   -4.8382    2.0103 H   0  0  0  0  0  0  0  0  0  0  0  0
    5.7988   -1.4952    1.5608 H   0  0  0  0  0  0  0  0  0  0  0  0
    6.3642   -2.4482    0.2041 H   0  0  0  0  0  0  0  0  0  0  0  0
    4.4546   -0.0613    0.1574 H   0  0  0  0  0  0  0  0  0  0  0  0
    5.9912   -0.2550   -0.6654 H   0  0  0  0  0  0  0  0  0  0  0  0
    4.6301    0.5467   -2.7188 H   0  0  0  0  0  0  0  0  0  0  0  0
    3.3951   -0.2483   -4.7308 H   0  0  0  0  0  0  0  0  0  0  0  0
    2.3952   -2.5490   -4.7236 H   0  0  0  0  0  0  0  0  0  0  0  0
    2.6073   -3.9724   -2.7994 H   0  0  0  0  0  0  0  0  0  0  0  0
  1  2  1  0
  1 17  1  0
  1 18  1  0
  1 19  1  0
  2  7  1  0
  2  3  1  0
  3  4  1  0
  3 20  1  0
  3 21  1  0
  4  5  1  0
  4 22  1  0
  4 23  1  0
  5 16  1  0
  5  6  1  0
  5  8  1  0
  6  7  1  0
  6 24  1  0
  6 25  1  0
  7 26  1  0
  7 27  1  0
  8  9  1  0
  9 10  1  0
  9 28  1  0
  9 29  1  0
 10 11  1  0
 10 30  1  0
 10 31  1  0
 11 16  2  0
 11 12  1  0
 12 13  2  0
 12 32  1  0
 13 14  1  0
 13 33  1  0
 14 15  2  0
 14 34  1  0
 15 16  1  0
 15 35  1  0
M  END
>  <i_m_ct_stereo_status>  (151) 
1

>  <s_m_source_file>  (151) 
/var/tmp/pbs.5076255.sched01/tmpav68hifr/35m6z7vsub.sdf

>  <i_m_source_file_index>  (151) 
34

>  <i_lp_mmshare_version>  (151) 
48012

>  <i_f3d_flags>  (151) 
0

>  <s_epik_input>  (151) 
W0NIMl0xW0NIMl1OKFtDSDNdKVtDSDJdW0NIMl1DMTJjM2MoW0NIMl1bQ0gyXU8yKVtjSF1bY0hdW2NIXVtjSF0z

>  <s_epik_cmdline>  (151) 
J2VwaWtfcHl0aG9uJywgJy1waHQnLCAnMi4wJywgJy1waCcsICc3LjAnLCAnLXRuJywgJzgnLCAnLW1hJywgJzIwMCcsICctaW1hZScsICc8aW5maWxlLm1hZT4nLCAnLW9tYWUnLCAnPG91dGZpbGUubWFlPic=

>  <r_epik_Ionization_Penalty>  (151) 
2.38413

>  <r_epik_Ionization_Penalty_Charging>  (151) 
0

>  <r_epik_Ionization_Penalty_Neutral>  (151) 
2.38413

>  <r_epik_State_Penalty>  (151) 
2.54084

>  <r_epik_Charging_Adjusted_Penalty>  (151) 
2.54084

>  <i_epik_Tot_Q>  (151) 
0

>  <i_epik_Tot_abs_Q>  (151) 
0

>  <s_lp_Force_Field>  (151) 
OPLS3e

>  <r_lp_Energy>  (151) 
23.0938

>  <b_lp_Chiralities_Consistent>  (151) 
1

>  <s_lp_Variant>  (151) 
55:0-2

>  <s_i_glide_gridfile>  (151) 
pfpi4k_grid

>  <i_i_glide_lignum>  (151) 
34

>  <i_i_glide_rotatable_bonds>  (151) 
0

>  <r_i_docking_score>  (151) 
-3.78266

>  <r_i_glide_ligand_efficiency>  (151) 
-0.236416

>  <r_i_glide_ligand_efficiency_sa>  (151) 
-0.595731

>  <r_i_glide_ligand_efficiency_ln>  (151) 
-1.00267

>  <r_i_glide_gscore>  (151) 
-3.78266

>  <r_i_glide_lipo>  (151) 
-0.773909

>  <r_i_glide_hbond>  (151) 
0

>  <r_i_glide_metal>  (151) 
-0

>  <r_i_glide_rewards>  (151) 
-1.92745

>  <r_i_glide_evdw>  (151) 
-18.9021

>  <r_i_glide_ecoul>  (151) 
-0.907942

>  <r_i_glide_erotb>  (151) 
0

>  <r_i_glide_esite>  (151) 
0

>  <r_i_glide_emodel>  (151) 
-24.2999

>  <r_i_glide_energy>  (151) 
-19.81

>  <r_i_glide_einternal>  (151) 
0

>  <r_i_glide_intrahb_reward>  (151) 
-0

>  <i_i_glide_confnum>  (151) 
5

>  <i_i_glide_posenum>  (151) 
19

>  <r_i_glide_eff_state_penalty>  (151) 
0

>  <ligand_id>  (151) 
55

>  <original_smiles>  (151) 
CN1CCC2(CC1)OCCc1ccccc12

>  <smiles>  (151) 
[H]c1c([H])c([H])c2c(c1[H])C([H])([H])C([H])([H])OC21C([H])([H])C([H])([H])N(C([H])([H])[H])C([H])([H])C1([H])[H]

$$$$
55:1:2
     RDKit          3D

 35 37  0  0  1  0  0  0  0  0999 V2000
    2.5170   -6.3188    3.1552 C   0  0  0  0  0  0  0  0  0  0  0  0
    2.6430   -5.4683    1.9753 N   0  0  0  0  0  0  0  0  0  0  0  0
    3.9253   -5.7617    1.3210 C   0  0  0  0  0  0  0  0  0  0  0  0
    4.0481   -4.9286    0.0552 C   0  0  0  0  0  0  0  0  0  0  0  0
    3.9462   -3.4010    0.3282 C   0  0  0  0  0  0  0  0  0  0  0  0
    2.6629   -3.1526    1.1472 C   0  0  0  0  0  0  0  0  0  0  0  0
    2.5934   -4.0644    2.3845 C   0  0  0  0  0  0  0  0  0  0  0  0
    5.0873   -3.0539    1.1246 O   0  0  0  0  0  0  0  0  0  0  0  0
    5.2945   -1.6610    1.3178 C   0  0  0  0  0  0  0  0  0  0  0  0
    5.6240   -1.0176   -0.0337 C   0  0  0  0  0  0  0  0  0  0  0  0
    4.6856   -1.4642   -1.1451 C   0  0  0  0  0  0  0  0  0  0  0  0
    4.6146   -0.7352   -2.3480 C   0  0  0  0  0  0  0  0  0  0  0  0
    3.7801   -1.1528   -3.4042 C   0  0  0  0  0  0  0  0  0  0  0  0
    2.9924   -2.3089   -3.2535 C   0  0  0  0  0  0  0  0  0  0  0  0
    3.0329   -3.0292   -2.0449 C   0  0  0  0  0  0  0  0  0  0  0  0
    3.8943   -2.6271   -0.9921 C   0  0  0  0  0  0  0  0  0  0  0  0
    2.5801   -7.3674    2.8772 H   0  0  0  0  0  0  0  0  0  0  0  0
    1.5573   -6.1577    3.6395 H   0  0  0  0  0  0  0  0  0  0  0  0
    3.3055   -6.1067    3.8741 H   0  0  0  0  0  0  0  0  0  0  0  0
    4.7619   -5.5739    1.9967 H   0  0  0  0  0  0  0  0  0  0  0  0
    3.9480   -6.8204    1.0537 H   0  0  0  0  0  0  0  0  0  0  0  0
    4.9701   -5.1752   -0.4928 H   0  0  0  0  0  0  0  0  0  0  0  0
    3.2333   -5.2539   -0.5957 H   0  0  0  0  0  0  0  0  0  0  0  0
    2.5515   -2.1121    1.4510 H   0  0  0  0  0  0  0  0  0  0  0  0
    1.8187   -3.3669    0.5006 H   0  0  0  0  0  0  0  0  0  0  0  0
    1.6767   -3.8701    2.9352 H   0  0  0  0  0  0  0  0  0  0  0  0
    3.4229   -3.8476    3.0601 H   0  0  0  0  0  0  0  0  0  0  0  0
    4.4177   -1.1837    1.7627 H   0  0  0  0  0  0  0  0  0  0  0  0
    6.1233   -1.5200    2.0199 H   0  0  0  0  0  0  0  0  0  0  0  0
    5.5894    0.0675    0.0740 H   0  0  0  0  0  0  0  0  0  0  0  0
    6.6427   -1.2802   -0.3170 H   0  0  0  0  0  0  0  0  0  0  0  0
    5.2055    0.1562   -2.4571 H   0  0  0  0  0  0  0  0  0  0  0  0
    3.7258   -0.5791   -4.3227 H   0  0  0  0  0  0  0  0  0  0  0  0
    2.3322   -2.6346   -4.0448 H   0  0  0  0  0  0  0  0  0  0  0  0
    2.3784   -3.8837   -1.9495 H   0  0  0  0  0  0  0  0  0  0  0  0
  1  2  1  0
  1 17  1  0
  1 18  1  0
  1 19  1  0
  2  7  1  0
  2  3  1  0
  3  4  1  0
  3 20  1  0
  3 21  1  0
  4  5  1  0
  4 22  1  0
  4 23  1  0
  5 16  1  0
  5  6  1  0
  5  8  1  0
  6  7  1  0
  6 24  1  0
  6 25  1  0
  7 26  1  0
  7 27  1  0
  8  9  1  0
  9 10  1  0
  9 28  1  0
  9 29  1  0
 10 11  1  0
 10 30  1  0
 10 31  1  0
 11 16  2  0
 11 12  1  0
 12 13  2  0
 12 32  1  0
 13 14  1  0
 13 33  1  0
 14 15  2  0
 14 34  1  0
 15 16  1  0
 15 35  1  0
M  END
>  <i_m_ct_stereo_status>  (152) 
1

>  <s_m_source_file>  (152) 
/var/tmp/pbs.5076255.sched01/tmpav68hifr/35m6z7vsub.sdf

>  <i_m_source_file_index>  (152) 
34

>  <i_lp_mmshare_version>  (152) 
48012

>  <i_f3d_flags>  (152) 
0

>  <s_epik_input>  (152) 
W0NIMl0xW0NIMl1OKFtDSDNdKVtDSDJdW0NIMl1DMTJjM2MoW0NIMl1bQ0gyXU8yKVtjSF1bY0hdW2NIXVtjSF0z

>  <s_epik_cmdline>  (152) 
J2VwaWtfcHl0aG9uJywgJy1waHQnLCAnMi4wJywgJy1waCcsICc3LjAnLCAnLXRuJywgJzgnLCAnLW1hJywgJzIwMCcsICctaW1hZScsICc8aW5maWxlLm1hZT4nLCAnLW9tYWUnLCAnPG91dGZpbGUubWFlPic=

>  <r_epik_Ionization_Penalty>  (152) 
2.38413

>  <r_epik_Ionization_Penalty_Charging>  (152) 
0

>  <r_epik_Ionization_Penalty_Neutral>  (152) 
2.38413

>  <r_epik_State_Penalty>  (152) 
2.54084

>  <r_epik_Charging_Adjusted_Penalty>  (152) 
2.54084

>  <i_epik_Tot_Q>  (152) 
0

>  <i_epik_Tot_abs_Q>  (152) 
0

>  <s_lp_Force_Field>  (152) 
OPLS3e

>  <r_lp_Energy>  (152) 
23.0938

>  <b_lp_Chiralities_Consistent>  (152) 
1

>  <s_lp_Variant>  (152) 
55:0-2

>  <s_i_glide_gridfile>  (152) 
pfpi4k_grid

>  <i_i_glide_lignum>  (152) 
34

>  <i_i_glide_rotatable_bonds>  (152) 
0

>  <r_i_docking_score>  (152) 
-3.44438

>  <r_i_glide_ligand_efficiency>  (152) 
-0.215274

>  <r_i_glide_ligand_efficiency_sa>  (152) 
-0.542456

>  <r_i_glide_ligand_efficiency_ln>  (152) 
-0.913002

>  <r_i_glide_gscore>  (152) 
-3.44438

>  <r_i_glide_lipo>  (152) 
-0.41852

>  <r_i_glide_hbond>  (152) 
0

>  <r_i_glide_metal>  (152) 
-0

>  <r_i_glide_rewards>  (152) 
-1.92745

>  <r_i_glide_evdw>  (152) 
-17.9662

>  <r_i_glide_ecoul>  (152) 
-1.33399

>  <r_i_glide_erotb>  (152) 
0

>  <r_i_glide_esite>  (152) 
0

>  <r_i_glide_emodel>  (152) 
-23.3848

>  <r_i_glide_energy>  (152) 
-19.3002

>  <r_i_glide_einternal>  (152) 
0

>  <r_i_glide_intrahb_reward>  (152) 
-0

>  <i_i_glide_confnum>  (152) 
2

>  <i_i_glide_posenum>  (152) 
21

>  <r_i_glide_eff_state_penalty>  (152) 
0

>  <ligand_id>  (152) 
55

>  <original_smiles>  (152) 
CN1CCC2(CC1)OCCc1ccccc12

>  <smiles>  (152) 
[H]c1c([H])c([H])c2c(c1[H])C([H])([H])C([H])([H])OC21C([H])([H])C([H])([H])N(C([H])([H])[H])C([H])([H])C1([H])[H]

$$$$
56:0:0
     RDKit          3D

 48 53  0  0  1  0  0  0  0  0999 V2000
    6.6239   -3.6888   -0.3227 C   0  0  0  0  0  0  0  0  0  0  0  0
    5.9161   -2.3387   -0.2283 C   0  0  0  0  0  0  0  0  0  0  0  0
    6.2087   -1.4694   -1.0521 O   0  0  0  0  0  0  0  0  0  0  0  0
    4.9112   -2.1400    0.8519 C   0  0  0  0  0  0  0  0  0  0  0  0
    4.1538   -0.9331    0.8829 C   0  0  0  0  0  0  0  0  0  0  0  0
    3.0961   -0.7409    1.8118 C   0  0  0  0  0  0  0  0  0  0  0  0
    2.7927   -1.7253    2.7753 C   0  0  0  0  0  0  0  0  0  0  0  0
    3.6834   -2.8035    2.7673 C   0  0  0  0  0  0  0  0  0  0  0  0
    4.6545   -3.1202    1.8411 C   0  0  0  0  0  0  0  0  0  0  0  0
    5.1189   -4.4033    1.9535 O   0  0  0  0  0  0  0  0  0  0  0  0
    4.4242   -5.0366    3.0413 C   0  0  2  0  0  0  0  0  0  0  0  0
    3.7481   -6.3613    2.6788 C   0  0  0  0  0  0  0  0  0  0  0  0
    4.4683   -7.3051    1.9226 C   0  0  0  0  0  0  0  0  0  0  0  0
    3.8969   -8.5565    1.6149 C   0  0  0  0  0  0  0  0  0  0  0  0
    4.6116   -9.4553    0.8837 O   0  0  0  0  0  0  0  0  0  0  0  0
    2.5987   -8.8689    2.0638 C   0  0  0  0  0  0  0  0  0  0  0  0
    1.8699   -7.9374    2.8296 C   0  0  0  0  0  0  0  0  0  0  0  0
    2.4420   -6.6843    3.1493 C   0  0  0  0  0  0  0  0  0  0  0  0
    1.6336   -5.6754    3.9582 C   0  0  0  0  0  0  0  0  0  0  0  0
    1.9840   -4.2599    3.4877 C   0  0  1  0  0  0  0  0  0  0  0  0
    1.1059   -3.0348    3.8965 C   0  0  2  0  0  0  0  0  0  0  0  0
    1.6492   -1.7344    3.5471 O   0  0  0  0  0  0  0  0  0  0  0  0
    0.6809   -3.0226    5.3654 C   0  0  0  0  0  0  0  0  0  0  0  0
   -0.5064   -2.9315    5.6796 O   0  0  0  0  0  0  0  0  0  0  0  0
    1.7492   -3.1470    6.4489 C   0  0  0  0  0  0  0  0  0  0  0  0
    3.1718   -2.7248    6.0280 C   0  0  0  0  0  0  0  0  0  0  0  0
    3.9395   -3.7196    5.1344 C   0  0  0  0  0  0  0  0  0  0  0  0
    3.4756   -3.9661    3.6659 C   0  0  2  0  0  0  0  0  0  0  0  0
    5.8984   -4.5045   -0.3213 H   0  0  0  0  0  0  0  0  0  0  0  0
    7.3123   -3.8204    0.5126 H   0  0  0  0  0  0  0  0  0  0  0  0
    7.1944   -3.7607   -1.2501 H   0  0  0  0  0  0  0  0  0  0  0  0
    4.3210   -0.1802    0.1295 H   0  0  0  0  0  0  0  0  0  0  0  0
    2.4615    0.1283    1.7167 H   0  0  0  0  0  0  0  0  0  0  0  0
    5.2215   -5.2859    3.7405 H   0  0  0  0  0  0  0  0  0  0  0  0
    5.4693   -7.0707    1.5868 H   0  0  0  0  0  0  0  0  0  0  0  0
    4.2558  -10.3470    0.8368 H   0  0  0  0  0  0  0  0  0  0  0  0
    2.1584   -9.8245    1.8144 H   0  0  0  0  0  0  0  0  0  0  0  0
    0.8697   -8.1905    3.1659 H   0  0  0  0  0  0  0  0  0  0  0  0
    0.5689   -5.8648    3.8251 H   0  0  0  0  0  0  0  0  0  0  0  0
    1.8542   -5.8036    5.0168 H   0  0  0  0  0  0  0  0  0  0  0  0
    1.8145   -4.3191    2.4113 H   0  0  0  0  0  0  0  0  0  0  0  0
    0.1909   -3.1000    3.3194 H   0  0  0  0  0  0  0  0  0  0  0  0
    1.4288   -2.5028    7.2683 H   0  0  0  0  0  0  0  0  0  0  0  0
    1.7397   -4.1676    6.8361 H   0  0  0  0  0  0  0  0  0  0  0  0
    3.1798   -1.7313    5.5828 H   0  0  0  0  0  0  0  0  0  0  0  0
    3.7428   -2.6237    6.9500 H   0  0  0  0  0  0  0  0  0  0  0  0
    4.9856   -3.3959    5.1076 H   0  0  0  0  0  0  0  0  0  0  0  0
    3.9482   -4.6747    5.6583 H   0  0  0  0  0  0  0  0  0  0  0  0
  1  2  1  0
  1 29  1  0
  1 30  1  0
  1 31  1  0
  2  3  2  0
  2  4  1  0
  4  9  2  0
  4  5  1  0
  5  6  2  0
  5 32  1  0
  6  7  1  0
  6 33  1  0
  7 22  1  0
  7  8  2  0
  8 28  1  0
  8  9  1  0
  9 10  1  0
 10 11  1  0
 11 28  1  0
 11 12  1  0
 11 34  1  1
 12 18  2  0
 12 13  1  0
 13 14  2  0
 13 35  1  0
 14 15  1  0
 14 16  1  0
 15 36  1  0
 16 17  2  0
 16 37  1  0
 17 18  1  0
 17 38  1  0
 18 19  1  0
 19 20  1  0
 19 39  1  0
 19 40  1  0
 20 28  1  0
 20 21  1  0
 20 41  1  6
 21 22  1  0
 21 23  1  0
 21 42  1  6
 23 24  2  0
 23 25  1  0
 25 26  1  0
 25 43  1  0
 25 44  1  0
 26 27  1  0
 26 45  1  0
 26 46  1  0
 28 27  1  1
 27 47  1  0
 27 48  1  0
M  END
>  <i_m_ct_stereo_status>  (153) 
1

>  <s_m_source_file>  (153) 
/var/tmp/pbs.5076255.sched01/tmpav68hifr/35m6z7vsub.sdf

>  <i_m_source_file_index>  (153) 
35

>  <i_lp_mmshare_version>  (153) 
48012

>  <i_f3d_flags>  (153) 
0

>  <s_epik_input>  (153) 
W0NAQF0xMjNjNGM1W2NIXVtjSF1jKEMoPU8pW0NIM10pYzRPW0NAQEhdMWM2YyhbY0hdW2NIXWMoW2NIXTYpW09IXSlbQ0gyXVtDQEhdMltDQEhdKE81KUMoPU8pW0NIMl1bQ0gyXVtDSDJdMw==

>  <s_epik_cmdline>  (153) 
J2VwaWtfcHl0aG9uJywgJy1waHQnLCAnMi4wJywgJy1waCcsICc3LjAnLCAnLXRuJywgJzgnLCAnLW1hJywgJzIwMCcsICctaW1hZScsICc8aW5maWxlLm1hZT4nLCAnLW9tYWUnLCAnPG91dGZpbGUubWFlPic=

>  <r_lp_tautomer_probability>  (153) 
0.99995

>  <r_epik_Ionization_Penalty>  (153) 
0.000481504

>  <r_epik_Ionization_Penalty_Charging>  (153) 
0

>  <r_epik_Ionization_Penalty_Neutral>  (153) 
0.000481504

>  <r_epik_State_Penalty>  (153) 
0.00029881

>  <r_epik_Charging_Adjusted_Penalty>  (153) 
0.00029881

>  <i_epik_Tot_Q>  (153) 
0

>  <i_epik_Tot_abs_Q>  (153) 
0

>  <s_lp_Force_Field>  (153) 
OPLS3e

>  <r_lp_Energy>  (153) 
50.1155

>  <b_lp_Chiralities_Consistent>  (153) 
1

>  <s_lp_Variant>  (153) 
56:0-1

>  <s_i_glide_gridfile>  (153) 
pfpi4k_grid

>  <i_i_glide_lignum>  (153) 
35

>  <i_i_glide_rotatable_bonds>  (153) 
2

>  <r_i_docking_score>  (153) 
-3.59262

>  <r_i_glide_ligand_efficiency>  (153) 
-0.128308

>  <r_i_glide_ligand_efficiency_sa>  (153) 
-0.389618

>  <r_i_glide_ligand_efficiency_ln>  (153) 
-0.829282

>  <r_i_glide_gscore>  (153) 
-3.59262

>  <r_i_glide_lipo>  (153) 
-0.257023

>  <r_i_glide_hbond>  (153) 
-0.277964

>  <r_i_glide_metal>  (153) 
-0

>  <r_i_glide_rewards>  (153) 
-0.842714

>  <r_i_glide_evdw>  (153) 
-23.031

>  <r_i_glide_ecoul>  (153) 
-7.01631

>  <r_i_glide_erotb>  (153) 
0

>  <r_i_glide_esite>  (153) 
-0.0109219

>  <r_i_glide_emodel>  (153) 
-37.2995

>  <r_i_glide_energy>  (153) 
-30.0473

>  <r_i_glide_einternal>  (153) 
0.485375

>  <r_i_glide_intrahb_reward>  (153) 
-0

>  <i_i_glide_confnum>  (153) 
1

>  <i_i_glide_posenum>  (153) 
1

>  <r_i_glide_eff_state_penalty>  (153) 
0

>  <ligand_id>  (153) 
56

>  <original_smiles>  (153) 
CC(=O)c1ccc2c3c1OC1c4cc(O)ccc4CC4C(O2)C(=O)CCCC314

>  <smiles>  (153) 
[H]Oc1c([H])c([H])c2c(c1[H])C1([H])Oc3c(C(=O)C([H])([H])[H])c([H])c([H])c4c3C13C([H])([H])C([H])([H])C([H])([H])C(=O)C([H])(O4)C3([H])C2([H])[H]

$$$$
56:0:1
     RDKit          3D

 48 53  0  0  1  0  0  0  0  0999 V2000
    5.1847   -3.8792   -0.6247 C   0  0  0  0  0  0  0  0  0  0  0  0
    5.1451   -2.3777   -0.3418 C   0  0  0  0  0  0  0  0  0  0  0  0
    5.7470   -1.6153   -1.1000 O   0  0  0  0  0  0  0  0  0  0  0  0
    4.3546   -1.9165    0.8364 C   0  0  0  0  0  0  0  0  0  0  0  0
    3.9443   -0.5563    0.9077 C   0  0  0  0  0  0  0  0  0  0  0  0
    3.0996   -0.0874    1.9464 C   0  0  0  0  0  0  0  0  0  0  0  0
    2.6864   -0.9474    2.9876 C   0  0  0  0  0  0  0  0  0  0  0  0
    3.2671   -2.2164    2.9212 C   0  0  0  0  0  0  0  0  0  0  0  0
    3.9917   -2.7854    1.8942 C   0  0  0  0  0  0  0  0  0  0  0  0
    4.1326   -4.1432    2.0120 O   0  0  0  0  0  0  0  0  0  0  0  0
    3.4581   -4.5564    3.2137 C   0  0  2  0  0  0  0  0  0  0  0  0
    2.4274   -5.6706    3.0126 C   0  0  0  0  0  0  0  0  0  0  0  0
    2.7820   -6.7867    2.2239 C   0  0  0  0  0  0  0  0  0  0  0  0
    1.8785   -7.8520    2.0532 C   0  0  0  0  0  0  0  0  0  0  0  0
    2.2321   -8.9209    1.2880 O   0  0  0  0  0  0  0  0  0  0  0  0
    0.6104   -7.8073    2.6671 C   0  0  0  0  0  0  0  0  0  0  0  0
    0.2513   -6.7079    3.4746 C   0  0  0  0  0  0  0  0  0  0  0  0
    1.1591   -5.6420    3.6574 C   0  0  0  0  0  0  0  0  0  0  0  0
    0.7535   -4.4467    4.5133 C   0  0  0  0  0  0  0  0  0  0  0  0
    1.3726   -3.1765    3.9273 C   0  0  1  0  0  0  0  0  0  0  0  0
    0.8843   -1.7607    4.3752 C   0  0  2  0  0  0  0  0  0  0  0  0
    1.6915   -0.6501    3.8973 O   0  0  0  0  0  0  0  0  0  0  0  0
    0.6781   -1.6181    5.8824 C   0  0  0  0  0  0  0  0  0  0  0  0
   -0.4061   -1.2474    6.3373 O   0  0  0  0  0  0  0  0  0  0  0  0
    1.8178   -1.9861    6.8305 C   0  0  0  0  0  0  0  0  0  0  0  0
    3.2329   -1.9512    6.2170 C   0  0  0  0  0  0  0  0  0  0  0  0
    3.6008   -3.1257    5.2853 C   0  0  0  0  0  0  0  0  0  0  0  0
    2.8990   -3.2683    3.8988 C   0  0  2  0  0  0  0  0  0  0  0  0
    4.1771   -4.3001   -0.6003 H   0  0  0  0  0  0  0  0  0  0  0  0
    5.7954   -4.3922    0.1200 H   0  0  0  0  0  0  0  0  0  0  0  0
    5.6133   -4.0797   -1.6079 H   0  0  0  0  0  0  0  0  0  0  0  0
    4.2022    0.1176    0.1044 H   0  0  0  0  0  0  0  0  0  0  0  0
    2.7012    0.9152    1.8965 H   0  0  0  0  0  0  0  0  0  0  0  0
    4.2507   -4.9904    3.8224 H   0  0  0  0  0  0  0  0  0  0  0  0
    3.7544   -6.8214    1.7550 H   0  0  0  0  0  0  0  0  0  0  0  0
    1.5080   -9.4989    1.0838 H   0  0  0  0  0  0  0  0  0  0  0  0
   -0.0824   -8.6272    2.5314 H   0  0  0  0  0  0  0  0  0  0  0  0
   -0.7215   -6.6978    3.9545 H   0  0  0  0  0  0  0  0  0  0  0  0
   -0.3298   -4.3588    4.5251 H   0  0  0  0  0  0  0  0  0  0  0  0
    1.0697   -4.6085    5.5433 H   0  0  0  0  0  0  0  0  0  0  0  0
    1.0454   -3.2073    2.8852 H   0  0  0  0  0  0  0  0  0  0  0  0
   -0.0943   -1.6045    3.9277 H   0  0  0  0  0  0  0  0  0  0  0  0
    1.7848   -1.2704    7.6525 H   0  0  0  0  0  0  0  0  0  0  0  0
    1.6070   -2.9637    7.2696 H   0  0  0  0  0  0  0  0  0  0  0  0
    3.4329   -1.0002    5.7252 H   0  0  0  0  0  0  0  0  0  0  0  0
    3.9295   -1.9834    7.0550 H   0  0  0  0  0  0  0  0  0  0  0  0
    4.6820   -3.0792    5.1151 H   0  0  0  0  0  0  0  0  0  0  0  0
    3.4424   -4.0436    5.8543 H   0  0  0  0  0  0  0  0  0  0  0  0
  1  2  1  0
  1 29  1  0
  1 30  1  0
  1 31  1  0
  2  3  2  0
  2  4  1  0
  4  9  2  0
  4  5  1  0
  5  6  2  0
  5 32  1  0
  6  7  1  0
  6 33  1  0
  7 22  1  0
  7  8  2  0
  8 28  1  0
  8  9  1  0
  9 10  1  0
 10 11  1  0
 11 28  1  0
 11 12  1  0
 11 34  1  1
 12 18  2  0
 12 13  1  0
 13 14  2  0
 13 35  1  0
 14 15  1  0
 14 16  1  0
 15 36  1  0
 16 17  2  0
 16 37  1  0
 17 18  1  0
 17 38  1  0
 18 19  1  0
 19 20  1  0
 19 39  1  0
 19 40  1  0
 20 28  1  0
 20 21  1  0
 20 41  1  6
 21 22  1  0
 21 23  1  0
 21 42  1  6
 23 24  2  0
 23 25  1  0
 25 26  1  0
 25 43  1  0
 25 44  1  0
 26 27  1  0
 26 45  1  0
 26 46  1  0
 28 27  1  1
 27 47  1  0
 27 48  1  0
M  END
>  <i_m_ct_stereo_status>  (154) 
1

>  <s_m_source_file>  (154) 
/var/tmp/pbs.5076255.sched01/tmpav68hifr/35m6z7vsub.sdf

>  <i_m_source_file_index>  (154) 
35

>  <i_lp_mmshare_version>  (154) 
48012

>  <i_f3d_flags>  (154) 
0

>  <s_epik_input>  (154) 
W0NAQF0xMjNjNGM1W2NIXVtjSF1jKEMoPU8pW0NIM10pYzRPW0NAQEhdMWM2YyhbY0hdW2NIXWMoW2NIXTYpW09IXSlbQ0gyXVtDQEhdMltDQEhdKE81KUMoPU8pW0NIMl1bQ0gyXVtDSDJdMw==

>  <s_epik_cmdline>  (154) 
J2VwaWtfcHl0aG9uJywgJy1waHQnLCAnMi4wJywgJy1waCcsICc3LjAnLCAnLXRuJywgJzgnLCAnLW1hJywgJzIwMCcsICctaW1hZScsICc8aW5maWxlLm1hZT4nLCAnLW9tYWUnLCAnPG91dGZpbGUubWFlPic=

>  <r_lp_tautomer_probability>  (154) 
0.99995

>  <r_epik_Ionization_Penalty>  (154) 
0.000481504

>  <r_epik_Ionization_Penalty_Charging>  (154) 
0

>  <r_epik_Ionization_Penalty_Neutral>  (154) 
0.000481504

>  <r_epik_State_Penalty>  (154) 
0.00029881

>  <r_epik_Charging_Adjusted_Penalty>  (154) 
0.00029881

>  <i_epik_Tot_Q>  (154) 
0

>  <i_epik_Tot_abs_Q>  (154) 
0

>  <s_lp_Force_Field>  (154) 
OPLS3e

>  <r_lp_Energy>  (154) 
50.1155

>  <b_lp_Chiralities_Consistent>  (154) 
1

>  <s_lp_Variant>  (154) 
56:0-1

>  <s_i_glide_gridfile>  (154) 
pfpi4k_grid

>  <i_i_glide_lignum>  (154) 
35

>  <i_i_glide_rotatable_bonds>  (154) 
2

>  <r_i_docking_score>  (154) 
-3.37914

>  <r_i_glide_ligand_efficiency>  (154) 
-0.120683

>  <r_i_glide_ligand_efficiency_sa>  (154) 
-0.366466

>  <r_i_glide_ligand_efficiency_ln>  (154) 
-0.780004

>  <r_i_glide_gscore>  (154) 
-3.37914

>  <r_i_glide_lipo>  (154) 
-0.134755

>  <r_i_glide_hbond>  (154) 
-0.278514

>  <r_i_glide_metal>  (154) 
-0

>  <r_i_glide_rewards>  (154) 
-0.842714

>  <r_i_glide_evdw>  (154) 
-23.967

>  <r_i_glide_ecoul>  (154) 
-6.06569

>  <r_i_glide_erotb>  (154) 
0

>  <r_i_glide_esite>  (154) 
-0.014947

>  <r_i_glide_emodel>  (154) 
-36.6985

>  <r_i_glide_energy>  (154) 
-30.0327

>  <r_i_glide_einternal>  (154) 
0.775382

>  <r_i_glide_intrahb_reward>  (154) 
-0

>  <i_i_glide_confnum>  (154) 
2

>  <i_i_glide_posenum>  (154) 
29

>  <r_i_glide_eff_state_penalty>  (154) 
0

>  <ligand_id>  (154) 
56

>  <original_smiles>  (154) 
CC(=O)c1ccc2c3c1OC1c4cc(O)ccc4CC4C(O2)C(=O)CCCC314

>  <smiles>  (154) 
[H]Oc1c([H])c([H])c2c(c1[H])C1([H])Oc3c(C(=O)C([H])([H])[H])c([H])c([H])c4c3C13C([H])([H])C([H])([H])C([H])([H])C(=O)C([H])(O4)C3([H])C2([H])[H]

$$$$
56:0:2
     RDKit          3D

 48 53  0  0  1  0  0  0  0  0999 V2000
    4.5836   -1.0693   -1.3317 C   0  0  0  0  0  0  0  0  0  0  0  0
    4.7758   -2.1753   -0.2932 C   0  0  0  0  0  0  0  0  0  0  0  0
    5.6299   -3.0326   -0.5148 O   0  0  0  0  0  0  0  0  0  0  0  0
    3.9179   -2.1353    0.9301 C   0  0  0  0  0  0  0  0  0  0  0  0
    3.0267   -1.0481    1.1737 C   0  0  0  0  0  0  0  0  0  0  0  0
    2.1388   -1.0320    2.2745 C   0  0  0  0  0  0  0  0  0  0  0  0
    2.1298   -2.0862    3.2090 C   0  0  0  0  0  0  0  0  0  0  0  0
    3.1243   -3.0410    2.9724 C   0  0  0  0  0  0  0  0  0  0  0  0
    3.9498   -3.1887    1.8741 C   0  0  0  0  0  0  0  0  0  0  0  0
    4.5661   -4.4132    1.8133 O   0  0  0  0  0  0  0  0  0  0  0  0
    4.1553   -5.1708    2.9705 C   0  0  2  0  0  0  0  0  0  0  0  0
    3.5797   -6.5523    2.6641 C   0  0  0  0  0  0  0  0  0  0  0  0
    4.2595   -7.3766    1.7422 C   0  0  0  0  0  0  0  0  0  0  0  0
    3.7900   -8.6744    1.4733 C   0  0  0  0  0  0  0  0  0  0  0  0
    4.4650   -9.4542    0.5909 O   0  0  0  0  0  0  0  0  0  0  0  0
    2.6331   -9.1606    2.1109 C   0  0  0  0  0  0  0  0  0  0  0  0
    1.9495   -8.3539    3.0446 C   0  0  0  0  0  0  0  0  0  0  0  0
    2.4248   -7.0548    3.3320 C   0  0  0  0  0  0  0  0  0  0  0  0
    1.6607   -6.1865    4.3268 C   0  0  0  0  0  0  0  0  0  0  0  0
    1.7586   -4.7234    3.8889 C   0  0  1  0  0  0  0  0  0  0  0  0
    0.8308   -3.6354    4.5133 C   0  0  2  0  0  0  0  0  0  0  0  0
    1.1472   -2.2688    4.1582 O   0  0  0  0  0  0  0  0  0  0  0  0
    0.6736   -3.7295    6.0278 C   0  0  0  0  0  0  0  0  0  0  0  0
   -0.4485   -3.7832    6.5342 O   0  0  0  0  0  0  0  0  0  0  0  0
    1.9216   -3.7641    6.9070 C   0  0  0  0  0  0  0  0  0  0  0  0
    3.1921   -3.1555    6.2755 C   0  0  0  0  0  0  0  0  0  0  0  0
    3.9012   -4.0119    5.2054 C   0  0  0  0  0  0  0  0  0  0  0  0
    3.2166   -4.2557    3.8203 C   0  0  2  0  0  0  0  0  0  0  0  0
    4.6180   -0.0863   -0.8612 H   0  0  0  0  0  0  0  0  0  0  0  0
    3.6256   -1.1844   -1.8446 H   0  0  0  0  0  0  0  0  0  0  0  0
    5.3749   -1.1017   -2.0821 H   0  0  0  0  0  0  0  0  0  0  0  0
    2.9296   -0.2419    0.4668 H   0  0  0  0  0  0  0  0  0  0  0  0
    1.4052   -0.2425    2.3402 H   0  0  0  0  0  0  0  0  0  0  0  0
    5.0845   -5.3466    3.5130 H   0  0  0  0  0  0  0  0  0  0  0  0
    5.1511   -7.0069    1.2545 H   0  0  0  0  0  0  0  0  0  0  0  0
    4.2190  -10.3891    0.5686 H   0  0  0  0  0  0  0  0  0  0  0  0
    2.2702  -10.1522    1.8841 H   0  0  0  0  0  0  0  0  0  0  0  0
    1.0610   -8.7421    3.5291 H   0  0  0  0  0  0  0  0  0  0  0  0
    0.6184   -6.5012    4.3641 H   0  0  0  0  0  0  0  0  0  0  0  0
    2.0745   -6.3288    5.3242 H   0  0  0  0  0  0  0  0  0  0  0  0
    1.4069   -4.7603    2.8557 H   0  0  0  0  0  0  0  0  0  0  0  0
   -0.1647   -3.7940    4.1069 H   0  0  0  0  0  0  0  0  0  0  0  0
    1.6819   -3.1981    7.8081 H   0  0  0  0  0  0  0  0  0  0  0  0
    2.0974   -4.7904    7.2298 H   0  0  0  0  0  0  0  0  0  0  0  0
    3.0097   -2.1506    5.8983 H   0  0  0  0  0  0  0  0  0  0  0  0
    3.9008   -3.0198    7.0930 H   0  0  0  0  0  0  0  0  0  0  0  0
    4.8803   -3.5600    5.0236 H   0  0  0  0  0  0  0  0  0  0  0  0
    4.1118   -4.9776    5.6637 H   0  0  0  0  0  0  0  0  0  0  0  0
  1  2  1  0
  1 29  1  0
  1 30  1  0
  1 31  1  0
  2  3  2  0
  2  4  1  0
  4  9  2  0
  4  5  1  0
  5  6  2  0
  5 32  1  0
  6  7  1  0
  6 33  1  0
  7 22  1  0
  7  8  2  0
  8 28  1  0
  8  9  1  0
  9 10  1  0
 10 11  1  0
 11 28  1  0
 11 12  1  0
 11 34  1  1
 12 18  2  0
 12 13  1  0
 13 14  2  0
 13 35  1  0
 14 15  1  0
 14 16  1  0
 15 36  1  0
 16 17  2  0
 16 37  1  0
 17 18  1  0
 17 38  1  0
 18 19  1  0
 19 20  1  0
 19 39  1  0
 19 40  1  0
 20 28  1  0
 20 21  1  0
 20 41  1  6
 21 22  1  0
 21 23  1  0
 21 42  1  6
 23 24  2  0
 23 25  1  0
 25 26  1  0
 25 43  1  0
 25 44  1  0
 26 27  1  0
 26 45  1  0
 26 46  1  0
 28 27  1  1
 27 47  1  0
 27 48  1  0
M  END
>  <i_m_ct_stereo_status>  (155) 
1

>  <s_m_source_file>  (155) 
/var/tmp/pbs.5076255.sched01/tmpav68hifr/35m6z7vsub.sdf

>  <i_m_source_file_index>  (155) 
35

>  <i_lp_mmshare_version>  (155) 
48012

>  <i_f3d_flags>  (155) 
0

>  <s_epik_input>  (155) 
W0NAQF0xMjNjNGM1W2NIXVtjSF1jKEMoPU8pW0NIM10pYzRPW0NAQEhdMWM2YyhbY0hdW2NIXWMoW2NIXTYpW09IXSlbQ0gyXVtDQEhdMltDQEhdKE81KUMoPU8pW0NIMl1bQ0gyXVtDSDJdMw==

>  <s_epik_cmdline>  (155) 
J2VwaWtfcHl0aG9uJywgJy1waHQnLCAnMi4wJywgJy1waCcsICc3LjAnLCAnLXRuJywgJzgnLCAnLW1hJywgJzIwMCcsICctaW1hZScsICc8aW5maWxlLm1hZT4nLCAnLW9tYWUnLCAnPG91dGZpbGUubWFlPic=

>  <r_lp_tautomer_probability>  (155) 
0.99995

>  <r_epik_Ionization_Penalty>  (155) 
0.000481504

>  <r_epik_Ionization_Penalty_Charging>  (155) 
0

>  <r_epik_Ionization_Penalty_Neutral>  (155) 
0.000481504

>  <r_epik_State_Penalty>  (155) 
0.00029881

>  <r_epik_Charging_Adjusted_Penalty>  (155) 
0.00029881

>  <i_epik_Tot_Q>  (155) 
0

>  <i_epik_Tot_abs_Q>  (155) 
0

>  <s_lp_Force_Field>  (155) 
OPLS3e

>  <r_lp_Energy>  (155) 
50.1155

>  <b_lp_Chiralities_Consistent>  (155) 
1

>  <s_lp_Variant>  (155) 
56:0-1

>  <s_i_glide_gridfile>  (155) 
pfpi4k_grid

>  <i_i_glide_lignum>  (155) 
35

>  <i_i_glide_rotatable_bonds>  (155) 
2

>  <r_i_docking_score>  (155) 
-3.12559

>  <r_i_glide_ligand_efficiency>  (155) 
-0.111628

>  <r_i_glide_ligand_efficiency_sa>  (155) 
-0.338969

>  <r_i_glide_ligand_efficiency_ln>  (155) 
-0.721478

>  <r_i_glide_gscore>  (155) 
-3.12559

>  <r_i_glide_lipo>  (155) 
-0.0719002

>  <r_i_glide_hbond>  (155) 
-0.16

>  <r_i_glide_metal>  (155) 
-0

>  <r_i_glide_rewards>  (155) 
-0.842714

>  <r_i_glide_evdw>  (155) 
-22.0632

>  <r_i_glide_ecoul>  (155) 
-6.21376

>  <r_i_glide_erotb>  (155) 
0

>  <r_i_glide_esite>  (155) 
-0.0157516

>  <r_i_glide_emodel>  (155) 
-34.4522

>  <r_i_glide_energy>  (155) 
-28.2769

>  <r_i_glide_einternal>  (155) 
0.479746

>  <r_i_glide_intrahb_reward>  (155) 
-0

>  <i_i_glide_confnum>  (155) 
2

>  <i_i_glide_posenum>  (155) 
9

>  <r_i_glide_eff_state_penalty>  (155) 
0

>  <ligand_id>  (155) 
56

>  <original_smiles>  (155) 
CC(=O)c1ccc2c3c1OC1c4cc(O)ccc4CC4C(O2)C(=O)CCCC314

>  <smiles>  (155) 
[H]Oc1c([H])c([H])c2c(c1[H])C1([H])Oc3c(C(=O)C([H])([H])[H])c([H])c([H])c4c3C13C([H])([H])C([H])([H])C([H])([H])C(=O)C([H])(O4)C3([H])C2([H])[H]

$$$$
57:0:0
     RDKit          3D

 75 79  0  0  1  0  0  0  0  0999 V2000
    4.0848   -1.0679   -1.1120 C   0  0  0  0  0  0  0  0  0  0  0  0
    4.4405   -2.0309    0.0298 C   0  0  2  0  0  0  0  0  0  0  0  0
    5.9200   -1.8796    0.3645 C   0  0  0  0  0  0  0  0  0  0  0  0
    6.3177   -2.7993    1.5092 C   0  0  0  0  0  0  0  0  0  0  0  0
    5.9466   -4.2924    1.3598 C   0  0  1  0  0  0  0  0  0  0  0  0
    6.8761   -4.9495    0.3356 C   0  0  0  0  0  0  0  0  0  0  0  0
    6.2113   -4.9635    2.7234 C   0  0  0  0  0  0  0  0  0  0  0  0
    5.5855   -6.3337    2.8359 C   0  0  0  0  0  0  0  0  0  0  0  0
    4.0384   -6.2513    2.7216 C   0  0  1  0  0  0  0  0  0  0  0  0
    3.5486   -5.6652    4.0644 C   0  0  0  0  0  0  0  0  0  0  0  0
    3.6157   -5.2032    1.6582 C   0  0  0  0  0  0  0  0  0  0  0  0
    4.4696   -4.4217    0.9467 C   0  0  0  0  0  0  0  0  0  0  0  0
    4.1499   -3.5105   -0.2815 C   0  0  1  0  0  0  0  0  0  0  0  0
    2.8403   -3.7267   -1.0600 C   0  0  0  0  0  0  0  0  0  0  0  0
    2.1031   -5.1077    1.5866 C   0  0  0  0  0  0  0  0  0  0  0  0
    1.4630   -6.4317    1.2443 C   0  0  0  0  0  0  0  0  0  0  0  0
    0.5996   -6.4601    0.3776 O   0  0  0  0  0  0  0  0  0  0  0  0
    1.8583   -7.6784    2.0700 C   0  0  2  0  0  0  0  0  0  0  0  0
    0.8230   -8.1042    3.2088 C   0  0  2  0  0  0  0  0  0  0  0  0
   -0.4232   -8.7193    2.4823 C   0  0  0  0  0  0  0  0  0  0  0  0
   -1.6634   -8.4655    3.3166 C   0  0  0  0  0  0  0  0  0  0  0  0
   -1.2499   -7.2571    4.1588 C   0  0  0  0  0  0  0  0  0  0  0  0
   -2.0201   -6.5957    4.8144 O   0  0  0  0  0  0  0  0  0  0  0  0
    0.2290   -6.9463    4.0805 C   0  0  1  0  0  0  0  0  0  0  0  0
    0.7554   -6.7137    5.5348 C   0  0  0  0  0  0  0  0  0  0  0  0
    1.4107   -9.2275    4.1110 C   0  0  0  0  0  0  0  0  0  0  0  0
    2.8687   -8.9664    4.5563 C   0  0  0  0  0  0  0  0  0  0  0  0
    3.7884   -8.8714    3.3259 C   0  0  1  0  0  0  0  0  0  0  0  0
    3.8389  -10.2774    2.6877 C   0  0  0  0  0  0  0  0  0  0  0  0
    3.4316   -7.6945    2.3245 C   0  0  2  0  0  0  0  0  0  0  0  0
    4.0340   -8.0694    0.9320 C   0  0  0  0  0  0  0  0  0  0  0  0
    4.5962   -1.3196   -2.0470 H   0  0  0  0  0  0  0  0  0  0  0  0
    4.3564   -0.0521   -0.8313 H   0  0  0  0  0  0  0  0  0  0  0  0
    3.0135   -1.0632   -1.3037 H   0  0  0  0  0  0  0  0  0  0  0  0
    3.8543   -1.7454    0.9005 H   0  0  0  0  0  0  0  0  0  0  0  0
    6.5352   -2.1038   -0.5119 H   0  0  0  0  0  0  0  0  0  0  0  0
    6.1423   -0.8499    0.6385 H   0  0  0  0  0  0  0  0  0  0  0  0
    7.3970   -2.7274    1.5955 H   0  0  0  0  0  0  0  0  0  0  0  0
    5.8838   -2.3952    2.4220 H   0  0  0  0  0  0  0  0  0  0  0  0
    7.8987   -5.0379    0.6923 H   0  0  0  0  0  0  0  0  0  0  0  0
    6.9139   -4.3586   -0.5749 H   0  0  0  0  0  0  0  0  0  0  0  0
    6.5227   -5.9461    0.0849 H   0  0  0  0  0  0  0  0  0  0  0  0
    7.2838   -5.0667    2.8766 H   0  0  0  0  0  0  0  0  0  0  0  0
    5.8666   -4.3328    3.5402 H   0  0  0  0  0  0  0  0  0  0  0  0
    6.0469   -6.9702    2.0890 H   0  0  0  0  0  0  0  0  0  0  0  0
    5.8626   -6.7702    3.7933 H   0  0  0  0  0  0  0  0  0  0  0  0
    3.9386   -6.2082    4.9156 H   0  0  0  0  0  0  0  0  0  0  0  0
    2.4885   -5.6762    4.1193 H   0  0  0  0  0  0  0  0  0  0  0  0
    3.8791   -4.6221    4.1954 H   0  0  0  0  0  0  0  0  0  0  0  0
    4.8849   -3.8232   -1.0185 H   0  0  0  0  0  0  0  0  0  0  0  0
    2.5585   -4.7710   -1.0601 H   0  0  0  0  0  0  0  0  0  0  0  0
    2.9713   -3.4406   -2.1025 H   0  0  0  0  0  0  0  0  0  0  0  0
    2.0023   -3.1459   -0.6711 H   0  0  0  0  0  0  0  0  0  0  0  0
    1.6661   -4.7526    2.5154 H   0  0  0  0  0  0  0  0  0  0  0  0
    1.7902   -4.3538    0.8966 H   0  0  0  0  0  0  0  0  0  0  0  0
    1.7090   -8.5011    1.3518 H   0  0  0  0  0  0  0  0  0  0  0  0
   -0.6327   -8.2719    1.5008 H   0  0  0  0  0  0  0  0  0  0  0  0
   -0.3105   -9.7813    2.2725 H   0  0  0  0  0  0  0  0  0  0  0  0
   -2.5481   -8.2723    2.7107 H   0  0  0  0  0  0  0  0  0  0  0  0
   -1.8755   -9.3075    3.9738 H   0  0  0  0  0  0  0  0  0  0  0  0
    0.2442   -6.0017    3.5357 H   0  0  0  0  0  0  0  0  0  0  0  0
    0.2861   -5.8121    5.9886 H   0  0  0  0  0  0  0  0  0  0  0  0
    1.8149   -6.5983    5.6028 H   0  0  0  0  0  0  0  0  0  0  0  0
    0.4635   -7.5533    6.2027 H   0  0  0  0  0  0  0  0  0  0  0  0
    0.7802   -9.3718    4.9693 H   0  0  0  0  0  0  0  0  0  0  0  0
    1.3365  -10.2030    3.6150 H   0  0  0  0  0  0  0  0  0  0  0  0
    2.9857   -8.0857    5.1765 H   0  0  0  0  0  0  0  0  0  0  0  0
    3.1721   -9.8220    5.1876 H   0  0  0  0  0  0  0  0  0  0  0  0
    4.7844   -8.6930    3.7142 H   0  0  0  0  0  0  0  0  0  0  0  0
    2.9355  -10.5185    2.1225 H   0  0  0  0  0  0  0  0  0  0  0  0
    3.9464  -11.0409    3.4555 H   0  0  0  0  0  0  0  0  0  0  0  0
    4.6923  -10.3859    2.0190 H   0  0  0  0  0  0  0  0  0  0  0  0
    3.5038   -8.9093    0.4815 H   0  0  0  0  0  0  0  0  0  0  0  0
    5.0733   -8.3877    0.9775 H   0  0  0  0  0  0  0  0  0  0  0  0
    3.9754   -7.2610    0.1994 H   0  0  0  0  0  0  0  0  0  0  0  0
  1  2  1  0
  1 32  1  0
  1 33  1  0
  1 34  1  0
  2 13  1  0
  2  3  1  0
  2 35  1  1
  3  4  1  0
  3 36  1  0
  3 37  1  0
  4  5  1  0
  4 38  1  0
  4 39  1  0
  5 12  1  0
  5  6  1  6
  5  7  1  0
  6 40  1  0
  6 41  1  0
  6 42  1  0
  7  8  1  0
  7 43  1  0
  7 44  1  0
  8  9  1  0
  8 45  1  0
  8 46  1  0
  9 30  1  0
  9 10  1  1
  9 11  1  0
 10 47  1  0
 10 48  1  0
 10 49  1  0
 11 12  2  0
 11 15  1  0
 12 13  1  0
 13 14  1  0
 13 50  1  6
 14 51  1  0
 14 52  1  0
 14 53  1  0
 15 16  1  0
 15 54  1  0
 15 55  1  0
 16 17  2  0
 16 18  1  0
 18 30  1  0
 18 19  1  0
 18 56  1  6
 19 24  1  0
 19 20  1  6
 19 26  1  0
 20 21  1  0
 20 57  1  0
 20 58  1  0
 21 22  1  0
 21 59  1  0
 21 60  1  0
 22 23  2  0
 22 24  1  0
 24 25  1  0
 24 61  1  6
 25 62  1  0
 25 63  1  0
 25 64  1  0
 26 27  1  0
 26 65  1  0
 26 66  1  0
 27 28  1  0
 27 67  1  0
 27 68  1  0
 28 29  1  0
 28 30  1  0
 28 69  1  1
 29 70  1  0
 29 71  1  0
 29 72  1  0
 30 31  1  6
 31 73  1  0
 31 74  1  0
 31 75  1  0
M  END
>  <i_m_ct_stereo_status>  (156) 
1

>  <s_m_source_file>  (156) 
/var/tmp/pbs.5076255.sched01/tmpc2azvghe/701e6xuegj.sdf

>  <i_m_source_file_index>  (156) 
1

>  <i_lp_mmshare_version>  (156) 
48012

>  <i_f3d_flags>  (156) 
0

>  <s_epik_input>  (156) 
W0NIM11bQ0BIXTFbQ0BIXShbQ0gzXSlbQ0gyXVtDSDJdW0NAQF0oW0NIM10pKFtDSDJdW0NIMl0yKUMxPUMoW0NIMl1DMz1PKVtDQEBdMihbQ0gzXSlbQ0BAXShbQ0gzXSkoW0NASF0oW0NIM10pW0NIMl1bQ0gyXTQpW0NASF0zW0NAQF00NVtDSDJdW0NIMl1DKD1PKVtDQEhdNVtDSDNd

>  <s_epik_cmdline>  (156) 
J2VwaWtfcHl0aG9uJywgJy1waHQnLCAnMi4wJywgJy1waCcsICc3LjAnLCAnLXRuJywgJzgnLCAnLW1hJywgJzIwMCcsICctaW1hZScsICc8aW5maWxlLm1hZT4nLCAnLW9tYWUnLCAnPG91dGZpbGUubWFlPic=

>  <r_lp_tautomer_probability>  (156) 
1

>  <r_epik_Ionization_Penalty>  (156) 
2.31937e-13

>  <r_epik_Ionization_Penalty_Charging>  (156) 
0

>  <r_epik_Ionization_Penalty_Neutral>  (156) 
2.31937e-13

>  <r_epik_State_Penalty>  (156) 
-0

>  <r_epik_Charging_Adjusted_Penalty>  (156) 
0

>  <i_epik_Tot_Q>  (156) 
0

>  <i_epik_Tot_abs_Q>  (156) 
0

>  <s_lp_Force_Field>  (156) 
OPLS3e

>  <r_lp_Energy>  (156) 
92.3005

>  <b_lp_Chiralities_Consistent>  (156) 
1

>  <s_lp_Variant>  (156) 
57:0-1

>  <s_i_glide_gridfile>  (156) 
pfpi4k_grid

>  <i_i_glide_lignum>  (156) 
1

>  <i_i_glide_rotatable_bonds>  (156) 
0

>  <r_i_docking_score>  (156) 
-3.09731

>  <r_i_glide_ligand_efficiency>  (156) 
-0.0999132

>  <r_i_glide_ligand_efficiency_sa>  (156) 
-0.313865

>  <r_i_glide_ligand_efficiency_ln>  (156) 
-0.698538

>  <r_i_glide_gscore>  (156) 
-3.09731

>  <r_i_glide_lipo>  (156) 
-0.424693

>  <r_i_glide_hbond>  (156) 
-0.293152

>  <r_i_glide_metal>  (156) 
-0

>  <r_i_glide_rewards>  (156) 
-0.513692

>  <r_i_glide_evdw>  (156) 
-21.0182

>  <r_i_glide_ecoul>  (156) 
-4.64456

>  <r_i_glide_erotb>  (156) 
0

>  <r_i_glide_esite>  (156) 
-0.118179

>  <r_i_glide_emodel>  (156) 
-30.2655

>  <r_i_glide_energy>  (156) 
-25.6627

>  <r_i_glide_einternal>  (156) 
0

>  <r_i_glide_intrahb_reward>  (156) 
-0

>  <i_i_glide_confnum>  (156) 
3

>  <i_i_glide_posenum>  (156) 
21

>  <r_i_glide_eff_state_penalty>  (156) 
0

>  <ligand_id>  (156) 
57

>  <original_smiles>  (156) 
CC1CCC2(C)CCC3(C)C(=C2C1C)CC(=O)C1C2(CCC(=O)C2C)CCC(C)C13C

>  <smiles>  (156) 
[H]C1([H])C(=O)C2([H])C3(C([H])([H])C([H])([H])C(=O)C3([H])C([H])([H])[H])C([H])([H])C([H])([H])C([H])(C([H])([H])[H])C2(C([H])([H])[H])C2(C([H])([H])[H])C1=C1C([H])(C([H])([H])[H])C([H])(C([H])([H])[H])C([H])([H])C([H])([H])C1(C([H])([H])[H])C([H])([H])C2([H])[H]

$$$$
57:0:1
     RDKit          3D

 75 79  0  0  1  0  0  0  0  0999 V2000
    6.8098   -2.9803   -0.2137 C   0  0  0  0  0  0  0  0  0  0  0  0
    6.7738   -4.0617    0.8826 C   0  0  2  0  0  0  0  0  0  0  0  0
    8.1968   -4.5595    1.1774 C   0  0  0  0  0  0  0  0  0  0  0  0
    8.2161   -5.6125    2.2866 C   0  0  0  0  0  0  0  0  0  0  0  0
    7.2483   -6.7983    2.0901 C   0  0  1  0  0  0  0  0  0  0  0  0
    7.8237   -7.7274    1.0114 C   0  0  0  0  0  0  0  0  0  0  0  0
    7.2499   -7.5688    3.4283 C   0  0  0  0  0  0  0  0  0  0  0  0
    6.1003   -8.5623    3.5034 C   0  0  0  0  0  0  0  0  0  0  0  0
    4.7140   -7.8529    3.4229 C   0  0  1  0  0  0  0  0  0  0  0  0
    4.5081   -7.1737    4.8015 C   0  0  0  0  0  0  0  0  0  0  0  0
    4.7310   -6.6754    2.4131 C   0  0  0  0  0  0  0  0  0  0  0  0
    5.8400   -6.2843    1.7152 C   0  0  0  0  0  0  0  0  0  0  0  0
    5.8947   -5.2841    0.5334 C   0  0  1  0  0  0  0  0  0  0  0  0
    4.6057   -4.9629   -0.2471 C   0  0  0  0  0  0  0  0  0  0  0  0
    3.3691   -5.9710    2.3536 C   0  0  0  0  0  0  0  0  0  0  0  0
    2.2531   -6.9308    1.9815 C   0  0  0  0  0  0  0  0  0  0  0  0
    1.4447   -6.6206    1.1017 O   0  0  0  0  0  0  0  0  0  0  0  0
    2.1335   -8.2559    2.7716 C   0  0  2  0  0  0  0  0  0  0  0  0
    1.0288   -8.2747    3.9400 C   0  0  2  0  0  0  0  0  0  0  0  0
   -0.3726   -8.3005    3.2232 C   0  0  0  0  0  0  0  0  0  0  0  0
   -1.3878   -7.5934    4.1121 C   0  0  0  0  0  0  0  0  0  0  0  0
   -0.5244   -6.6768    4.9546 C   0  0  0  0  0  0  0  0  0  0  0  0
   -0.9883   -5.7563    5.6650 O   0  0  0  0  0  0  0  0  0  0  0  0
    0.9544   -6.9919    4.8799 C   0  0  1  0  0  0  0  0  0  0  0  0
    1.5478   -7.0661    6.3330 C   0  0  0  0  0  0  0  0  0  0  0  0
    1.1246   -9.5859    4.7673 C   0  0  0  0  0  0  0  0  0  0  0  0
    2.5638   -9.9587    5.2013 C   0  0  0  0  0  0  0  0  0  0  0  0
    3.4267  -10.1831    3.9475 C   0  0  1  0  0  0  0  0  0  0  0  0
    2.8992  -11.4663    3.2550 C   0  0  0  0  0  0  0  0  0  0  0  0
    3.5648   -8.9129    2.9978 C   0  0  2  0  0  0  0  0  0  0  0  0
    3.9477   -9.4335    1.5708 C   0  0  0  0  0  0  0  0  0  0  0  0
    7.1661   -3.3767   -1.1664 H   0  0  0  0  0  0  0  0  0  0  0  0
    7.4722   -2.1677    0.0843 H   0  0  0  0  0  0  0  0  0  0  0  0
    5.8288   -2.5386   -0.3771 H   0  0  0  0  0  0  0  0  0  0  0  0
    6.3649   -3.6026    1.7790 H   0  0  0  0  0  0  0  0  0  0  0  0
    8.6544   -4.9662    0.2723 H   0  0  0  0  0  0  0  0  0  0  0  0
    8.8193   -3.7182    1.4774 H   0  0  0  0  0  0  0  0  0  0  0  0
    9.2342   -5.9646    2.4528 H   0  0  0  0  0  0  0  0  0  0  0  0
    7.9382   -5.1121    3.2044 H   0  0  0  0  0  0  0  0  0  0  0  0
    8.6570   -8.2413    1.4030 H   0  0  0  0  0  0  0  0  0  0  0  0
    8.1254   -7.1967    0.1087 H   0  0  0  0  0  0  0  0  0  0  0  0
    7.0892   -8.5008    0.7545 H   0  0  0  0  0  0  0  0  0  0  0  0
    8.1940   -8.0965    3.5695 H   0  0  0  0  0  0  0  0  0  0  0  0
    7.1962   -6.8870    4.2752 H   0  0  0  0  0  0  0  0  0  0  0  0
    6.2589   -9.3069    2.7264 H   0  0  0  0  0  0  0  0  0  0  0  0
    6.1798   -9.1145    4.4387 H   0  0  0  0  0  0  0  0  0  0  0  0
    4.6507   -7.8721    5.6175 H   0  0  0  0  0  0  0  0  0  0  0  0
    3.5328   -6.7775    4.8985 H   0  0  0  0  0  0  0  0  0  0  0  0
    5.2569   -6.3774    4.9585 H   0  0  0  0  0  0  0  0  0  0  0  0
    6.4374   -5.8414   -0.2168 H   0  0  0  0  0  0  0  0  0  0  0  0
    3.9523   -5.8347   -0.3264 H   0  0  0  0  0  0  0  0  0  0  0  0
    4.8457   -4.6790   -1.2686 H   0  0  0  0  0  0  0  0  0  0  0  0
    4.0629   -4.1180    0.1812 H   0  0  0  0  0  0  0  0  0  0  0  0
    3.1278   -5.5255    3.3180 H   0  0  0  0  0  0  0  0  0  0  0  0
    3.3310   -5.0946    1.7226 H   0  0  0  0  0  0  0  0  0  0  0  0
    1.6603   -8.9251    2.0440 H   0  0  0  0  0  0  0  0  0  0  0  0
   -0.4092   -7.7844    2.2609 H   0  0  0  0  0  0  0  0  0  0  0  0
   -0.7013   -9.3117    2.9779 H   0  0  0  0  0  0  0  0  0  0  0  0
   -2.1310   -7.0568    3.5197 H   0  0  0  0  0  0  0  0  0  0  0  0
   -1.9120   -8.3222    4.7348 H   0  0  0  0  0  0  0  0  0  0  0  0
    1.3527   -6.1262    4.3511 H   0  0  0  0  0  0  0  0  0  0  0  0
    1.4712   -6.0635    6.8171 H   0  0  0  0  0  0  0  0  0  0  0  0
    2.5733   -7.3926    6.3538 H   0  0  0  0  0  0  0  0  0  0  0  0
    0.9293   -7.7294    6.9690 H   0  0  0  0  0  0  0  0  0  0  0  0
    0.4951   -9.4994    5.6370 H   0  0  0  0  0  0  0  0  0  0  0  0
    0.6363  -10.4317    4.2453 H   0  0  0  0  0  0  0  0  0  0  0  0
    3.0265   -9.2090    5.8497 H   0  0  0  0  0  0  0  0  0  0  0  0
    2.4901  -10.8947    5.7890 H   0  0  0  0  0  0  0  0  0  0  0  0
    4.4145  -10.4404    4.3168 H   0  0  0  0  0  0  0  0  0  0  0  0
    1.9635  -11.2921    2.7182 H   0  0  0  0  0  0  0  0  0  0  0  0
    2.6949  -12.2379    4.0030 H   0  0  0  0  0  0  0  0  0  0  0  0
    3.6289  -11.8838    2.5618 H   0  0  0  0  0  0  0  0  0  0  0  0
    3.1176   -9.9492    1.0918 H   0  0  0  0  0  0  0  0  0  0  0  0
    4.7632  -10.1539    1.5940 H   0  0  0  0  0  0  0  0  0  0  0  0
    4.2246   -8.6398    0.8765 H   0  0  0  0  0  0  0  0  0  0  0  0
  1  2  1  0
  1 32  1  0
  1 33  1  0
  1 34  1  0
  2 13  1  0
  2  3  1  0
  2 35  1  1
  3  4  1  0
  3 36  1  0
  3 37  1  0
  4  5  1  0
  4 38  1  0
  4 39  1  0
  5 12  1  0
  5  6  1  6
  5  7  1  0
  6 40  1  0
  6 41  1  0
  6 42  1  0
  7  8  1  0
  7 43  1  0
  7 44  1  0
  8  9  1  0
  8 45  1  0
  8 46  1  0
  9 30  1  0
  9 10  1  1
  9 11  1  0
 10 47  1  0
 10 48  1  0
 10 49  1  0
 11 12  2  0
 11 15  1  0
 12 13  1  0
 13 14  1  0
 13 50  1  6
 14 51  1  0
 14 52  1  0
 14 53  1  0
 15 16  1  0
 15 54  1  0
 15 55  1  0
 16 17  2  0
 16 18  1  0
 18 30  1  0
 18 19  1  0
 18 56  1  6
 19 24  1  0
 19 20  1  6
 19 26  1  0
 20 21  1  0
 20 57  1  0
 20 58  1  0
 21 22  1  0
 21 59  1  0
 21 60  1  0
 22 23  2  0
 22 24  1  0
 24 25  1  0
 24 61  1  6
 25 62  1  0
 25 63  1  0
 25 64  1  0
 26 27  1  0
 26 65  1  0
 26 66  1  0
 27 28  1  0
 27 67  1  0
 27 68  1  0
 28 29  1  0
 28 30  1  0
 28 69  1  1
 29 70  1  0
 29 71  1  0
 29 72  1  0
 30 31  1  6
 31 73  1  0
 31 74  1  0
 31 75  1  0
M  END
>  <i_m_ct_stereo_status>  (157) 
1

>  <s_m_source_file>  (157) 
/var/tmp/pbs.5076255.sched01/tmpc2azvghe/701e6xuegj.sdf

>  <i_m_source_file_index>  (157) 
1

>  <i_lp_mmshare_version>  (157) 
48012

>  <i_f3d_flags>  (157) 
0

>  <s_epik_input>  (157) 
W0NIM11bQ0BIXTFbQ0BIXShbQ0gzXSlbQ0gyXVtDSDJdW0NAQF0oW0NIM10pKFtDSDJdW0NIMl0yKUMxPUMoW0NIMl1DMz1PKVtDQEBdMihbQ0gzXSlbQ0BAXShbQ0gzXSkoW0NASF0oW0NIM10pW0NIMl1bQ0gyXTQpW0NASF0zW0NAQF00NVtDSDJdW0NIMl1DKD1PKVtDQEhdNVtDSDNd

>  <s_epik_cmdline>  (157) 
J2VwaWtfcHl0aG9uJywgJy1waHQnLCAnMi4wJywgJy1waCcsICc3LjAnLCAnLXRuJywgJzgnLCAnLW1hJywgJzIwMCcsICctaW1hZScsICc8aW5maWxlLm1hZT4nLCAnLW9tYWUnLCAnPG91dGZpbGUubWFlPic=

>  <r_lp_tautomer_probability>  (157) 
1

>  <r_epik_Ionization_Penalty>  (157) 
2.31937e-13

>  <r_epik_Ionization_Penalty_Charging>  (157) 
0

>  <r_epik_Ionization_Penalty_Neutral>  (157) 
2.31937e-13

>  <r_epik_State_Penalty>  (157) 
-0

>  <r_epik_Charging_Adjusted_Penalty>  (157) 
0

>  <i_epik_Tot_Q>  (157) 
0

>  <i_epik_Tot_abs_Q>  (157) 
0

>  <s_lp_Force_Field>  (157) 
OPLS3e

>  <r_lp_Energy>  (157) 
92.3005

>  <b_lp_Chiralities_Consistent>  (157) 
1

>  <s_lp_Variant>  (157) 
57:0-1

>  <s_i_glide_gridfile>  (157) 
pfpi4k_grid

>  <i_i_glide_lignum>  (157) 
1

>  <i_i_glide_rotatable_bonds>  (157) 
0

>  <r_i_docking_score>  (157) 
-2.79988

>  <r_i_glide_ligand_efficiency>  (157) 
-0.0903188

>  <r_i_glide_ligand_efficiency_sa>  (157) 
-0.283726

>  <r_i_glide_ligand_efficiency_ln>  (157) 
-0.631459

>  <r_i_glide_gscore>  (157) 
-2.79988

>  <r_i_glide_lipo>  (157) 
-0.494289

>  <r_i_glide_hbond>  (157) 
0

>  <r_i_glide_metal>  (157) 
-0

>  <r_i_glide_rewards>  (157) 
-0.513692

>  <r_i_glide_evdw>  (157) 
-28.0017

>  <r_i_glide_ecoul>  (157) 
-2.34406

>  <r_i_glide_erotb>  (157) 
0

>  <r_i_glide_esite>  (157) 
-0.0402076

>  <r_i_glide_emodel>  (157) 
-34.8457

>  <r_i_glide_energy>  (157) 
-30.3458

>  <r_i_glide_einternal>  (157) 
0

>  <r_i_glide_intrahb_reward>  (157) 
-0

>  <i_i_glide_confnum>  (157) 
3

>  <i_i_glide_posenum>  (157) 
2

>  <r_i_glide_eff_state_penalty>  (157) 
0

>  <ligand_id>  (157) 
57

>  <original_smiles>  (157) 
CC1CCC2(C)CCC3(C)C(=C2C1C)CC(=O)C1C2(CCC(=O)C2C)CCC(C)C13C

>  <smiles>  (157) 
[H]C1([H])C(=O)C2([H])C3(C([H])([H])C([H])([H])C(=O)C3([H])C([H])([H])[H])C([H])([H])C([H])([H])C([H])(C([H])([H])[H])C2(C([H])([H])[H])C2(C([H])([H])[H])C1=C1C([H])(C([H])([H])[H])C([H])(C([H])([H])[H])C([H])([H])C([H])([H])C1(C([H])([H])[H])C([H])([H])C2([H])[H]

$$$$
57:0:2
     RDKit          3D

 75 79  0  0  1  0  0  0  0  0999 V2000
   -1.7604    3.2865    3.2818 C   0  0  0  0  0  0  0  0  0  0  0  0
   -1.3169    2.1069    4.1681 C   0  0  2  0  0  0  0  0  0  0  0  0
   -1.7323    2.3635    5.6243 C   0  0  0  0  0  0  0  0  0  0  0  0
   -1.3559    1.1884    6.5304 C   0  0  0  0  0  0  0  0  0  0  0  0
    0.1387    0.7511    6.4602 C   0  0  1  0  0  0  0  0  0  0  0  0
    1.0480    1.7907    7.1547 C   0  0  0  0  0  0  0  0  0  0  0  0
    0.2289   -0.5751    7.2463 C   0  0  0  0  0  0  0  0  0  0  0  0
    1.5203   -1.3223    6.9586 C   0  0  0  0  0  0  0  0  0  0  0  0
    1.6521   -1.7184    5.4625 C   0  0  1  0  0  0  0  0  0  0  0  0
    0.6810   -2.9058    5.2671 C   0  0  0  0  0  0  0  0  0  0  0  0
    1.1028   -0.6083    4.5186 C   0  0  0  0  0  0  0  0  0  0  0  0
    0.5502    0.5661    4.9729 C   0  0  0  0  0  0  0  0  0  0  0  0
    0.2085    1.8252    4.1315 C   0  0  1  0  0  0  0  0  0  0  0  0
    0.8693    1.9983    2.7495 C   0  0  0  0  0  0  0  0  0  0  0  0
    1.2227   -1.0166    3.0541 C   0  0  0  0  0  0  0  0  0  0  0  0
    2.6584   -1.3368    2.6542 C   0  0  0  0  0  0  0  0  0  0  0  0
    3.1645   -0.8221    1.6748 O   0  0  0  0  0  0  0  0  0  0  0  0
    3.4316   -2.3304    3.5481 C   0  0  2  0  0  0  0  0  0  0  0  0
    3.5309   -3.8548    3.0008 C   0  0  2  0  0  0  0  0  0  0  0  0
    4.4905   -3.8125    1.7697 C   0  0  0  0  0  0  0  0  0  0  0  0
    4.0732   -4.9161    0.7898 C   0  0  0  0  0  0  0  0  0  0  0  0
    2.6164   -5.1505    1.1350 C   0  0  0  0  0  0  0  0  0  0  0  0
    1.8608   -5.8267    0.4543 O   0  0  0  0  0  0  0  0  0  0  0  0
    2.2153   -4.4607    2.4252 C   0  0  1  0  0  0  0  0  0  0  0  0
    1.4238   -5.4691    3.2984 C   0  0  0  0  0  0  0  0  0  0  0  0
    4.1577   -4.7830    4.0421 C   0  0  0  0  0  0  0  0  0  0  0  0
    3.6284   -4.5881    5.4754 C   0  0  0  0  0  0  0  0  0  0  0  0
    3.8900   -3.1580    5.9657 C   0  0  1  0  0  0  0  0  0  0  0  0
    5.4178   -3.0111    6.1430 C   0  0  0  0  0  0  0  0  0  0  0  0
    3.1916   -2.0317    5.0843 C   0  0  2  0  0  0  0  0  0  0  0  0
    3.9921   -0.6957    5.3257 C   0  0  0  0  0  0  0  0  0  0  0  0
   -1.2374    4.2064    3.5433 H   0  0  0  0  0  0  0  0  0  0  0  0
   -2.8303    3.4628    3.3836 H   0  0  0  0  0  0  0  0  0  0  0  0
   -1.5721    3.0861    2.2287 H   0  0  0  0  0  0  0  0  0  0  0  0
   -1.8310    1.2190    3.8037 H   0  0  0  0  0  0  0  0  0  0  0  0
   -1.2683    3.2793    5.9929 H   0  0  0  0  0  0  0  0  0  0  0  0
   -2.8073    2.5441    5.6764 H   0  0  0  0  0  0  0  0  0  0  0  0
   -1.6208    1.4253    7.5623 H   0  0  0  0  0  0  0  0  0  0  0  0
   -1.9940    0.3535    6.2418 H   0  0  0  0  0  0  0  0  0  0  0  0
    0.8960    1.7923    8.2350 H   0  0  0  0  0  0  0  0  0  0  0  0
    0.8578    2.8073    6.8181 H   0  0  0  0  0  0  0  0  0  0  0  0
    2.1006    1.5825    6.9712 H   0  0  0  0  0  0  0  0  0  0  0  0
    0.1430   -0.3907    8.3174 H   0  0  0  0  0  0  0  0  0  0  0  0
   -0.6113   -1.2262    7.0062 H   0  0  0  0  0  0  0  0  0  0  0  0
    2.3333   -0.7012    7.3156 H   0  0  0  0  0  0  0  0  0  0  0  0
    1.5530   -2.2108    7.5929 H   0  0  0  0  0  0  0  0  0  0  0  0
    0.8227   -3.6900    6.0043 H   0  0  0  0  0  0  0  0  0  0  0  0
    0.8056   -3.3423    4.2957 H   0  0  0  0  0  0  0  0  0  0  0  0
   -0.3739   -2.5955    5.3641 H   0  0  0  0  0  0  0  0  0  0  0  0
    0.6768    2.6344    4.6772 H   0  0  0  0  0  0  0  0  0  0  0  0
    1.8947    1.6272    2.7337 H   0  0  0  0  0  0  0  0  0  0  0  0
    0.9351    3.0557    2.4943 H   0  0  0  0  0  0  0  0  0  0  0  0
    0.2918    1.5463    1.9421 H   0  0  0  0  0  0  0  0  0  0  0  0
    0.6043   -1.8902    2.8550 H   0  0  0  0  0  0  0  0  0  0  0  0
    0.8039   -0.3120    2.3416 H   0  0  0  0  0  0  0  0  0  0  0  0
    4.4696   -2.0133    3.3884 H   0  0  0  0  0  0  0  0  0  0  0  0
    4.4554   -2.8808    1.2003 H   0  0  0  0  0  0  0  0  0  0  0  0
    5.5385   -3.9144    2.0465 H   0  0  0  0  0  0  0  0  0  0  0  0
    4.2127   -4.6084   -0.2531 H   0  0  0  0  0  0  0  0  0  0  0  0
    4.6477   -5.8300    0.9583 H   0  0  0  0  0  0  0  0  0  0  0  0
    1.5398   -3.6650    2.1046 H   0  0  0  0  0  0  0  0  0  0  0  0
    0.4552   -5.7605    2.8269 H   0  0  0  0  0  0  0  0  0  0  0  0
    1.1797   -5.1038    4.3081 H   0  0  0  0  0  0  0  0  0  0  0  0
    1.9690   -6.4156    3.4305 H   0  0  0  0  0  0  0  0  0  0  0  0
    4.0587   -5.8105    3.7393 H   0  0  0  0  0  0  0  0  0  0  0  0
    5.2653   -4.6690    4.0628 H   0  0  0  0  0  0  0  0  0  0  0  0
    2.5456   -4.8255    5.5509 H   0  0  0  0  0  0  0  0  0  0  0  0
    4.1332   -5.3145    6.1308 H   0  0  0  0  0  0  0  0  0  0  0  0
    3.4787   -3.1068    6.9702 H   0  0  0  0  0  0  0  0  0  0  0  0
    5.9377   -2.8979    5.1888 H   0  0  0  0  0  0  0  0  0  0  0  0
    5.8369   -3.8926    6.6308 H   0  0  0  0  0  0  0  0  0  0  0  0
    5.6789   -2.1574    6.7710 H   0  0  0  0  0  0  0  0  0  0  0  0
    4.9880   -0.7151    4.8764 H   0  0  0  0  0  0  0  0  0  0  0  0
    4.1608   -0.4848    6.3815 H   0  0  0  0  0  0  0  0  0  0  0  0
    3.5077    0.1842    4.8972 H   0  0  0  0  0  0  0  0  0  0  0  0
  1  2  1  0
  1 32  1  0
  1 33  1  0
  1 34  1  0
  2 13  1  0
  2  3  1  0
  2 35  1  6
  3  4  1  0
  3 36  1  0
  3 37  1  0
  4  5  1  0
  4 38  1  0
  4 39  1  0
  5 12  1  0
  5  6  1  1
  5  7  1  0
  6 40  1  0
  6 41  1  0
  6 42  1  0
  7  8  1  0
  7 43  1  0
  7 44  1  0
  8  9  1  0
  8 45  1  0
  8 46  1  0
  9 30  1  0
  9 10  1  1
  9 11  1  0
 10 47  1  0
 10 48  1  0
 10 49  1  0
 11 12  2  0
 11 15  1  0
 12 13  1  0
 13 14  1  0
 13 50  1  1
 14 51  1  0
 14 52  1  0
 14 53  1  0
 15 16  1  0
 15 54  1  0
 15 55  1  0
 16 17  2  0
 16 18  1  0
 18 30  1  0
 18 19  1  0
 18 56  1  1
 19 24  1  0
 19 20  1  6
 19 26  1  0
 20 21  1  0
 20 57  1  0
 20 58  1  0
 21 22  1  0
 21 59  1  0
 21 60  1  0
 22 23  2  0
 22 24  1  0
 24 25  1  0
 24 61  1  6
 25 62  1  0
 25 63  1  0
 25 64  1  0
 26 27  1  0
 26 65  1  0
 26 66  1  0
 27 28  1  0
 27 67  1  0
 27 68  1  0
 28 29  1  0
 28 30  1  0
 28 69  1  1
 29 70  1  0
 29 71  1  0
 29 72  1  0
 30 31  1  1
 31 73  1  0
 31 74  1  0
 31 75  1  0
M  END
>  <i_m_ct_stereo_status>  (158) 
1

>  <s_m_source_file>  (158) 
/var/tmp/pbs.5076255.sched01/tmpc2azvghe/701e6xuegj.sdf

>  <i_m_source_file_index>  (158) 
1

>  <i_lp_mmshare_version>  (158) 
48012

>  <i_f3d_flags>  (158) 
0

>  <s_epik_input>  (158) 
W0NIM11bQ0BIXTFbQ0BIXShbQ0gzXSlbQ0gyXVtDSDJdW0NAQF0oW0NIM10pKFtDSDJdW0NIMl0yKUMxPUMoW0NIMl1DMz1PKVtDQEBdMihbQ0gzXSlbQ0BAXShbQ0gzXSkoW0NASF0oW0NIM10pW0NIMl1bQ0gyXTQpW0NASF0zW0NAQF00NVtDSDJdW0NIMl1DKD1PKVtDQEhdNVtDSDNd

>  <s_epik_cmdline>  (158) 
J2VwaWtfcHl0aG9uJywgJy1waHQnLCAnMi4wJywgJy1waCcsICc3LjAnLCAnLXRuJywgJzgnLCAnLW1hJywgJzIwMCcsICctaW1hZScsICc8aW5maWxlLm1hZT4nLCAnLW9tYWUnLCAnPG91dGZpbGUubWFlPic=

>  <r_lp_tautomer_probability>  (158) 
1

>  <r_epik_Ionization_Penalty>  (158) 
2.31937e-13

>  <r_epik_Ionization_Penalty_Charging>  (158) 
0

>  <r_epik_Ionization_Penalty_Neutral>  (158) 
2.31937e-13

>  <r_epik_State_Penalty>  (158) 
-0

>  <r_epik_Charging_Adjusted_Penalty>  (158) 
0

>  <i_epik_Tot_Q>  (158) 
0

>  <i_epik_Tot_abs_Q>  (158) 
0

>  <s_lp_Force_Field>  (158) 
OPLS3e

>  <r_lp_Energy>  (158) 
92.3005

>  <b_lp_Chiralities_Consistent>  (158) 
1

>  <s_lp_Variant>  (158) 
57:0-1

>  <s_i_glide_gridfile>  (158) 
pfpi4k_grid

>  <i_i_glide_lignum>  (158) 
1

>  <i_i_glide_rotatable_bonds>  (158) 
0

>  <r_i_docking_score>  (158) 
-2.19212

>  <r_i_glide_ligand_efficiency>  (158) 
-0.0707134

>  <r_i_glide_ligand_efficiency_sa>  (158) 
-0.222138

>  <r_i_glide_ligand_efficiency_ln>  (158) 
-0.494389

>  <r_i_glide_gscore>  (158) 
-2.19212

>  <r_i_glide_lipo>  (158) 
-0.0763796

>  <r_i_glide_hbond>  (158) 
-0.0521647

>  <r_i_glide_metal>  (158) 
-0

>  <r_i_glide_rewards>  (158) 
-0.513692

>  <r_i_glide_evdw>  (158) 
-26.0956

>  <r_i_glide_ecoul>  (158) 
-1.39774

>  <r_i_glide_erotb>  (158) 
0

>  <r_i_glide_esite>  (158) 
-0.0354414

>  <r_i_glide_emodel>  (158) 
-29.9788

>  <r_i_glide_energy>  (158) 
-27.4933

>  <r_i_glide_einternal>  (158) 
0

>  <r_i_glide_intrahb_reward>  (158) 
-0

>  <i_i_glide_confnum>  (158) 
2

>  <i_i_glide_posenum>  (158) 
1

>  <r_i_glide_eff_state_penalty>  (158) 
0

>  <ligand_id>  (158) 
57

>  <original_smiles>  (158) 
CC1CCC2(C)CCC3(C)C(=C2C1C)CC(=O)C1C2(CCC(=O)C2C)CCC(C)C13C

>  <smiles>  (158) 
[H]C1([H])C(=O)C2([H])C3(C([H])([H])C([H])([H])C(=O)C3([H])C([H])([H])[H])C([H])([H])C([H])([H])C([H])(C([H])([H])[H])C2(C([H])([H])[H])C2(C([H])([H])[H])C1=C1C([H])(C([H])([H])[H])C([H])(C([H])([H])[H])C([H])([H])C([H])([H])C1(C([H])([H])[H])C([H])([H])C2([H])[H]

$$$$
58:0:0
     RDKit          3D

 74 81  0  0  1  0  0  0  0  0999 V2000
    2.8110   -3.0511    2.8396 C   0  0  0  0  0  0  0  0  0  0  0  0
    4.1417   -3.5182    3.4757 C   0  0  2  0  0  0  0  0  0  0  0  0
    5.2065   -2.4732    2.9951 C   0  0  0  0  0  0  0  0  0  0  0  0
    5.4775   -2.6332    1.5007 C   0  0  1  0  0  0  0  0  0  0  0  0
    6.4995   -1.8199    0.9354 O   0  0  0  0  0  0  0  0  0  0  0  0
    7.0179   -2.4882   -0.2036 C   0  0  2  0  0  0  0  0  0  0  0  0
    6.6329   -1.9077   -1.4273 O   0  0  0  0  0  0  0  0  0  0  0  0
    6.0986   -2.8846   -2.2787 C   0  0  2  0  0  0  0  0  0  0  0  0
    5.0276   -2.4129   -3.0065 O   0  0  0  0  0  0  0  0  0  0  0  0
    3.9038   -2.5856   -2.2081 C   0  0  0  0  0  0  0  0  0  0  0  0
    3.5191   -1.2474   -1.5992 C   0  0  0  0  0  0  0  0  0  0  0  0
    2.8067   -3.2035   -3.0714 C   0  0  0  0  0  0  0  0  0  0  0  0
    4.1703   -3.4139   -1.1423 O   0  0  0  0  0  0  0  0  0  0  0  0
    5.4639   -3.9119   -1.3607 C   0  0  2  0  0  0  0  0  0  0  0  0
    6.4437   -3.9126   -0.1817 C   0  0  2  0  0  0  0  0  0  0  0  0
    5.9677   -4.0363    1.2438 C   0  0  2  0  0  0  0  0  0  0  0  0
    4.9944   -5.1356    1.7004 C   0  0  0  0  0  0  0  0  0  0  0  0
    4.5889   -6.1524    0.9110 C   0  0  0  0  0  0  0  0  0  0  0  0
    3.7534   -7.2996    1.3927 C   0  0  0  0  0  0  0  0  0  0  0  0
    3.8612   -7.5149    2.9101 C   0  0  2  0  0  0  0  0  0  0  0  0
    2.9185   -8.6632    3.3194 C   0  0  1  0  0  0  0  0  0  0  0  0
    3.1257   -9.2834    4.7118 C   0  0  0  0  0  0  0  0  0  0  0  0
    4.0652   -9.3490    5.4975 O   0  0  0  0  0  0  0  0  0  0  0  0
    1.6091   -9.5093    4.7817 C   0  0  1  0  0  0  0  0  0  0  0  0
    1.0450   -9.3906    6.1770 C   0  0  0  0  0  0  0  0  0  0  0  0
    1.6768   -9.4371    7.4390 C   0  0  0  0  0  0  0  0  0  0  0  0
    0.6201   -9.3147    8.3234 C   0  0  0  0  0  0  0  0  0  0  0  0
   -0.5577   -9.2191    7.6680 O   0  0  0  0  0  0  0  0  0  0  0  0
   -0.2908   -9.2422    6.3447 C   0  0  0  0  0  0  0  0  0  0  0  0
    1.4584   -8.3619    3.7384 C   0  0  2  0  0  0  0  0  0  0  0  0
    0.4261   -8.5932    2.6343 C   0  0  0  0  0  0  0  0  0  0  0  0
    1.2186   -6.9804    4.3476 C   0  0  0  0  0  0  0  0  0  0  0  0
    2.0637   -5.8792    3.7067 C   0  0  0  0  0  0  0  0  0  0  0  0
    3.5748   -6.1791    3.6620 C   0  0  2  0  0  0  0  0  0  0  0  0
    4.5618   -5.0287    3.1930 C   0  0  2  0  0  0  0  0  0  0  0  0
    5.7931   -5.3267    4.0832 C   0  0  0  0  0  0  0  0  0  0  0  0
    2.6052   -3.5964    1.9193 H   0  0  0  0  0  0  0  0  0  0  0  0
    2.8617   -1.9912    2.5796 H   0  0  0  0  0  0  0  0  0  0  0  0
    1.9670   -3.1241    3.5210 H   0  0  0  0  0  0  0  0  0  0  0  0
    4.0528   -3.3955    4.5576 H   0  0  0  0  0  0  0  0  0  0  0  0
    4.8952   -1.4497    3.2139 H   0  0  0  0  0  0  0  0  0  0  0  0
    6.1359   -2.5971    3.5356 H   0  0  0  0  0  0  0  0  0  0  0  0
    4.5761   -2.4464    0.9232 H   0  0  0  0  0  0  0  0  0  0  0  0
    8.1089   -2.4796   -0.1477 H   0  0  0  0  0  0  0  0  0  0  0  0
    6.8776   -3.2979   -2.9203 H   0  0  0  0  0  0  0  0  0  0  0  0
    4.3799   -0.7966   -1.0737 H   0  0  0  0  0  0  0  0  0  0  0  0
    2.6873   -1.3998   -0.9280 H   0  0  0  0  0  0  0  0  0  0  0  0
    3.2359   -0.5742   -2.4058 H   0  0  0  0  0  0  0  0  0  0  0  0
    3.1501   -4.1353   -3.5300 H   0  0  0  0  0  0  0  0  0  0  0  0
    2.5334   -2.5227   -3.8806 H   0  0  0  0  0  0  0  0  0  0  0  0
    1.9269   -3.4006   -2.4576 H   0  0  0  0  0  0  0  0  0  0  0  0
    5.3179   -4.8685   -1.8718 H   0  0  0  0  0  0  0  0  0  0  0  0
    7.2586   -4.6014   -0.3296 H   0  0  0  0  0  0  0  0  0  0  0  0
    6.8723   -4.1946    1.8220 H   0  0  0  0  0  0  0  0  0  0  0  0
    4.8608   -6.2161   -0.1347 H   0  0  0  0  0  0  0  0  0  0  0  0
    2.7333   -7.0790    1.1228 H   0  0  0  0  0  0  0  0  0  0  0  0
    4.0716   -8.1959    0.8654 H   0  0  0  0  0  0  0  0  0  0  0  0
    4.8955   -7.8262    3.1320 H   0  0  0  0  0  0  0  0  0  0  0  0
    2.8939   -9.4799    2.5959 H   0  0  0  0  0  0  0  0  0  0  0  0
    1.2774  -10.4627    4.3663 H   0  0  0  0  0  0  0  0  0  0  0  0
    2.7118   -9.5543    7.7289 H   0  0  0  0  0  0  0  0  0  0  0  0
    0.5031   -9.2883    9.3751 H   0  0  0  0  0  0  0  0  0  0  0  0
   -1.1332   -9.1661    5.6753 H   0  0  0  0  0  0  0  0  0  0  0  0
   -0.5874   -8.5958    3.0357 H   0  0  0  0  0  0  0  0  0  0  0  0
    0.5827   -9.5537    2.1541 H   0  0  0  0  0  0  0  0  0  0  0  0
    0.4960   -7.8271    1.8646 H   0  0  0  0  0  0  0  0  0  0  0  0
    0.1556   -6.7208    4.3517 H   0  0  0  0  0  0  0  0  0  0  0  0
    1.5203   -6.9981    5.3940 H   0  0  0  0  0  0  0  0  0  0  0  0
    1.6792   -5.6555    2.7125 H   0  0  0  0  0  0  0  0  0  0  0  0
    1.9078   -5.0246    4.3602 H   0  0  0  0  0  0  0  0  0  0  0  0
    3.8011   -6.3719    4.7148 H   0  0  0  0  0  0  0  0  0  0  0  0
    5.5729   -5.2102    5.1518 H   0  0  0  0  0  0  0  0  0  0  0  0
    6.5964   -4.6634    3.8409 H   0  0  0  0  0  0  0  0  0  0  0  0
    6.1883   -6.3338    3.9301 H   0  0  0  0  0  0  0  0  0  0  0  0
  1  2  1  0
  1 37  1  0
  1 38  1  0
  1 39  1  0
  2 35  1  0
  2  3  1  0
  2 40  1  1
  3  4  1  0
  3 41  1  0
  3 42  1  0
  4 16  1  0
  4  5  1  0
  4 43  1  6
  5  6  1  0
  6 15  1  0
  6  7  1  0
  6 44  1  1
  7  8  1  0
  8 14  1  0
  8  9  1  0
  8 45  1  6
  9 10  1  0
 10 11  1  0
 10 12  1  0
 10 13  1  0
 11 46  1  0
 11 47  1  0
 11 48  1  0
 12 49  1  0
 12 50  1  0
 12 51  1  0
 13 14  1  0
 14 15  1  0
 14 52  1  6
 15 16  1  0
 15 53  1  6
 16 17  1  0
 16 54  1  1
 17 35  1  0
 17 18  2  0
 18 19  1  0
 18 55  1  0
 19 20  1  0
 19 56  1  0
 19 57  1  0
 20 34  1  0
 20 21  1  0
 20 58  1  6
 21 30  1  0
 21 22  1  0
 21 59  1  6
 22 23  2  0
 22 24  1  0
 24 25  1  0
 24 30  1  0
 24 60  1  6
 25 29  2  0
 25 26  1  0
 26 27  2  0
 26 61  1  0
 27 28  1  0
 27 62  1  0
 28 29  1  0
 29 63  1  0
 30 31  1  6
 30 32  1  0
 31 64  1  0
 31 65  1  0
 31 66  1  0
 32 33  1  0
 32 67  1  0
 32 68  1  0
 33 34  1  0
 33 69  1  0
 33 70  1  0
 34 35  1  0
 34 71  1  1
 35 36  1  1
 36 72  1  0
 36 73  1  0
 36 74  1  0
M  END
>  <i_m_ct_stereo_status>  (159) 
1

>  <s_m_source_file>  (159) 
/var/tmp/pbs.5076255.sched01/tmpc2azvghe/701e6xuegj.sdf

>  <i_m_source_file_index>  (159) 
2

>  <i_lp_mmshare_version>  (159) 
48012

>  <i_f3d_flags>  (159) 
0

>  <s_epik_input>  (159) 
W0NIM11DKE8xKShbQ0gzXSlPW0NAQEhdKE8yKVtDQEhdMVtDQEhdM1tDQEBIXTJPW0NASF0oW0NIMl1bQ0BIXTRbQ0gzXSlbQ0BIXTNDKD1bQ0hdW0NIMl01KVtDQF00KFtDSDNdKVtDQEBIXShbQ0gyXVtDSDJdNilbQ0BIXTVbQ0BIXShbQ0BdNjdbQ0gzXSlDKD1PKVtDQEhdN2M4W2NIXVtjSF1vW2NIXTg=

>  <s_epik_cmdline>  (159) 
J2VwaWtfcHl0aG9uJywgJy1waHQnLCAnMi4wJywgJy1waCcsICc3LjAnLCAnLXRuJywgJzgnLCAnLW1hJywgJzIwMCcsICctaW1hZScsICc8aW5maWxlLm1hZT4nLCAnLW9tYWUnLCAnPG91dGZpbGUubWFlPic=

>  <r_lp_tautomer_probability>  (159) 
1

>  <r_epik_Ionization_Penalty>  (159) 
3.13372e-13

>  <r_epik_Ionization_Penalty_Charging>  (159) 
0

>  <r_epik_Ionization_Penalty_Neutral>  (159) 
3.13372e-13

>  <r_epik_State_Penalty>  (159) 
-0

>  <r_epik_Charging_Adjusted_Penalty>  (159) 
0

>  <i_epik_Tot_Q>  (159) 
0

>  <i_epik_Tot_abs_Q>  (159) 
0

>  <s_epik_Chemistry_Notes>  (159) 
This compound contains an acetal/aminal-like group ( X-CH(R)-Y where X, Y are N, S, or O) that may be acid/base labile, releasing an aldehyde.

>  <s_lp_Force_Field>  (159) 
OPLS3e

>  <r_lp_Energy>  (159) 
43.1621

>  <b_lp_Chiralities_Consistent>  (159) 
1

>  <s_lp_Variant>  (159) 
58:0-1

>  <s_i_glide_gridfile>  (159) 
pfpi4k_grid

>  <i_i_glide_lignum>  (159) 
2

>  <i_i_glide_rotatable_bonds>  (159) 
1

>  <r_i_docking_score>  (159) 
-2.53985

>  <r_i_glide_ligand_efficiency>  (159) 
-0.0705515

>  <r_i_glide_ligand_efficiency_sa>  (159) 
-0.232956

>  <r_i_glide_ligand_efficiency_ln>  (159) 
-0.554127

>  <r_i_glide_gscore>  (159) 
-2.53985

>  <r_i_glide_lipo>  (159) 
-0.6003

>  <r_i_glide_hbond>  (159) 
-0.16

>  <r_i_glide_metal>  (159) 
-0

>  <r_i_glide_rewards>  (159) 
-0.177302

>  <r_i_glide_evdw>  (159) 
-22.2058

>  <r_i_glide_ecoul>  (159) 
-3.70061

>  <r_i_glide_erotb>  (159) 
0.0833022

>  <r_i_glide_esite>  (159) 
-0.0201709

>  <r_i_glide_emodel>  (159) 
-27.8671

>  <r_i_glide_energy>  (159) 
-25.9064

>  <r_i_glide_einternal>  (159) 
0.23873

>  <r_i_glide_intrahb_reward>  (159) 
-0

>  <i_i_glide_confnum>  (159) 
3

>  <i_i_glide_posenum>  (159) 
7

>  <r_i_glide_eff_state_penalty>  (159) 
0

>  <ligand_id>  (159) 
58

>  <original_smiles>  (159) 
CC1CC2OC3OC4OC(C)(C)OC4C3C2C2=CCC3C4C(=O)C(c5ccoc5)C4(C)CCC3C21C

>  <smiles>  (159) 
[H]C1=C2C3([H])C([H])(OC4([H])OC5([H])OC(C([H])([H])[H])(C([H])([H])[H])OC5([H])C43[H])C([H])([H])C([H])(C([H])([H])[H])C2(C([H])([H])[H])C2([H])C([H])([H])C([H])([H])C3(C([H])([H])[H])C([H])(c4c([H])oc([H])c4[H])C(=O)C3([H])C2([H])C1([H])[H]

$$$$
58:0:1
     RDKit          3D

 74 81  0  0  1  0  0  0  0  0999 V2000
    2.8875   -3.0133    2.6834 C   0  0  0  0  0  0  0  0  0  0  0  0
    4.2356   -3.4900    3.2757 C   0  0  2  0  0  0  0  0  0  0  0  0
    5.2721   -2.4553    2.7570 C   0  0  0  0  0  0  0  0  0  0  0  0
    5.5040   -2.6267    1.2587 C   0  0  1  0  0  0  0  0  0  0  0  0
    6.5212   -1.8229    0.6628 O   0  0  0  0  0  0  0  0  0  0  0  0
    7.0061   -2.4922   -0.4776 C   0  0  2  0  0  0  0  0  0  0  0  0
    6.5896   -1.9198   -1.6866 O   0  0  0  0  0  0  0  0  0  0  0  0
    6.0199   -2.8866   -2.5237 C   0  0  2  0  0  0  0  0  0  0  0  0
    4.9384   -2.4125   -3.2224 O   0  0  0  0  0  0  0  0  0  0  0  0
    3.8361   -2.5875   -2.3897 C   0  0  0  0  0  0  0  0  0  0  0  0
    3.5040   -1.2286   -1.8001 C   0  0  0  0  0  0  0  0  0  0  0  0
    2.6923   -3.1907   -3.2099 C   0  0  0  0  0  0  0  0  0  0  0  0
    4.1266   -3.4535   -1.3360 O   0  0  0  0  0  0  0  0  0  0  0  0
    5.4243   -3.9159   -1.5965 C   0  0  2  0  0  0  0  0  0  0  0  0
    6.4234   -3.9053   -0.4381 C   0  0  2  0  0  0  0  0  0  0  0  0
    5.9809   -4.0308    0.9973 C   0  0  2  0  0  0  0  0  0  0  0  0
    5.0233   -5.1262    1.4819 C   0  0  0  0  0  0  0  0  0  0  0  0
    4.5760   -6.1267    0.7067 C   0  0  0  0  0  0  0  0  0  0  0  0
    3.7382   -7.2687    1.2238 C   0  0  0  0  0  0  0  0  0  0  0  0
    3.8992   -7.4874    2.7389 C   0  0  2  0  0  0  0  0  0  0  0  0
    2.9748   -8.6289    3.1908 C   0  0  1  0  0  0  0  0  0  0  0  0
    3.2123   -9.2228    4.5963 C   0  0  0  0  0  0  0  0  0  0  0  0
    4.1822   -9.3612    5.3467 O   0  0  0  0  0  0  0  0  0  0  0  0
    1.6872   -9.4678    4.7089 C   0  0  1  0  0  0  0  0  0  0  0  0
    1.0835   -9.2998    6.0764 C   0  0  0  0  0  0  0  0  0  0  0  0
   -0.2835   -9.0653    6.2667 C   0  0  0  0  0  0  0  0  0  0  0  0
   -0.4343   -9.0671    7.6264 C   0  0  0  0  0  0  0  0  0  0  0  0
    0.7489   -9.3084    8.2543 O   0  0  0  0  0  0  0  0  0  0  0  0
    1.6865   -9.4602    7.3000 C   0  0  0  0  0  0  0  0  0  0  0  0
    1.5322   -8.3246    3.6568 C   0  0  2  0  0  0  0  0  0  0  0  0
    0.4621   -8.5393    2.5911 C   0  0  0  0  0  0  0  0  0  0  0  0
    1.3334   -6.9264    4.2680 C   0  0  0  0  0  0  0  0  0  0  0  0
    2.1531   -5.8213    3.5897 C   0  0  0  0  0  0  0  0  0  0  0  0
    3.6599   -6.1451    3.4877 C   0  0  2  0  0  0  0  0  0  0  0  0
    4.6436   -5.0070    2.9797 C   0  0  2  0  0  0  0  0  0  0  0  0
    5.9022   -5.3355    3.8066 C   0  0  0  0  0  0  0  0  0  0  0  0
    2.6366   -3.5585    1.7687 H   0  0  0  0  0  0  0  0  0  0  0  0
    2.9214   -1.9535    2.4097 H   0  0  0  0  0  0  0  0  0  0  0  0
    2.0591   -3.0749    3.3910 H   0  0  0  0  0  0  0  0  0  0  0  0
    4.1836   -3.3551    4.3581 H   0  0  0  0  0  0  0  0  0  0  0  0
    4.9873   -1.4274    2.9784 H   0  0  0  0  0  0  0  0  0  0  0  0
    6.1896   -2.6000    3.2913 H   0  0  0  0  0  0  0  0  0  0  0  0
    4.5896   -2.4356    0.7110 H   0  0  0  0  0  0  0  0  0  0  0  0
    8.1015   -2.5010   -0.4527 H   0  0  0  0  0  0  0  0  0  0  0  0
    6.7723   -3.3281   -3.1712 H   0  0  0  0  0  0  0  0  0  0  0  0
    4.3479   -0.7911   -1.2769 H   0  0  0  0  0  0  0  0  0  0  0  0
    2.6844   -1.3592   -1.0684 H   0  0  0  0  0  0  0  0  0  0  0  0
    3.1777   -0.5410   -2.5775 H   0  0  0  0  0  0  0  0  0  0  0  0
    2.9927   -4.1488   -3.6332 H   0  0  0  0  0  0  0  0  0  0  0  0
    2.4088   -2.5283   -4.0329 H   0  0  0  0  0  0  0  0  0  0  0  0
    1.8238   -3.3508   -2.5641 H   0  0  0  0  0  0  0  0  0  0  0  0
    5.3537   -4.8635   -2.1234 H   0  0  0  0  0  0  0  0  0  0  0  0
    7.2582   -4.5664   -0.6105 H   0  0  0  0  0  0  0  0  0  0  0  0
    6.9201   -4.1821    1.5233 H   0  0  0  0  0  0  0  0  0  0  0  0
    4.8187   -6.1828   -0.3449 H   0  0  0  0  0  0  0  0  0  0  0  0
    2.7038   -7.0600    0.9560 H   0  0  0  0  0  0  0  0  0  0  0  0
    4.0401   -8.1680    0.6865 H   0  0  0  0  0  0  0  0  0  0  0  0
    4.9330   -7.8014    2.9008 H   0  0  0  0  0  0  0  0  0  0  0  0
    2.9428   -9.4475    2.4723 H   0  0  0  0  0  0  0  0  0  0  0  0
    1.3815  -10.4297    4.2899 H   0  0  0  0  0  0  0  0  0  0  0  0
   -1.0778   -8.9347    5.5332 H   0  0  0  0  0  0  0  0  0  0  0  0
   -1.2811   -9.0002    8.2682 H   0  0  0  0  0  0  0  0  0  0  0  0
    2.6569   -9.7410    7.6531 H   0  0  0  0  0  0  0  0  0  0  0  0
   -0.5388   -8.5279    3.0175 H   0  0  0  0  0  0  0  0  0  0  0  0
    0.5912   -9.5022    2.1041 H   0  0  0  0  0  0  0  0  0  0  0  0
    0.5130   -7.7779    1.8163 H   0  0  0  0  0  0  0  0  0  0  0  0
    0.2794   -6.6455    4.3172 H   0  0  0  0  0  0  0  0  0  0  0  0
    1.6693   -6.9263    5.3062 H   0  0  0  0  0  0  0  0  0  0  0  0
    1.7341   -5.5950    2.6099 H   0  0  0  0  0  0  0  0  0  0  0  0
    2.0273   -4.9579    4.2398 H   0  0  0  0  0  0  0  0  0  0  0  0
    3.9211   -6.3388    4.5314 H   0  0  0  0  0  0  0  0  0  0  0  0
    5.7878   -5.1562    4.8782 H   0  0  0  0  0  0  0  0  0  0  0  0
    6.6955   -4.7222    3.4668 H   0  0  0  0  0  0  0  0  0  0  0  0
    6.2764   -6.3494    3.6788 H   0  0  0  0  0  0  0  0  0  0  0  0
  1  2  1  0
  1 37  1  0
  1 38  1  0
  1 39  1  0
  2 35  1  0
  2  3  1  0
  2 40  1  1
  3  4  1  0
  3 41  1  0
  3 42  1  0
  4 16  1  0
  4  5  1  0
  4 43  1  6
  5  6  1  0
  6 15  1  0
  6  7  1  0
  6 44  1  6
  7  8  1  0
  8 14  1  0
  8  9  1  0
  8 45  1  6
  9 10  1  0
 10 11  1  0
 10 12  1  0
 10 13  1  0
 11 46  1  0
 11 47  1  0
 11 48  1  0
 12 49  1  0
 12 50  1  0
 12 51  1  0
 13 14  1  0
 14 15  1  0
 14 52  1  6
 15 16  1  0
 15 53  1  6
 16 17  1  0
 16 54  1  1
 17 35  1  0
 17 18  2  0
 18 19  1  0
 18 55  1  0
 19 20  1  0
 19 56  1  0
 19 57  1  0
 20 34  1  0
 20 21  1  0
 20 58  1  6
 21 30  1  0
 21 22  1  0
 21 59  1  6
 22 23  2  0
 22 24  1  0
 24 25  1  0
 24 30  1  0
 24 60  1  6
 25 29  2  0
 25 26  1  0
 26 27  2  0
 26 61  1  0
 27 28  1  0
 27 62  1  0
 28 29  1  0
 29 63  1  0
 30 31  1  6
 30 32  1  0
 31 64  1  0
 31 65  1  0
 31 66  1  0
 32 33  1  0
 32 67  1  0
 32 68  1  0
 33 34  1  0
 33 69  1  0
 33 70  1  0
 34 35  1  0
 34 71  1  1
 35 36  1  1
 36 72  1  0
 36 73  1  0
 36 74  1  0
M  END
>  <i_m_ct_stereo_status>  (160) 
1

>  <s_m_source_file>  (160) 
/var/tmp/pbs.5076255.sched01/tmpc2azvghe/701e6xuegj.sdf

>  <i_m_source_file_index>  (160) 
2

>  <i_lp_mmshare_version>  (160) 
48012

>  <i_f3d_flags>  (160) 
0

>  <s_epik_input>  (160) 
W0NIM11DKE8xKShbQ0gzXSlPW0NAQEhdKE8yKVtDQEhdMVtDQEhdM1tDQEBIXTJPW0NASF0oW0NIMl1bQ0BIXTRbQ0gzXSlbQ0BIXTNDKD1bQ0hdW0NIMl01KVtDQF00KFtDSDNdKVtDQEBIXShbQ0gyXVtDSDJdNilbQ0BIXTVbQ0BIXShbQ0BdNjdbQ0gzXSlDKD1PKVtDQEhdN2M4W2NIXVtjSF1vW2NIXTg=

>  <s_epik_cmdline>  (160) 
J2VwaWtfcHl0aG9uJywgJy1waHQnLCAnMi4wJywgJy1waCcsICc3LjAnLCAnLXRuJywgJzgnLCAnLW1hJywgJzIwMCcsICctaW1hZScsICc8aW5maWxlLm1hZT4nLCAnLW9tYWUnLCAnPG91dGZpbGUubWFlPic=

>  <r_lp_tautomer_probability>  (160) 
1

>  <r_epik_Ionization_Penalty>  (160) 
3.13372e-13

>  <r_epik_Ionization_Penalty_Charging>  (160) 
0

>  <r_epik_Ionization_Penalty_Neutral>  (160) 
3.13372e-13

>  <r_epik_State_Penalty>  (160) 
-0

>  <r_epik_Charging_Adjusted_Penalty>  (160) 
0

>  <i_epik_Tot_Q>  (160) 
0

>  <i_epik_Tot_abs_Q>  (160) 
0

>  <s_epik_Chemistry_Notes>  (160) 
This compound contains an acetal/aminal-like group ( X-CH(R)-Y where X, Y are N, S, or O) that may be acid/base labile, releasing an aldehyde.

>  <s_lp_Force_Field>  (160) 
OPLS3e

>  <r_lp_Energy>  (160) 
43.1621

>  <b_lp_Chiralities_Consistent>  (160) 
1

>  <s_lp_Variant>  (160) 
58:0-1

>  <s_i_glide_gridfile>  (160) 
pfpi4k_grid

>  <i_i_glide_lignum>  (160) 
2

>  <i_i_glide_rotatable_bonds>  (160) 
1

>  <r_i_docking_score>  (160) 
-2.45492

>  <r_i_glide_ligand_efficiency>  (160) 
-0.0681921

>  <r_i_glide_ligand_efficiency_sa>  (160) 
-0.225165

>  <r_i_glide_ligand_efficiency_ln>  (160) 
-0.535596

>  <r_i_glide_gscore>  (160) 
-2.45492

>  <r_i_glide_lipo>  (160) 
-0.659721

>  <r_i_glide_hbond>  (160) 
-0.16

>  <r_i_glide_metal>  (160) 
-0

>  <r_i_glide_rewards>  (160) 
-0.224518

>  <r_i_glide_evdw>  (160) 
-18.3892

>  <r_i_glide_ecoul>  (160) 
-3.5971

>  <r_i_glide_erotb>  (160) 
0.0833022

>  <r_i_glide_esite>  (160) 
-0.0349563

>  <r_i_glide_emodel>  (160) 
-23.6628

>  <r_i_glide_energy>  (160) 
-21.9863

>  <r_i_glide_einternal>  (160) 
0.00171753

>  <r_i_glide_intrahb_reward>  (160) 
-0

>  <i_i_glide_confnum>  (160) 
1

>  <i_i_glide_posenum>  (160) 
26

>  <r_i_glide_eff_state_penalty>  (160) 
0

>  <ligand_id>  (160) 
58

>  <original_smiles>  (160) 
CC1CC2OC3OC4OC(C)(C)OC4C3C2C2=CCC3C4C(=O)C(c5ccoc5)C4(C)CCC3C21C

>  <smiles>  (160) 
[H]C1=C2C3([H])C([H])(OC4([H])OC5([H])OC(C([H])([H])[H])(C([H])([H])[H])OC5([H])C43[H])C([H])([H])C([H])(C([H])([H])[H])C2(C([H])([H])[H])C2([H])C([H])([H])C([H])([H])C3(C([H])([H])[H])C([H])(c4c([H])oc([H])c4[H])C(=O)C3([H])C2([H])C1([H])[H]

$$$$
59:0:0
     RDKit          3D

 55 60  0  0  1  0  0  0  0  0999 V2000
    1.7303   -9.0688    2.0407 C   0  0  0  0  0  0  0  0  0  0  0  0
    1.7699   -7.6958    2.8090 C   0  0  1  0  0  0  0  0  0  0  0  0
    0.2432   -7.4223    2.8674 C   0  0  0  0  0  0  0  0  0  0  0  0
   -0.3078   -6.6618    2.0612 O   0  0  0  0  0  0  0  0  0  0  0  0
   -0.5987   -8.1698    3.9202 C   0  0  0  0  0  0  0  0  0  0  0  0
    0.2393   -9.0036    4.8955 C   0  0  0  0  0  0  0  0  0  0  0  0
    1.5590   -8.8744    5.0730 C   0  0  0  0  0  0  0  0  0  0  0  0
    2.3427   -7.8361    4.2893 C   0  0  1  0  0  0  0  0  0  0  0  0
    3.8718   -7.9454    4.2127 C   0  0  0  0  0  0  0  0  0  0  0  0
    4.4010   -9.1636    4.0064 C   0  0  0  0  0  0  0  0  0  0  0  0
    5.2760   -9.3506    2.7778 C   0  0  0  0  0  0  0  0  0  0  0  0
    4.6226   -8.5329    1.6460 C   0  0  0  0  0  0  0  0  0  0  0  0
    4.4701   -8.9955    0.5155 O   0  0  0  0  0  0  0  0  0  0  0  0
    4.2304   -7.0532    1.9841 C   0  0  2  0  0  0  0  0  0  0  0  0
    5.2168   -6.3490    0.9973 C   0  0  0  0  0  0  0  0  0  0  0  0
    4.5516   -6.7658    3.4697 C   0  0  1  0  0  0  0  0  0  0  0  0
    3.9378   -5.3822    3.7592 C   0  0  1  0  0  0  0  0  0  0  0  0
    4.6363   -4.3037    3.0581 O   0  0  0  0  0  0  0  0  0  0  0  0
    3.4338   -3.9335    2.3338 C   0  0  2  0  0  0  0  0  0  0  0  0
    3.6194   -3.7413    0.7904 C   0  0  0  0  0  0  0  0  0  0  0  0
    4.1962   -2.3160    0.5959 C   0  0  0  0  0  0  0  0  0  0  0  0
    4.0126   -1.5640    1.9084 C   0  0  0  0  0  0  0  0  0  0  0  0
    3.1257   -2.4822    2.7743 C   0  0  1  0  0  0  0  0  0  0  0  0
    1.7954   -2.0920    2.4759 O   0  0  0  0  0  0  0  0  0  0  0  0
    2.6901   -5.1920    2.8965 C   0  0  2  0  0  0  0  0  0  0  0  0
    1.4012   -4.7572    3.6540 C   0  0  0  0  0  0  0  0  0  0  0  0
    2.6696   -6.5757    2.0659 C   0  0  2  0  0  0  0  0  0  0  0  0
    2.4899   -9.7779    2.3521 H   0  0  0  0  0  0  0  0  0  0  0  0
    1.8152   -8.9254    0.9626 H   0  0  0  0  0  0  0  0  0  0  0  0
    0.8215   -9.6533    2.1820 H   0  0  0  0  0  0  0  0  0  0  0  0
   -1.2096   -7.4565    4.4742 H   0  0  0  0  0  0  0  0  0  0  0  0
   -1.2823   -8.8406    3.3937 H   0  0  0  0  0  0  0  0  0  0  0  0
   -0.3125   -9.7189    5.4912 H   0  0  0  0  0  0  0  0  0  0  0  0
    2.0779   -9.4776    5.8088 H   0  0  0  0  0  0  0  0  0  0  0  0
    2.1874   -6.9563    4.8971 H   0  0  0  0  0  0  0  0  0  0  0  0
    3.8567  -10.0499    4.3001 H   0  0  0  0  0  0  0  0  0  0  0  0
    6.2928   -8.9979    2.9561 H   0  0  0  0  0  0  0  0  0  0  0  0
    5.3117  -10.4008    2.4906 H   0  0  0  0  0  0  0  0  0  0  0  0
    5.5283   -5.3632    1.2903 H   0  0  0  0  0  0  0  0  0  0  0  0
    4.7809   -6.3220   -0.0079 H   0  0  0  0  0  0  0  0  0  0  0  0
    6.1642   -6.8871    0.8624 H   0  0  0  0  0  0  0  0  0  0  0  0
    5.6294   -6.7693    3.6549 H   0  0  0  0  0  0  0  0  0  0  0  0
    3.8238   -5.1389    4.8191 H   0  0  0  0  0  0  0  0  0  0  0  0
    4.2646   -4.3483    0.2559 H   0  0  0  0  0  0  0  0  0  0  0  0
    2.6249   -3.8007    0.3289 H   0  0  0  0  0  0  0  0  0  0  0  0
    5.2634   -2.3868    0.3596 H   0  0  0  0  0  0  0  0  0  0  0  0
    3.7026   -1.8449   -0.2474 H   0  0  0  0  0  0  0  0  0  0  0  0
    4.9785   -1.4245    2.4005 H   0  0  0  0  0  0  0  0  0  0  0  0
    3.5858   -0.5691    1.7412 H   0  0  0  0  0  0  0  0  0  0  0  0
    3.2951   -2.3066    3.8387 H   0  0  0  0  0  0  0  0  0  0  0  0
    1.7186   -2.0050    1.5328 H   0  0  0  0  0  0  0  0  0  0  0  0
    0.6330   -4.4139    2.9657 H   0  0  0  0  0  0  0  0  0  0  0  0
    1.5923   -3.9333    4.3413 H   0  0  0  0  0  0  0  0  0  0  0  0
    0.9349   -5.4816    4.3122 H   0  0  0  0  0  0  0  0  0  0  0  0
    2.2703   -6.3943    1.0664 H   0  0  0  0  0  0  0  0  0  0  0  0
  2  1  1  6
  1 28  1  0
  1 29  1  0
  1 30  1  0
  2  8  1  0
  2 27  1  0
  2  3  1  0
  3  4  2  0
  3  5  1  0
  5  6  1  0
  5 31  1  0
  5 32  1  0
  6  7  2  0
  6 33  1  0
  7  8  1  0
  7 34  1  0
  8  9  1  0
  8 35  1  1
  9 16  1  0
  9 10  2  0
 10 11  1  0
 10 36  1  0
 11 12  1  0
 11 37  1  0
 11 38  1  0
 12 13  2  0
 12 14  1  0
 14 27  1  0
 14 15  1  6
 14 16  1  0
 15 39  1  0
 15 40  1  0
 15 41  1  0
 16 17  1  0
 16 42  1  6
 17 25  1  0
 17 18  1  0
 17 43  1  1
 19 18  1  1
 19 23  1  0
 19 20  1  0
 19 25  1  0
 20 21  1  0
 20 44  1  0
 20 45  1  0
 21 22  1  0
 21 46  1  0
 21 47  1  0
 22 23  1  0
 22 48  1  0
 22 49  1  0
 23 24  1  0
 23 50  1  1
 24 51  1  0
 25 26  1  1
 25 27  1  0
 26 52  1  0
 26 53  1  0
 26 54  1  0
 27 55  1  6
M  END
>  <i_m_ct_stereo_status>  (161) 
1

>  <s_m_source_file>  (161) 
/var/tmp/pbs.5076255.sched01/tmpc2azvghe/701e6xuegj.sdf

>  <i_m_source_file_index>  (161) 
3

>  <i_lp_mmshare_version>  (161) 
48012

>  <i_f3d_flags>  (161) 
1

>  <s_epik_input>  (161) 
W0NIXTFbQ0gyXUMoPU8pW0NAQF0yKFtDSDNdKVtDQEhdM1tDQF0oW0NIM10pKEMoPU8pW0NIMl1bQ0hdPVtDSF00KVtDQEBIXTRDPTFbQ0BASF0yW0NAQEhdKE81KVtDQEBdMyhbQ0gzXSlbQ0BdNTZbQ0gyXVtDSDJdW0NIMl1bQ0BIXTZbT0hd

>  <s_epik_cmdline>  (161) 
J2VwaWtfcHl0aG9uJywgJy1waHQnLCAnMi4wJywgJy1waCcsICc3LjAnLCAnLXRuJywgJzgnLCAnLW1hJywgJzIwMCcsICctaW1hZScsICc8aW5maWxlLm1hZT4nLCAnLW9tYWUnLCAnPG91dGZpbGUubWFlPic=

>  <r_lp_tautomer_probability>  (161) 
1

>  <r_epik_Ionization_Penalty>  (161) 
1.17463e-07

>  <r_epik_Ionization_Penalty_Charging>  (161) 
0

>  <r_epik_Ionization_Penalty_Neutral>  (161) 
1.17463e-07

>  <r_epik_State_Penalty>  (161) 
-0

>  <r_epik_Charging_Adjusted_Penalty>  (161) 
0

>  <i_epik_Tot_Q>  (161) 
0

>  <i_epik_Tot_abs_Q>  (161) 
0

>  <s_lp_Force_Field>  (161) 
OPLS3e

>  <r_lp_Energy>  (161) 
119.509

>  <b_lp_Chiralities_Consistent>  (161) 
1

>  <s_lp_Variant>  (161) 
59:0-1

>  <s_i_glide_gridfile>  (161) 
pfpi4k_grid

>  <i_i_glide_lignum>  (161) 
3

>  <i_i_glide_rotatable_bonds>  (161) 
1

>  <r_i_docking_score>  (161) 
-3.03136

>  <r_i_glide_ligand_efficiency>  (161) 
-0.112272

>  <r_i_glide_ligand_efficiency_sa>  (161) 
-0.336817

>  <r_i_glide_ligand_efficiency_ln>  (161) 
-0.70565

>  <r_i_glide_gscore>  (161) 
-3.03136

>  <r_i_glide_lipo>  (161) 
-0.172451

>  <r_i_glide_hbond>  (161) 
-0.167428

>  <r_i_glide_metal>  (161) 
-0

>  <r_i_glide_rewards>  (161) 
-0.896823

>  <r_i_glide_evdw>  (161) 
-20.6482

>  <r_i_glide_ecoul>  (161) 
-4.7055

>  <r_i_glide_erotb>  (161) 
0

>  <r_i_glide_esite>  (161) 
-0.0564168

>  <r_i_glide_emodel>  (161) 
-29.6349

>  <r_i_glide_energy>  (161) 
-25.3537

>  <r_i_glide_einternal>  (161) 
0.432955

>  <r_i_glide_intrahb_reward>  (161) 
-0

>  <i_i_glide_confnum>  (161) 
2

>  <i_i_glide_posenum>  (161) 
30

>  <r_i_glide_eff_state_penalty>  (161) 
0

>  <ligand_id>  (161) 
59

>  <original_smiles>  (161) 
CC12C(=O)CC=CC1C1=CCC(=O)C3(C)C1C1OC4(CCCC4O)C1(C)C23

>  <smiles>  (161) 
[H]OC1([H])C([H])([H])C([H])([H])C([H])([H])C12OC1([H])C3([H])C4=C([H])C([H])([H])C(=O)C3(C([H])([H])[H])C([H])(C3(C([H])([H])[H])C(=O)C([H])([H])C([H])=C([H])C43[H])C12C([H])([H])[H]

$$$$
59:0:1
     RDKit          3D

 55 60  0  0  1  0  0  0  0  0999 V2000
    3.2998   -8.6100    2.8097 C   0  0  0  0  0  0  0  0  0  0  0  0
    3.0110   -7.0716    2.6692 C   0  0  1  0  0  0  0  0  0  0  0  0
    1.5530   -7.1546    2.1216 C   0  0  0  0  0  0  0  0  0  0  0  0
    1.3047   -7.0344    0.9275 O   0  0  0  0  0  0  0  0  0  0  0  0
    0.4162   -7.4497    3.1175 C   0  0  0  0  0  0  0  0  0  0  0  0
    0.8542   -7.4667    4.5769 C   0  0  0  0  0  0  0  0  0  0  0  0
    2.0212   -6.9628    5.0303 C   0  0  0  0  0  0  0  0  0  0  0  0
    2.9983   -6.3133    4.0712 C   0  0  1  0  0  0  0  0  0  0  0  0
    4.4511   -6.0918    4.5116 C   0  0  0  0  0  0  0  0  0  0  0  0
    5.0599   -7.0889    5.1744 C   0  0  0  0  0  0  0  0  0  0  0  0
    6.3306   -7.6576    4.5738 C   0  0  0  0  0  0  0  0  0  0  0  0
    6.1193   -7.6997    3.0482 C   0  0  0  0  0  0  0  0  0  0  0  0
    6.4156   -8.6882    2.3794 O   0  0  0  0  0  0  0  0  0  0  0  0
    5.5769   -6.3849    2.3788 C   0  0  2  0  0  0  0  0  0  0  0  0
    6.8340   -6.0601    1.5008 C   0  0  0  0  0  0  0  0  0  0  0  0
    5.3185   -5.3277    3.4802 C   0  0  1  0  0  0  0  0  0  0  0  0
    4.5985   -4.1630    2.7779 C   0  0  1  0  0  0  0  0  0  0  0  0
    5.4720   -3.4534    1.8329 O   0  0  0  0  0  0  0  0  0  0  0  0
    4.6125   -3.7744    0.7226 C   0  0  2  0  0  0  0  0  0  0  0  0
    5.3506   -4.3590   -0.5373 C   0  0  0  0  0  0  0  0  0  0  0  0
    5.9093   -3.1308   -1.3122 C   0  0  0  0  0  0  0  0  0  0  0  0
    5.2208   -1.8883   -0.7554 C   0  0  0  0  0  0  0  0  0  0  0  0
    4.1086   -2.4261    0.1679 C   0  0  1  0  0  0  0  0  0  0  0  0
    2.9902   -2.6293   -0.6751 O   0  0  0  0  0  0  0  0  0  0  0  0
    3.7528   -4.7258    1.6344 C   0  0  2  0  0  0  0  0  0  0  0  0
    2.2667   -4.2763    1.6108 C   0  0  0  0  0  0  0  0  0  0  0  0
    4.0794   -6.2995    1.7345 C   0  0  2  0  0  0  0  0  0  0  0  0
    3.9167   -8.8681    3.6629 H   0  0  0  0  0  0  0  0  0  0  0  0
    3.7732   -9.0139    1.9129 H   0  0  0  0  0  0  0  0  0  0  0  0
    2.4262   -9.2344    2.9826 H   0  0  0  0  0  0  0  0  0  0  0  0
   -0.3809   -6.7161    2.9710 H   0  0  0  0  0  0  0  0  0  0  0  0
    0.0010   -8.4313    2.8622 H   0  0  0  0  0  0  0  0  0  0  0  0
    0.1488   -7.8884    5.2741 H   0  0  0  0  0  0  0  0  0  0  0  0
    2.2448   -6.9794    6.0868 H   0  0  0  0  0  0  0  0  0  0  0  0
    2.6024   -5.3094    4.0186 H   0  0  0  0  0  0  0  0  0  0  0  0
    4.4811   -7.7995    5.7410 H   0  0  0  0  0  0  0  0  0  0  0  0
    7.2026   -7.0453    4.8143 H   0  0  0  0  0  0  0  0  0  0  0  0
    6.5079   -8.6719    4.9357 H   0  0  0  0  0  0  0  0  0  0  0  0
    6.9721   -5.0240    1.2723 H   0  0  0  0  0  0  0  0  0  0  0  0
    6.7942   -6.6462    0.5775 H   0  0  0  0  0  0  0  0  0  0  0  0
    7.7896   -6.3510    1.9632 H   0  0  0  0  0  0  0  0  0  0  0  0
    6.2483   -4.9869    3.9433 H   0  0  0  0  0  0  0  0  0  0  0  0
    4.1006   -3.4487    3.4300 H   0  0  0  0  0  0  0  0  0  0  0  0
    6.1600   -4.9793   -0.4026 H   0  0  0  0  0  0  0  0  0  0  0  0
    4.6011   -4.8810   -1.1514 H   0  0  0  0  0  0  0  0  0  0  0  0
    6.9968   -3.0722   -1.1562 H   0  0  0  0  0  0  0  0  0  0  0  0
    5.7380   -3.2941   -2.3763 H   0  0  0  0  0  0  0  0  0  0  0  0
    5.9341   -1.3057   -0.1693 H   0  0  0  0  0  0  0  0  0  0  0  0
    4.8533   -1.2503   -1.5671 H   0  0  0  0  0  0  0  0  0  0  0  0
    3.8583   -1.6985    0.9472 H   0  0  0  0  0  0  0  0  0  0  0  0
    2.4254   -1.8548   -0.6879 H   0  0  0  0  0  0  0  0  0  0  0  0
    1.8298   -4.5247    0.6450 H   0  0  0  0  0  0  0  0  0  0  0  0
    2.1488   -3.2045    1.7479 H   0  0  0  0  0  0  0  0  0  0  0  0
    1.6089   -4.6656    2.3790 H   0  0  0  0  0  0  0  0  0  0  0  0
    4.0685   -6.7393    0.7301 H   0  0  0  0  0  0  0  0  0  0  0  0
  2  1  1  1
  1 28  1  0
  1 29  1  0
  1 30  1  0
  2  8  1  0
  2 27  1  0
  2  3  1  0
  3  4  2  0
  3  5  1  0
  5  6  1  0
  5 31  1  0
  5 32  1  0
  6  7  2  0
  6 33  1  0
  7  8  1  0
  7 34  1  0
  8  9  1  0
  8 35  1  6
  9 16  1  0
  9 10  2  0
 10 11  1  0
 10 36  1  0
 11 12  1  0
 11 37  1  0
 11 38  1  0
 12 13  2  0
 12 14  1  0
 14 27  1  0
 14 15  1  6
 14 16  1  0
 15 39  1  0
 15 40  1  0
 15 41  1  0
 16 17  1  0
 16 42  1  1
 17 25  1  0
 17 18  1  0
 17 43  1  1
 19 18  1  1
 19 23  1  0
 19 20  1  0
 19 25  1  0
 20 21  1  0
 20 44  1  0
 20 45  1  0
 21 22  1  0
 21 46  1  0
 21 47  1  0
 22 23  1  0
 22 48  1  0
 22 49  1  0
 23 24  1  0
 23 50  1  1
 24 51  1  0
 25 26  1  1
 25 27  1  0
 26 52  1  0
 26 53  1  0
 26 54  1  0
 27 55  1  6
M  END
>  <i_m_ct_stereo_status>  (162) 
1

>  <s_m_source_file>  (162) 
/var/tmp/pbs.5076255.sched01/tmpc2azvghe/701e6xuegj.sdf

>  <i_m_source_file_index>  (162) 
3

>  <i_lp_mmshare_version>  (162) 
48012

>  <i_f3d_flags>  (162) 
1

>  <s_epik_input>  (162) 
W0NIXTFbQ0gyXUMoPU8pW0NAQF0yKFtDSDNdKVtDQEhdM1tDQF0oW0NIM10pKEMoPU8pW0NIMl1bQ0hdPVtDSF00KVtDQEBIXTRDPTFbQ0BASF0yW0NAQEhdKE81KVtDQEBdMyhbQ0gzXSlbQ0BdNTZbQ0gyXVtDSDJdW0NIMl1bQ0BIXTZbT0hd

>  <s_epik_cmdline>  (162) 
J2VwaWtfcHl0aG9uJywgJy1waHQnLCAnMi4wJywgJy1waCcsICc3LjAnLCAnLXRuJywgJzgnLCAnLW1hJywgJzIwMCcsICctaW1hZScsICc8aW5maWxlLm1hZT4nLCAnLW9tYWUnLCAnPG91dGZpbGUubWFlPic=

>  <r_lp_tautomer_probability>  (162) 
1

>  <r_epik_Ionization_Penalty>  (162) 
1.17463e-07

>  <r_epik_Ionization_Penalty_Charging>  (162) 
0

>  <r_epik_Ionization_Penalty_Neutral>  (162) 
1.17463e-07

>  <r_epik_State_Penalty>  (162) 
-0

>  <r_epik_Charging_Adjusted_Penalty>  (162) 
0

>  <i_epik_Tot_Q>  (162) 
0

>  <i_epik_Tot_abs_Q>  (162) 
0

>  <s_lp_Force_Field>  (162) 
OPLS3e

>  <r_lp_Energy>  (162) 
119.509

>  <b_lp_Chiralities_Consistent>  (162) 
1

>  <s_lp_Variant>  (162) 
59:0-1

>  <s_i_glide_gridfile>  (162) 
pfpi4k_grid

>  <i_i_glide_lignum>  (162) 
3

>  <i_i_glide_rotatable_bonds>  (162) 
1

>  <r_i_docking_score>  (162) 
-2.88025

>  <r_i_glide_ligand_efficiency>  (162) 
-0.106676

>  <r_i_glide_ligand_efficiency_sa>  (162) 
-0.320028

>  <r_i_glide_ligand_efficiency_ln>  (162) 
-0.670474

>  <r_i_glide_gscore>  (162) 
-2.88025

>  <r_i_glide_lipo>  (162) 
-0.325018

>  <r_i_glide_hbond>  (162) 
-0.16

>  <r_i_glide_metal>  (162) 
-0

>  <r_i_glide_rewards>  (162) 
-0.90957

>  <r_i_glide_evdw>  (162) 
-18.2117

>  <r_i_glide_ecoul>  (162) 
-3.6427

>  <r_i_glide_erotb>  (162) 
0

>  <r_i_glide_esite>  (162) 
-0.0286725

>  <r_i_glide_emodel>  (162) 
-24.7044

>  <r_i_glide_energy>  (162) 
-21.8544

>  <r_i_glide_einternal>  (162) 
0.763127

>  <r_i_glide_intrahb_reward>  (162) 
-0

>  <i_i_glide_confnum>  (162) 
2

>  <i_i_glide_posenum>  (162) 
29

>  <r_i_glide_eff_state_penalty>  (162) 
0

>  <ligand_id>  (162) 
59

>  <original_smiles>  (162) 
CC12C(=O)CC=CC1C1=CCC(=O)C3(C)C1C1OC4(CCCC4O)C1(C)C23

>  <smiles>  (162) 
[H]OC1([H])C([H])([H])C([H])([H])C([H])([H])C12OC1([H])C3([H])C4=C([H])C([H])([H])C(=O)C3(C([H])([H])[H])C([H])(C3(C([H])([H])[H])C(=O)C([H])([H])C([H])=C([H])C43[H])C12C([H])([H])[H]

$$$$
59:0:2
     RDKit          3D

 55 60  0  0  1  0  0  0  0  0999 V2000
    4.1166   -8.4424    4.0132 C   0  0  0  0  0  0  0  0  0  0  0  0
    3.4997   -7.5113    2.9016 C   0  0  1  0  0  0  0  0  0  0  0  0
    3.6473   -8.4633    1.6967 C   0  0  0  0  0  0  0  0  0  0  0  0
    4.6059   -8.3772    0.9096 O   0  0  0  0  0  0  0  0  0  0  0  0
    2.6202   -9.6056    1.5224 C   0  0  0  0  0  0  0  0  0  0  0  0
    1.4700   -9.5417    2.5302 C   0  0  0  0  0  0  0  0  0  0  0  0
    1.1569   -8.4699    3.2756 C   0  0  0  0  0  0  0  0  0  0  0  0
    1.9658   -7.1893    3.1432 C   0  0  1  0  0  0  0  0  0  0  0  0
    1.8516   -6.1179    4.2396 C   0  0  0  0  0  0  0  0  0  0  0  0
    1.8548   -6.5307    5.5110 C   0  0  0  0  0  0  0  0  0  0  0  0
    2.9471   -5.9858    6.4259 C   0  0  0  0  0  0  0  0  0  0  0  0
    4.2284   -5.9175    5.5713 C   0  0  0  0  0  0  0  0  0  0  0  0
    5.3147   -6.3372    6.0117 O   0  0  0  0  0  0  0  0  0  0  0  0
    4.1202   -5.2305    4.1707 C   0  0  2  0  0  0  0  0  0  0  0  0
    5.0505   -4.0248    4.4678 C   0  0  0  0  0  0  0  0  0  0  0  0
    2.6408   -4.8230    3.9351 C   0  0  1  0  0  0  0  0  0  0  0  0
    2.5997   -4.3632    2.4563 C   0  0  1  0  0  0  0  0  0  0  0  0
    3.3114   -3.1125    2.2389 O   0  0  0  0  0  0  0  0  0  0  0  0
    4.2195   -3.7592    1.2936 C   0  0  2  0  0  0  0  0  0  0  0  0
    5.7248   -3.4723    1.5020 C   0  0  0  0  0  0  0  0  0  0  0  0
    6.0238   -2.1013    0.8842 C   0  0  0  0  0  0  0  0  0  0  0  0
    4.8273   -1.7544   -0.0242 C   0  0  0  0  0  0  0  0  0  0  0  0
    3.9708   -3.0218   -0.0577 C   0  0  1  0  0  0  0  0  0  0  0  0
    4.4444   -3.7947   -1.1542 O   0  0  0  0  0  0  0  0  0  0  0  0
    3.5887   -5.1513    1.6396 C   0  0  2  0  0  0  0  0  0  0  0  0
    3.0490   -5.8421    0.3528 C   0  0  0  0  0  0  0  0  0  0  0  0
    4.2685   -6.0907    2.7794 C   0  0  2  0  0  0  0  0  0  0  0  0
    3.6402   -8.3482    4.9790 H   0  0  0  0  0  0  0  0  0  0  0  0
    5.1830   -8.2735    4.1340 H   0  0  0  0  0  0  0  0  0  0  0  0
    4.0072   -9.5113    3.8256 H   0  0  0  0  0  0  0  0  0  0  0  0
    2.2313   -9.5957    0.5063 H   0  0  0  0  0  0  0  0  0  0  0  0
    3.1473  -10.5485    1.6678 H   0  0  0  0  0  0  0  0  0  0  0  0
    0.8653  -10.4356    2.5950 H   0  0  0  0  0  0  0  0  0  0  0  0
    0.3069   -8.4933    3.9344 H   0  0  0  0  0  0  0  0  0  0  0  0
    1.4798   -6.7259    2.2903 H   0  0  0  0  0  0  0  0  0  0  0  0
    1.5289   -7.5208    5.7654 H   0  0  0  0  0  0  0  0  0  0  0  0
    2.7003   -4.9949    6.7996 H   0  0  0  0  0  0  0  0  0  0  0  0
    3.1096   -6.6532    7.2666 H   0  0  0  0  0  0  0  0  0  0  0  0
    4.8285   -3.1228    3.8980 H   0  0  0  0  0  0  0  0  0  0  0  0
    6.0989   -4.3236    4.3075 H   0  0  0  0  0  0  0  0  0  0  0  0
    5.0295   -3.6709    5.4911 H   0  0  0  0  0  0  0  0  0  0  0  0
    2.3386   -4.0147    4.6084 H   0  0  0  0  0  0  0  0  0  0  0  0
    1.5727   -4.2887    2.0470 H   0  0  0  0  0  0  0  0  0  0  0  0
    6.1322   -3.3996    2.4655 H   0  0  0  0  0  0  0  0  0  0  0  0
    6.2954   -4.2633    0.9805 H   0  0  0  0  0  0  0  0  0  0  0  0
    6.1316   -1.3401    1.6644 H   0  0  0  0  0  0  0  0  0  0  0  0
    6.9723   -2.1515    0.3397 H   0  0  0  0  0  0  0  0  0  0  0  0
    4.2574   -0.9396    0.4338 H   0  0  0  0  0  0  0  0  0  0  0  0
    5.1656   -1.4099   -1.0035 H   0  0  0  0  0  0  0  0  0  0  0  0
    2.9282   -2.7852   -0.2521 H   0  0  0  0  0  0  0  0  0  0  0  0
    3.8722   -4.5252   -1.2761 H   0  0  0  0  0  0  0  0  0  0  0  0
    3.8521   -6.1888   -0.2857 H   0  0  0  0  0  0  0  0  0  0  0  0
    2.4334   -5.1617   -0.2411 H   0  0  0  0  0  0  0  0  0  0  0  0
    2.3677   -6.6679    0.4841 H   0  0  0  0  0  0  0  0  0  0  0  0
    5.3128   -6.2525    2.5424 H   0  0  0  0  0  0  0  0  0  0  0  0
  2  1  1  1
  1 28  1  0
  1 29  1  0
  1 30  1  0
  2  8  1  0
  2 27  1  0
  2  3  1  0
  3  4  2  0
  3  5  1  0
  5  6  1  0
  5 31  1  0
  5 32  1  0
  6  7  2  0
  6 33  1  0
  7  8  1  0
  7 34  1  0
  8  9  1  0
  8 35  1  6
  9 16  1  0
  9 10  2  0
 10 11  1  0
 10 36  1  0
 11 12  1  0
 11 37  1  0
 11 38  1  0
 12 13  2  0
 12 14  1  0
 14 27  1  0
 14 15  1  1
 14 16  1  0
 15 39  1  0
 15 40  1  0
 15 41  1  0
 16 17  1  0
 16 42  1  1
 17 25  1  0
 17 18  1  0
 17 43  1  6
 19 18  1  1
 19 23  1  0
 19 20  1  0
 19 25  1  0
 20 21  1  0
 20 44  1  0
 20 45  1  0
 21 22  1  0
 21 46  1  0
 21 47  1  0
 22 23  1  0
 22 48  1  0
 22 49  1  0
 23 24  1  0
 23 50  1  6
 24 51  1  0
 25 26  1  6
 25 27  1  0
 26 52  1  0
 26 53  1  0
 26 54  1  0
 27 55  1  6
M  END
>  <i_m_ct_stereo_status>  (163) 
1

>  <s_m_source_file>  (163) 
/var/tmp/pbs.5076255.sched01/tmpc2azvghe/701e6xuegj.sdf

>  <i_m_source_file_index>  (163) 
3

>  <i_lp_mmshare_version>  (163) 
48012

>  <i_f3d_flags>  (163) 
1

>  <s_epik_input>  (163) 
W0NIXTFbQ0gyXUMoPU8pW0NAQF0yKFtDSDNdKVtDQEhdM1tDQF0oW0NIM10pKEMoPU8pW0NIMl1bQ0hdPVtDSF00KVtDQEBIXTRDPTFbQ0BASF0yW0NAQEhdKE81KVtDQEBdMyhbQ0gzXSlbQ0BdNTZbQ0gyXVtDSDJdW0NIMl1bQ0BIXTZbT0hd

>  <s_epik_cmdline>  (163) 
J2VwaWtfcHl0aG9uJywgJy1waHQnLCAnMi4wJywgJy1waCcsICc3LjAnLCAnLXRuJywgJzgnLCAnLW1hJywgJzIwMCcsICctaW1hZScsICc8aW5maWxlLm1hZT4nLCAnLW9tYWUnLCAnPG91dGZpbGUubWFlPic=

>  <r_lp_tautomer_probability>  (163) 
1

>  <r_epik_Ionization_Penalty>  (163) 
1.17463e-07

>  <r_epik_Ionization_Penalty_Charging>  (163) 
0

>  <r_epik_Ionization_Penalty_Neutral>  (163) 
1.17463e-07

>  <r_epik_State_Penalty>  (163) 
-0

>  <r_epik_Charging_Adjusted_Penalty>  (163) 
0

>  <i_epik_Tot_Q>  (163) 
0

>  <i_epik_Tot_abs_Q>  (163) 
0

>  <s_lp_Force_Field>  (163) 
OPLS3e

>  <r_lp_Energy>  (163) 
119.509

>  <b_lp_Chiralities_Consistent>  (163) 
1

>  <s_lp_Variant>  (163) 
59:0-1

>  <s_i_glide_gridfile>  (163) 
pfpi4k_grid

>  <i_i_glide_lignum>  (163) 
3

>  <i_i_glide_rotatable_bonds>  (163) 
1

>  <r_i_docking_score>  (163) 
-2.68589

>  <r_i_glide_ligand_efficiency>  (163) 
-0.0994776

>  <r_i_glide_ligand_efficiency_sa>  (163) 
-0.298433

>  <r_i_glide_ligand_efficiency_ln>  (163) 
-0.625232

>  <r_i_glide_gscore>  (163) 
-2.68589

>  <r_i_glide_lipo>  (163) 
-0.286159

>  <r_i_glide_hbond>  (163) 
-0.137329

>  <r_i_glide_metal>  (163) 
-0

>  <r_i_glide_rewards>  (163) 
-0.896823

>  <r_i_glide_evdw>  (163) 
-18.912

>  <r_i_glide_ecoul>  (163) 
-2.67151

>  <r_i_glide_erotb>  (163) 
0

>  <r_i_glide_esite>  (163) 
-0.0192594

>  <r_i_glide_emodel>  (163) 
-25.3369

>  <r_i_glide_energy>  (163) 
-21.5835

>  <r_i_glide_einternal>  (163) 
0.453774

>  <r_i_glide_intrahb_reward>  (163) 
-0

>  <i_i_glide_confnum>  (163) 
2

>  <i_i_glide_posenum>  (163) 
18

>  <r_i_glide_eff_state_penalty>  (163) 
0

>  <ligand_id>  (163) 
59

>  <original_smiles>  (163) 
CC12C(=O)CC=CC1C1=CCC(=O)C3(C)C1C1OC4(CCCC4O)C1(C)C23

>  <smiles>  (163) 
[H]OC1([H])C([H])([H])C([H])([H])C([H])([H])C12OC1([H])C3([H])C4=C([H])C([H])([H])C(=O)C3(C([H])([H])[H])C([H])(C3(C([H])([H])[H])C(=O)C([H])([H])C([H])=C([H])C43[H])C12C([H])([H])[H]

$$$$
61:0:0
     RDKit          3D

 71 76  0  0  1  0  0  0  0  0999 V2000
    3.4268   -0.3486    1.0965 C   0  0  0  0  0  0  0  0  0  0  0  0
    4.8361   -0.5085    0.5431 C   0  0  0  0  0  0  0  0  0  0  0  0
    5.7807    0.0372    1.0930 O   0  0  0  0  0  0  0  0  0  0  0  0
    5.1332   -1.4001   -0.6699 C   0  0  2  0  0  0  0  0  0  0  0  0
    3.9483   -1.5050   -1.6334 C   0  0  0  0  0  0  0  0  0  0  0  0
    3.1323   -2.7210   -1.1482 C   0  0  1  0  0  0  0  0  0  0  0  0
    2.7815   -3.4433   -2.3004 O   0  0  0  0  0  0  0  0  0  0  0  0
    4.0441   -3.4988   -0.2248 C   0  0  0  0  0  0  0  0  0  0  0  0
    3.6579   -4.3839    0.7223 C   0  0  0  0  0  0  0  0  0  0  0  0
    2.2151   -4.8075    0.8556 C   0  0  0  0  0  0  0  0  0  0  0  0
    1.9618   -6.2437    1.3146 C   0  0  0  0  0  0  0  0  0  0  0  0
    1.0050   -6.8729    0.8836 O   0  0  0  0  0  0  0  0  0  0  0  0
    2.8669   -6.7526    2.4475 C   0  0  1  0  0  0  0  0  0  0  0  0
    2.4960   -5.9295    3.7240 C   0  0  0  0  0  0  0  0  0  0  0  0
    2.8762   -8.2853    2.7655 C   0  0  2  0  0  0  0  0  0  0  0  0
    1.7224   -8.8313    3.6299 C   0  0  0  0  0  0  0  0  0  0  0  0
    0.5704   -8.5058    3.3529 O   0  0  0  0  0  0  0  0  0  0  0  0
    2.0195   -9.7074    4.6783 O   0  0  0  0  0  0  0  0  0  0  0  0
    3.3463  -10.0858    4.9529 C   0  0  0  0  0  0  0  0  0  0  0  0
    3.4492  -10.5578    6.2498 O   0  0  0  0  0  0  0  0  0  0  0  0
    4.0486  -11.8453    6.1853 C   0  0  0  0  0  0  0  0  0  0  0  0
    3.6386  -12.3178    4.8051 C   0  0  0  0  0  0  0  0  0  0  0  0
    3.7343  -11.1093    4.0862 O   0  0  0  0  0  0  0  0  0  0  0  0
    4.3149   -8.8930    4.7859 C   0  0  1  0  0  0  0  0  0  0  0  0
    5.7211   -9.2355    5.3169 C   0  0  0  0  0  0  0  0  0  0  0  0
    4.3026   -8.5250    3.2993 C   0  0  2  0  0  0  0  0  0  0  0  0
    5.1339   -7.2579    2.9932 C   0  0  0  0  0  0  0  0  0  0  0  0
    4.3211   -6.5203    1.9287 C   0  0  1  0  0  0  0  0  0  0  0  0
    4.6095   -7.2312    0.5706 C   0  0  0  0  0  0  0  0  0  0  0  0
    4.6318   -4.9963    1.7462 C   0  0  1  0  0  0  0  0  0  0  0  0
    6.1030   -4.6240    1.4557 C   0  0  0  0  0  0  0  0  0  0  0  0
    6.2190   -3.1596    0.9977 C   0  0  1  0  0  0  0  0  0  0  0  0
    7.5702   -2.8079    0.8309 O   0  0  0  0  0  0  0  0  0  0  0  0
    5.4164   -2.8776   -0.3078 C   0  0  2  0  0  0  0  0  0  0  0  0
    6.0867   -3.5309   -1.5137 C   0  0  0  0  0  0  0  0  0  0  0  0
    3.0387   -1.3045    1.4295 H   0  0  0  0  0  0  0  0  0  0  0  0
    2.7429    0.0609    0.3674 H   0  0  0  0  0  0  0  0  0  0  0  0
    3.4240    0.3496    1.9399 H   0  0  0  0  0  0  0  0  0  0  0  0
    6.0013   -0.9775   -1.1671 H   0  0  0  0  0  0  0  0  0  0  0  0
    3.3110   -0.6364   -1.6770 H   0  0  0  0  0  0  0  0  0  0  0  0
    4.3131   -1.6229   -2.6669 H   0  0  0  0  0  0  0  0  0  0  0  0
    2.2412   -2.4300   -0.5728 H   0  0  0  0  0  0  0  0  0  0  0  0
    2.7665   -4.3746   -2.1233 H   0  0  0  0  0  0  0  0  0  0  0  0
    1.7827   -4.1517    1.6052 H   0  0  0  0  0  0  0  0  0  0  0  0
    1.7020   -4.6462   -0.0869 H   0  0  0  0  0  0  0  0  0  0  0  0
    3.1896   -6.0927    4.5449 H   0  0  0  0  0  0  0  0  0  0  0  0
    1.5057   -6.1833    4.0848 H   0  0  0  0  0  0  0  0  0  0  0  0
    2.4638   -4.8595    3.5498 H   0  0  0  0  0  0  0  0  0  0  0  0
    2.7686   -8.8322    1.8305 H   0  0  0  0  0  0  0  0  0  0  0  0
    5.1316  -11.7570    6.2393 H   0  0  0  0  0  0  0  0  0  0  0  0
    3.7315  -12.5060    6.9882 H   0  0  0  0  0  0  0  0  0  0  0  0
    4.2962  -13.0855    4.3905 H   0  0  0  0  0  0  0  0  0  0  0  0
    2.6158  -12.6899    4.8141 H   0  0  0  0  0  0  0  0  0  0  0  0
    3.9186   -8.0712    5.3988 H   0  0  0  0  0  0  0  0  0  0  0  0
    6.1610  -10.0925    4.7963 H   0  0  0  0  0  0  0  0  0  0  0  0
    5.6937   -9.4679    6.3810 H   0  0  0  0  0  0  0  0  0  0  0  0
    6.4046   -8.3972    5.2149 H   0  0  0  0  0  0  0  0  0  0  0  0
    4.7383   -9.3470    2.7240 H   0  0  0  0  0  0  0  0  0  0  0  0
    5.2405   -6.6287    3.8787 H   0  0  0  0  0  0  0  0  0  0  0  0
    6.1414   -7.5098    2.6541 H   0  0  0  0  0  0  0  0  0  0  0  0
    5.6729   -7.1760    0.4315 H   0  0  0  0  0  0  0  0  0  0  0  0
    4.1300   -6.7612   -0.2951 H   0  0  0  0  0  0  0  0  0  0  0  0
    4.3403   -8.2847    0.5409 H   0  0  0  0  0  0  0  0  0  0  0  0
    4.3977   -4.4864    2.6735 H   0  0  0  0  0  0  0  0  0  0  0  0
    6.6786   -4.7838    2.3730 H   0  0  0  0  0  0  0  0  0  0  0  0
    6.5451   -5.2778    0.7031 H   0  0  0  0  0  0  0  0  0  0  0  0
    5.8256   -2.5711    1.8271 H   0  0  0  0  0  0  0  0  0  0  0  0
    7.9534   -3.3779    0.1624 H   0  0  0  0  0  0  0  0  0  0  0  0
    7.1265   -3.2311   -1.6636 H   0  0  0  0  0  0  0  0  0  0  0  0
    5.5611   -3.3696   -2.4610 H   0  0  0  0  0  0  0  0  0  0  0  0
    6.0495   -4.5969   -1.3238 H   0  0  0  0  0  0  0  0  0  0  0  0
  1  2  1  0
  1 36  1  0
  1 37  1  0
  1 38  1  0
  2  3  2  0
  2  4  1  0
  4 34  1  0
  4  5  1  0
  4 39  1  6
  5  6  1  0
  5 40  1  0
  5 41  1  0
  6  7  1  0
  6  8  1  0
  6 42  1  1
  7 43  1  0
  8 34  1  0
  8  9  2  0
  9 30  1  0
  9 10  1  0
 10 11  1  0
 10 44  1  0
 10 45  1  0
 11 12  2  0
 11 13  1  0
 13 28  1  0
 13 14  1  1
 13 15  1  0
 14 46  1  0
 14 47  1  0
 14 48  1  0
 15 26  1  0
 15 16  1  0
 15 49  1  6
 16 17  2  0
 16 18  1  0
 18 19  1  0
 19 23  1  0
 19 20  1  0
 19 24  1  0
 20 21  1  0
 21 22  1  0
 21 50  1  0
 21 51  1  0
 22 23  1  0
 22 52  1  0
 22 53  1  0
 24 25  1  0
 24 26  1  0
 24 54  1  1
 25 55  1  0
 25 56  1  0
 25 57  1  0
 26 27  1  0
 26 58  1  6
 27 28  1  0
 27 59  1  0
 27 60  1  0
 28 29  1  6
 28 30  1  0
 29 61  1  0
 29 62  1  0
 29 63  1  0
 30 31  1  0
 30 64  1  1
 31 32  1  0
 31 65  1  0
 31 66  1  0
 32 33  1  0
 32 34  1  0
 32 67  1  1
 33 68  1  0
 34 35  1  6
 35 69  1  0
 35 70  1  0
 35 71  1  0
M  END
>  <i_m_ct_stereo_status>  (164) 
1

>  <s_m_source_file>  (164) 
/var/tmp/pbs.5076255.sched01/tmpc2azvghe/701e6xuegj.sdf

>  <i_m_source_file_index>  (164) 
5

>  <i_lp_mmshare_version>  (164) 
48012

>  <i_f3d_flags>  (164) 
0

>  <s_epik_input>  (164) 
W09IXVtDQEBIXTFbQ0gyXVtDQEBIXShDKD1PKVtDSDNdKVtDQEBdKFtDSDNdKShbQ0BASF0oW0NIMl0yKVtPSF0pQzE9QyhbQ0gyXUMzPU8pW0NASF0yW0NAQF0oW0NIM10pKFtDSDJdW0NASF00W0NAQEhdNVtDSDNdKVtDQF0zKFtDSDNdKVtDQEBIXTRDKD1PKU9DNTZPW0NIMl1bQ0gyXU82

>  <s_epik_cmdline>  (164) 
J2VwaWtfcHl0aG9uJywgJy1waHQnLCAnMi4wJywgJy1waCcsICc3LjAnLCAnLXRuJywgJzgnLCAnLW1hJywgJzIwMCcsICctaW1hZScsICc8aW5maWxlLm1hZT4nLCAnLW9tYWUnLCAnPG91dGZpbGUubWFlPic=

>  <r_lp_tautomer_probability>  (164) 
1

>  <r_epik_Ionization_Penalty>  (164) 
1.81905e-07

>  <r_epik_Ionization_Penalty_Charging>  (164) 
0

>  <r_epik_Ionization_Penalty_Neutral>  (164) 
1.81905e-07

>  <r_epik_State_Penalty>  (164) 
-0

>  <r_epik_Charging_Adjusted_Penalty>  (164) 
0

>  <i_epik_Tot_Q>  (164) 
0

>  <i_epik_Tot_abs_Q>  (164) 
0

>  <s_epik_Chemistry_Notes>  (164) 
This compound has an ester and may undergo hydrolysis at high or low pH.

>  <s_lp_Force_Field>  (164) 
OPLS3e

>  <r_lp_Energy>  (164) 
31.8287

>  <b_lp_Chiralities_Consistent>  (164) 
1

>  <s_lp_Variant>  (164) 
61:0-1

>  <s_i_glide_gridfile>  (164) 
pfpi4k_grid

>  <i_i_glide_lignum>  (164) 
5

>  <i_i_glide_rotatable_bonds>  (164) 
3

>  <r_i_docking_score>  (164) 
-3.52216

>  <r_i_glide_ligand_efficiency>  (164) 
-0.100633

>  <r_i_glide_ligand_efficiency_sa>  (164) 
-0.329178

>  <r_i_glide_ligand_efficiency_ln>  (164) 
-0.773192

>  <r_i_glide_gscore>  (164) 
-3.52216

>  <r_i_glide_lipo>  (164) 
-0.498192

>  <r_i_glide_hbond>  (164) 
-0.585862

>  <r_i_glide_metal>  (164) 
-0

>  <r_i_glide_rewards>  (164) 
-0.282449

>  <r_i_glide_evdw>  (164) 
-26.164

>  <r_i_glide_ecoul>  (164) 
-5.21163

>  <r_i_glide_erotb>  (164) 
0

>  <r_i_glide_esite>  (164) 
-0.0657113

>  <r_i_glide_emodel>  (164) 
-35.3226

>  <r_i_glide_energy>  (164) 
-31.3757

>  <r_i_glide_einternal>  (164) 
3.79111

>  <r_i_glide_intrahb_reward>  (164) 
-0

>  <i_i_glide_confnum>  (164) 
4

>  <i_i_glide_posenum>  (164) 
22

>  <r_i_glide_eff_state_penalty>  (164) 
0

>  <ligand_id>  (164) 
61

>  <original_smiles>  (164) 
CC(=O)C1CC(O)C2=C3CC(=O)C4(C)C5C(=O)OC6(OCCO6)C(C)C5CC4(C)C3CC(O)C21C

>  <smiles>  (164) 
[H]OC1([H])C2=C3C([H])([H])C(=O)C4(C([H])([H])[H])C5([H])C(=O)OC6(OC([H])([H])C([H])([H])O6)C([H])(C([H])([H])[H])C5([H])C([H])([H])C4(C([H])([H])[H])C3([H])C([H])([H])C([H])(O[H])C2(C([H])([H])[H])C([H])(C(=O)C([H])([H])[H])C1([H])[H]

$$$$
61:0:1
     RDKit          3D

 71 76  0  0  1  0  0  0  0  0999 V2000
    4.1715   -0.8739    1.6318 C   0  0  0  0  0  0  0  0  0  0  0  0
    5.1677   -0.9820    0.4795 C   0  0  0  0  0  0  0  0  0  0  0  0
    6.1893   -0.3092    0.4706 O   0  0  0  0  0  0  0  0  0  0  0  0
    4.9092   -1.9779   -0.6685 C   0  0  2  0  0  0  0  0  0  0  0  0
    3.4351   -1.9546   -1.0888 C   0  0  0  0  0  0  0  0  0  0  0  0
    2.7456   -3.0847   -0.2823 C   0  0  1  0  0  0  0  0  0  0  0  0
    1.9238   -3.8690   -1.1224 O   0  0  0  0  0  0  0  0  0  0  0  0
    3.8697   -3.9108    0.3137 C   0  0  0  0  0  0  0  0  0  0  0  0
    3.7943   -4.7252    1.3993 C   0  0  0  0  0  0  0  0  0  0  0  0
    2.4602   -4.9849    2.1168 C   0  0  0  0  0  0  0  0  0  0  0  0
    2.3271   -6.4054    2.6953 C   0  0  0  0  0  0  0  0  0  0  0  0
    1.2744   -7.0335    2.5891 O   0  0  0  0  0  0  0  0  0  0  0  0
    3.5725   -6.9509    3.4183 C   0  0  1  0  0  0  0  0  0  0  0  0
    3.7837   -6.0598    4.6861 C   0  0  0  0  0  0  0  0  0  0  0  0
    3.6057   -8.4637    3.8199 C   0  0  2  0  0  0  0  0  0  0  0  0
    2.8308   -8.8838    5.0924 C   0  0  0  0  0  0  0  0  0  0  0  0
    1.6819   -8.4668    5.2623 O   0  0  0  0  0  0  0  0  0  0  0  0
    3.4301   -9.7315    6.0085 O   0  0  0  0  0  0  0  0  0  0  0  0
    4.7290  -10.2346    5.7999 C   0  0  0  0  0  0  0  0  0  0  0  0
    5.2794  -10.6681    7.0074 O   0  0  0  0  0  0  0  0  0  0  0  0
    5.7048  -12.0050    6.8064 C   0  0  0  0  0  0  0  0  0  0  0  0
    4.7780  -12.4880    5.7041 C   0  0  0  0  0  0  0  0  0  0  0  0
    4.6924  -11.3180    4.9238 O   0  0  0  0  0  0  0  0  0  0  0  0
    5.6557   -9.1423    5.2054 C   0  0  1  0  0  0  0  0  0  0  0  0
    7.1338   -9.5925    5.1874 C   0  0  0  0  0  0  0  0  0  0  0  0
    5.1120   -8.8241    3.8060 C   0  0  2  0  0  0  0  0  0  0  0  0
    5.8432   -7.6507    3.1165 C   0  0  0  0  0  0  0  0  0  0  0  0
    4.7391   -6.8823    2.3770 C   0  0  1  0  0  0  0  0  0  0  0  0
    4.4443   -7.6767    1.0604 C   0  0  0  0  0  0  0  0  0  0  0  0
    5.0443   -5.3956    2.0022 C   0  0  1  0  0  0  0  0  0  0  0  0
    6.3309   -5.1795    1.1602 C   0  0  0  0  0  0  0  0  0  0  0  0
    6.3857   -3.7527    0.5933 C   0  0  1  0  0  0  0  0  0  0  0  0
    7.6138   -3.5150   -0.0660 O   0  0  0  0  0  0  0  0  0  0  0  0
    5.1693   -3.4681   -0.3371 C   0  0  2  0  0  0  0  0  0  0  0  0
    5.2989   -4.2229   -1.6742 C   0  0  0  0  0  0  0  0  0  0  0  0
    4.0790   -1.8307    2.1399 H   0  0  0  0  0  0  0  0  0  0  0  0
    3.1868   -0.5796    1.2730 H   0  0  0  0  0  0  0  0  0  0  0  0
    4.4891   -0.1289    2.3556 H   0  0  0  0  0  0  0  0  0  0  0  0
    5.5313   -1.6550   -1.5066 H   0  0  0  0  0  0  0  0  0  0  0  0
    3.0117   -0.9735   -0.8929 H   0  0  0  0  0  0  0  0  0  0  0  0
    3.3251   -2.1093   -2.1651 H   0  0  0  0  0  0  0  0  0  0  0  0
    2.1444   -2.6697    0.5271 H   0  0  0  0  0  0  0  0  0  0  0  0
    2.4670   -4.3747   -1.7171 H   0  0  0  0  0  0  0  0  0  0  0  0
    2.3476   -4.2728    2.9291 H   0  0  0  0  0  0  0  0  0  0  0  0
    1.6336   -4.8149    1.4324 H   0  0  0  0  0  0  0  0  0  0  0  0
    4.7218   -6.2569    5.1963 H   0  0  0  0  0  0  0  0  0  0  0  0
    2.9900   -6.2059    5.4150 H   0  0  0  0  0  0  0  0  0  0  0  0
    3.7651   -4.9938    4.4693 H   0  0  0  0  0  0  0  0  0  0  0  0
    3.1127   -9.0405    3.0462 H   0  0  0  0  0  0  0  0  0  0  0  0
    6.7349  -12.0056    6.4456 H   0  0  0  0  0  0  0  0  0  0  0  0
    5.6667  -12.6046    7.7166 H   0  0  0  0  0  0  0  0  0  0  0  0
    5.1891  -13.3224    5.1292 H   0  0  0  0  0  0  0  0  0  0  0  0
    3.8072  -12.7828    6.1065 H   0  0  0  0  0  0  0  0  0  0  0  0
    5.5829   -8.2679    5.8528 H   0  0  0  0  0  0  0  0  0  0  0  0
    7.2774  -10.4993    4.6023 H   0  0  0  0  0  0  0  0  0  0  0  0
    7.4908   -9.7805    6.1994 H   0  0  0  0  0  0  0  0  0  0  0  0
    7.7808   -8.8202    4.7778 H   0  0  0  0  0  0  0  0  0  0  0  0
    5.2293   -9.6990    3.1674 H   0  0  0  0  0  0  0  0  0  0  0  0
    6.3249   -7.0011    3.8492 H   0  0  0  0  0  0  0  0  0  0  0  0
    6.6285   -8.0049    2.4469 H   0  0  0  0  0  0  0  0  0  0  0  0
    5.3509   -7.7773    0.4727 H   0  0  0  0  0  0  0  0  0  0  0  0
    3.7046   -7.1844    0.4314 H   0  0  0  0  0  0  0  0  0  0  0  0
    4.0942   -8.6974    1.2219 H   0  0  0  0  0  0  0  0  0  0  0  0
    5.2376   -4.8413    2.9157 H   0  0  0  0  0  0  0  0  0  0  0  0
    7.1997   -5.3541    1.7958 H   0  0  0  0  0  0  0  0  0  0  0  0
    6.4108   -5.8961    0.3448 H   0  0  0  0  0  0  0  0  0  0  0  0
    6.3715   -3.0933    1.4609 H   0  0  0  0  0  0  0  0  0  0  0  0
    7.6465   -4.0356   -0.8530 H   0  0  0  0  0  0  0  0  0  0  0  0
    6.1849   -3.9031   -2.2246 H   0  0  0  0  0  0  0  0  0  0  0  0
    4.4529   -4.0639   -2.3408 H   0  0  0  0  0  0  0  0  0  0  0  0
    5.3344   -5.2961   -1.4978 H   0  0  0  0  0  0  0  0  0  0  0  0
  1  2  1  0
  1 36  1  0
  1 37  1  0
  1 38  1  0
  2  3  2  0
  2  4  1  0
  4 34  1  0
  4  5  1  0
  4 39  1  6
  5  6  1  0
  5 40  1  0
  5 41  1  0
  6  7  1  0
  6  8  1  0
  6 42  1  1
  7 43  1  0
  8 34  1  0
  8  9  2  0
  9 30  1  0
  9 10  1  0
 10 11  1  0
 10 44  1  0
 10 45  1  0
 11 12  2  0
 11 13  1  0
 13 28  1  0
 13 14  1  1
 13 15  1  0
 14 46  1  0
 14 47  1  0
 14 48  1  0
 15 26  1  0
 15 16  1  0
 15 49  1  6
 16 17  2  0
 16 18  1  0
 18 19  1  0
 19 23  1  0
 19 20  1  0
 19 24  1  0
 20 21  1  0
 21 22  1  0
 21 50  1  0
 21 51  1  0
 22 23  1  0
 22 52  1  0
 22 53  1  0
 24 25  1  0
 24 26  1  0
 24 54  1  1
 25 55  1  0
 25 56  1  0
 25 57  1  0
 26 27  1  0
 26 58  1  6
 27 28  1  0
 27 59  1  0
 27 60  1  0
 28 29  1  6
 28 30  1  0
 29 61  1  0
 29 62  1  0
 29 63  1  0
 30 31  1  0
 30 64  1  1
 31 32  1  0
 31 65  1  0
 31 66  1  0
 32 33  1  0
 32 34  1  0
 32 67  1  1
 33 68  1  0
 34 35  1  6
 35 69  1  0
 35 70  1  0
 35 71  1  0
M  END
>  <i_m_ct_stereo_status>  (165) 
1

>  <s_m_source_file>  (165) 
/var/tmp/pbs.5076255.sched01/tmpc2azvghe/701e6xuegj.sdf

>  <i_m_source_file_index>  (165) 
5

>  <i_lp_mmshare_version>  (165) 
48012

>  <i_f3d_flags>  (165) 
0

>  <s_epik_input>  (165) 
W09IXVtDQEBIXTFbQ0gyXVtDQEBIXShDKD1PKVtDSDNdKVtDQEBdKFtDSDNdKShbQ0BASF0oW0NIMl0yKVtPSF0pQzE9QyhbQ0gyXUMzPU8pW0NASF0yW0NAQF0oW0NIM10pKFtDSDJdW0NASF00W0NAQEhdNVtDSDNdKVtDQF0zKFtDSDNdKVtDQEBIXTRDKD1PKU9DNTZPW0NIMl1bQ0gyXU82

>  <s_epik_cmdline>  (165) 
J2VwaWtfcHl0aG9uJywgJy1waHQnLCAnMi4wJywgJy1waCcsICc3LjAnLCAnLXRuJywgJzgnLCAnLW1hJywgJzIwMCcsICctaW1hZScsICc8aW5maWxlLm1hZT4nLCAnLW9tYWUnLCAnPG91dGZpbGUubWFlPic=

>  <r_lp_tautomer_probability>  (165) 
1

>  <r_epik_Ionization_Penalty>  (165) 
1.81905e-07

>  <r_epik_Ionization_Penalty_Charging>  (165) 
0

>  <r_epik_Ionization_Penalty_Neutral>  (165) 
1.81905e-07

>  <r_epik_State_Penalty>  (165) 
-0

>  <r_epik_Charging_Adjusted_Penalty>  (165) 
0

>  <i_epik_Tot_Q>  (165) 
0

>  <i_epik_Tot_abs_Q>  (165) 
0

>  <s_epik_Chemistry_Notes>  (165) 
This compound has an ester and may undergo hydrolysis at high or low pH.

>  <s_lp_Force_Field>  (165) 
OPLS3e

>  <r_lp_Energy>  (165) 
31.8287

>  <b_lp_Chiralities_Consistent>  (165) 
1

>  <s_lp_Variant>  (165) 
61:0-1

>  <s_i_glide_gridfile>  (165) 
pfpi4k_grid

>  <i_i_glide_lignum>  (165) 
5

>  <i_i_glide_rotatable_bonds>  (165) 
3

>  <r_i_docking_score>  (165) 
-2.75583

>  <r_i_glide_ligand_efficiency>  (165) 
-0.078738

>  <r_i_glide_ligand_efficiency_sa>  (165) 
-0.257557

>  <r_i_glide_ligand_efficiency_ln>  (165) 
-0.604966

>  <r_i_glide_gscore>  (165) 
-2.75583

>  <r_i_glide_lipo>  (165) 
-0.386974

>  <r_i_glide_hbond>  (165) 
-0.32

>  <r_i_glide_metal>  (165) 
-0

>  <r_i_glide_rewards>  (165) 
-0.231028

>  <r_i_glide_evdw>  (165) 
-26.6984

>  <r_i_glide_ecoul>  (165) 
-3.05248

>  <r_i_glide_erotb>  (165) 
0

>  <r_i_glide_esite>  (165) 
-0.0250339

>  <r_i_glide_emodel>  (165) 
-33.5906

>  <r_i_glide_energy>  (165) 
-29.7509

>  <r_i_glide_einternal>  (165) 
1.86395

>  <r_i_glide_intrahb_reward>  (165) 
-0

>  <i_i_glide_confnum>  (165) 
4

>  <i_i_glide_posenum>  (165) 
34

>  <r_i_glide_eff_state_penalty>  (165) 
0

>  <ligand_id>  (165) 
61

>  <original_smiles>  (165) 
CC(=O)C1CC(O)C2=C3CC(=O)C4(C)C5C(=O)OC6(OCCO6)C(C)C5CC4(C)C3CC(O)C21C

>  <smiles>  (165) 
[H]OC1([H])C2=C3C([H])([H])C(=O)C4(C([H])([H])[H])C5([H])C(=O)OC6(OC([H])([H])C([H])([H])O6)C([H])(C([H])([H])[H])C5([H])C([H])([H])C4(C([H])([H])[H])C3([H])C([H])([H])C([H])(O[H])C2(C([H])([H])[H])C([H])(C(=O)C([H])([H])[H])C1([H])[H]

$$$$
61:0:2
     RDKit          3D

 71 76  0  0  1  0  0  0  0  0999 V2000
    5.4951  -10.3056    4.6819 C   0  0  0  0  0  0  0  0  0  0  0  0
    6.4029   -9.9312    5.8519 C   0  0  0  0  0  0  0  0  0  0  0  0
    7.3879  -10.6132    6.1260 O   0  0  0  0  0  0  0  0  0  0  0  0
    6.0760   -8.6762    6.6842 C   0  0  2  0  0  0  0  0  0  0  0  0
    4.6179   -8.7394    7.1871 C   0  0  0  0  0  0  0  0  0  0  0  0
    3.7785   -7.9464    6.1568 C   0  0  1  0  0  0  0  0  0  0  0  0
    2.9297   -7.0440    6.8318 O   0  0  0  0  0  0  0  0  0  0  0  0
    4.7775   -7.2140    5.2756 C   0  0  0  0  0  0  0  0  0  0  0  0
    4.5574   -6.7736    4.0148 C   0  0  0  0  0  0  0  0  0  0  0  0
    3.1716   -6.8650    3.3535 C   0  0  0  0  0  0  0  0  0  0  0  0
    2.8571   -5.7010    2.3955 C   0  0  0  0  0  0  0  0  0  0  0  0
    1.7482   -5.1715    2.3744 O   0  0  0  0  0  0  0  0  0  0  0  0
    4.0054   -5.2708    1.4626 C   0  0  1  0  0  0  0  0  0  0  0  0
    4.2599   -6.4665    0.4917 C   0  0  0  0  0  0  0  0  0  0  0  0
    3.8396   -3.9431    0.6496 C   0  0  2  0  0  0  0  0  0  0  0  0
    2.9499   -3.9726   -0.6092 C   0  0  0  0  0  0  0  0  0  0  0  0
    1.8379   -4.5177   -0.5586 O   0  0  0  0  0  0  0  0  0  0  0  0
    3.3975   -3.3991   -1.7724 O   0  0  0  0  0  0  0  0  0  0  0  0
    4.6420   -2.7539   -1.8582 C   0  0  0  0  0  0  0  0  0  0  0  0
    5.0236   -2.6607   -3.1928 O   0  0  0  0  0  0  0  0  0  0  0  0
    4.2194   -1.6120   -3.7020 C   0  0  0  0  0  0  0  0  0  0  0  0
    4.1263   -0.6756   -2.5038 C   0  0  0  0  0  0  0  0  0  0  0  0
    4.5484   -1.4524   -1.4007 O   0  0  0  0  0  0  0  0  0  0  0  0
    5.7239   -3.5055   -1.0456 C   0  0  1  0  0  0  0  0  0  0  0  0
    7.1300   -2.9171   -1.2810 C   0  0  0  0  0  0  0  0  0  0  0  0
    5.2918   -3.4499    0.4289 C   0  0  2  0  0  0  0  0  0  0  0  0
    6.1849   -4.2993    1.3630 C   0  0  0  0  0  0  0  0  0  0  0  0
    5.2143   -4.9170    2.3867 C   0  0  1  0  0  0  0  0  0  0  0  0
    4.8904   -3.8007    3.4435 C   0  0  0  0  0  0  0  0  0  0  0  0
    5.6945   -6.1941    3.1462 C   0  0  1  0  0  0  0  0  0  0  0  0
    7.0295   -6.0295    3.9095 C   0  0  0  0  0  0  0  0  0  0  0  0
    7.2789   -7.2060    4.8568 C   0  0  1  0  0  0  0  0  0  0  0  0
    8.5490   -7.0773    5.4598 O   0  0  0  0  0  0  0  0  0  0  0  0
    6.1505   -7.3129    5.9289 C   0  0  2  0  0  0  0  0  0  0  0  0
    6.2714   -6.1639    6.9672 C   0  0  0  0  0  0  0  0  0  0  0  0
    5.4892   -9.5116    3.9375 H   0  0  0  0  0  0  0  0  0  0  0  0
    4.4735  -10.4632    5.0238 H   0  0  0  0  0  0  0  0  0  0  0  0
    5.8306  -11.2217    4.1998 H   0  0  0  0  0  0  0  0  0  0  0  0
    6.7659   -8.6747    7.5284 H   0  0  0  0  0  0  0  0  0  0  0  0
    4.2585   -9.7613    7.3099 H   0  0  0  0  0  0  0  0  0  0  0  0
    4.5564   -8.2863    8.1789 H   0  0  0  0  0  0  0  0  0  0  0  0
    3.1808   -8.6205    5.5433 H   0  0  0  0  0  0  0  0  0  0  0  0
    2.3170   -7.5491    7.3482 H   0  0  0  0  0  0  0  0  0  0  0  0
    3.1077   -7.7968    2.7975 H   0  0  0  0  0  0  0  0  0  0  0  0
    2.3962   -6.9084    4.1180 H   0  0  0  0  0  0  0  0  0  0  0  0
    5.1394   -6.3392   -0.1330 H   0  0  0  0  0  0  0  0  0  0  0  0
    3.4186   -6.6080   -0.1792 H   0  0  0  0  0  0  0  0  0  0  0  0
    4.3697   -7.4228    1.0002 H   0  0  0  0  0  0  0  0  0  0  0  0
    3.3259   -3.2130    1.2675 H   0  0  0  0  0  0  0  0  0  0  0  0
    4.6376   -1.1253   -4.5829 H   0  0  0  0  0  0  0  0  0  0  0  0
    3.2381   -2.0018   -3.9728 H   0  0  0  0  0  0  0  0  0  0  0  0
    4.8082    0.1643   -2.5995 H   0  0  0  0  0  0  0  0  0  0  0  0
    3.1090   -0.2991   -2.3921 H   0  0  0  0  0  0  0  0  0  0  0  0
    5.7192   -4.5349   -1.3999 H   0  0  0  0  0  0  0  0  0  0  0  0
    7.1950   -1.8733   -0.9788 H   0  0  0  0  0  0  0  0  0  0  0  0
    7.4100   -2.9935   -2.3302 H   0  0  0  0  0  0  0  0  0  0  0  0
    7.8818   -3.4741   -0.7237 H   0  0  0  0  0  0  0  0  0  0  0  0
    5.3398   -2.4168    0.7743 H   0  0  0  0  0  0  0  0  0  0  0  0
    6.6995   -5.0887    0.8133 H   0  0  0  0  0  0  0  0  0  0  0  0
    6.9570   -3.6921    1.8328 H   0  0  0  0  0  0  0  0  0  0  0  0
    5.7944   -3.4434    3.9330 H   0  0  0  0  0  0  0  0  0  0  0  0
    4.2243   -4.1442    4.2368 H   0  0  0  0  0  0  0  0  0  0  0  0
    4.4257   -2.9137    3.0133 H   0  0  0  0  0  0  0  0  0  0  0  0
    5.9090   -6.9744    2.4222 H   0  0  0  0  0  0  0  0  0  0  0  0
    7.8446   -5.9566    3.1891 H   0  0  0  0  0  0  0  0  0  0  0  0
    7.0549   -5.1099    4.4874 H   0  0  0  0  0  0  0  0  0  0  0  0
    7.3156   -8.0939    4.2297 H   0  0  0  0  0  0  0  0  0  0  0  0
    9.2092   -7.1030    4.7825 H   0  0  0  0  0  0  0  0  0  0  0  0
    7.2180   -6.2051    7.5097 H   0  0  0  0  0  0  0  0  0  0  0  0
    5.4791   -6.2031    7.7130 H   0  0  0  0  0  0  0  0  0  0  0  0
    6.1955   -5.1825    6.4996 H   0  0  0  0  0  0  0  0  0  0  0  0
  1  2  1  0
  1 36  1  0
  1 37  1  0
  1 38  1  0
  2  3  2  0
  2  4  1  0
  4 34  1  0
  4  5  1  0
  4 39  1  1
  5  6  1  0
  5 40  1  0
  5 41  1  0
  6  7  1  0
  6  8  1  0
  6 42  1  6
  7 43  1  0
  8 34  1  0
  8  9  2  0
  9 30  1  0
  9 10  1  0
 10 11  1  0
 10 44  1  0
 10 45  1  0
 11 12  2  0
 11 13  1  0
 13 28  1  0
 13 14  1  6
 13 15  1  0
 14 46  1  0
 14 47  1  0
 14 48  1  0
 15 26  1  0
 15 16  1  0
 15 49  1  1
 16 17  2  0
 16 18  1  0
 18 19  1  0
 19 23  1  0
 19 20  1  0
 19 24  1  0
 20 21  1  0
 21 22  1  0
 21 50  1  0
 21 51  1  0
 22 23  1  0
 22 52  1  0
 22 53  1  0
 24 25  1  0
 24 26  1  0
 24 54  1  6
 25 55  1  0
 25 56  1  0
 25 57  1  0
 26 27  1  0
 26 58  1  1
 27 28  1  0
 27 59  1  0
 27 60  1  0
 28 29  1  1
 28 30  1  0
 29 61  1  0
 29 62  1  0
 29 63  1  0
 30 31  1  0
 30 64  1  6
 31 32  1  0
 31 65  1  0
 31 66  1  0
 32 33  1  0
 32 34  1  0
 32 67  1  6
 33 68  1  0
 34 35  1  1
 35 69  1  0
 35 70  1  0
 35 71  1  0
M  END
>  <i_m_ct_stereo_status>  (166) 
1

>  <s_m_source_file>  (166) 
/var/tmp/pbs.5076255.sched01/tmpc2azvghe/701e6xuegj.sdf

>  <i_m_source_file_index>  (166) 
5

>  <i_lp_mmshare_version>  (166) 
48012

>  <i_f3d_flags>  (166) 
0

>  <s_epik_input>  (166) 
W09IXVtDQEBIXTFbQ0gyXVtDQEBIXShDKD1PKVtDSDNdKVtDQEBdKFtDSDNdKShbQ0BASF0oW0NIMl0yKVtPSF0pQzE9QyhbQ0gyXUMzPU8pW0NASF0yW0NAQF0oW0NIM10pKFtDSDJdW0NASF00W0NAQEhdNVtDSDNdKVtDQF0zKFtDSDNdKVtDQEBIXTRDKD1PKU9DNTZPW0NIMl1bQ0gyXU82

>  <s_epik_cmdline>  (166) 
J2VwaWtfcHl0aG9uJywgJy1waHQnLCAnMi4wJywgJy1waCcsICc3LjAnLCAnLXRuJywgJzgnLCAnLW1hJywgJzIwMCcsICctaW1hZScsICc8aW5maWxlLm1hZT4nLCAnLW9tYWUnLCAnPG91dGZpbGUubWFlPic=

>  <r_lp_tautomer_probability>  (166) 
1

>  <r_epik_Ionization_Penalty>  (166) 
1.81905e-07

>  <r_epik_Ionization_Penalty_Charging>  (166) 
0

>  <r_epik_Ionization_Penalty_Neutral>  (166) 
1.81905e-07

>  <r_epik_State_Penalty>  (166) 
-0

>  <r_epik_Charging_Adjusted_Penalty>  (166) 
0

>  <i_epik_Tot_Q>  (166) 
0

>  <i_epik_Tot_abs_Q>  (166) 
0

>  <s_epik_Chemistry_Notes>  (166) 
This compound has an ester and may undergo hydrolysis at high or low pH.

>  <s_lp_Force_Field>  (166) 
OPLS3e

>  <r_lp_Energy>  (166) 
31.8287

>  <b_lp_Chiralities_Consistent>  (166) 
1

>  <s_lp_Variant>  (166) 
61:0-1

>  <s_i_glide_gridfile>  (166) 
pfpi4k_grid

>  <i_i_glide_lignum>  (166) 
5

>  <i_i_glide_rotatable_bonds>  (166) 
3

>  <r_i_docking_score>  (166) 
-2.33044

>  <r_i_glide_ligand_efficiency>  (166) 
-0.0665839

>  <r_i_glide_ligand_efficiency_sa>  (166) 
-0.2178

>  <r_i_glide_ligand_efficiency_ln>  (166) 
-0.511583

>  <r_i_glide_gscore>  (166) 
-2.33044

>  <r_i_glide_lipo>  (166) 
-0.673883

>  <r_i_glide_hbond>  (166) 
-0.00726821

>  <r_i_glide_metal>  (166) 
-0

>  <r_i_glide_rewards>  (166) 
-0.0779322

>  <r_i_glide_evdw>  (166) 
-27.1057

>  <r_i_glide_ecoul>  (166) 
-1.20833

>  <r_i_glide_erotb>  (166) 
0

>  <r_i_glide_esite>  (166) 
-0.0348177

>  <r_i_glide_emodel>  (166) 
-31.5302

>  <r_i_glide_energy>  (166) 
-28.3141

>  <r_i_glide_einternal>  (166) 
2.04145

>  <r_i_glide_intrahb_reward>  (166) 
-0

>  <i_i_glide_confnum>  (166) 
3

>  <i_i_glide_posenum>  (166) 
1

>  <r_i_glide_eff_state_penalty>  (166) 
0

>  <ligand_id>  (166) 
61

>  <original_smiles>  (166) 
CC(=O)C1CC(O)C2=C3CC(=O)C4(C)C5C(=O)OC6(OCCO6)C(C)C5CC4(C)C3CC(O)C21C

>  <smiles>  (166) 
[H]OC1([H])C2=C3C([H])([H])C(=O)C4(C([H])([H])[H])C5([H])C(=O)OC6(OC([H])([H])C([H])([H])O6)C([H])(C([H])([H])[H])C5([H])C([H])([H])C4(C([H])([H])[H])C3([H])C([H])([H])C([H])(O[H])C2(C([H])([H])[H])C([H])(C(=O)C([H])([H])[H])C1([H])[H]

$$$$
62:0:0
     RDKit          3D

 23 27  0  0  1  0  0  0  0  0999 V2000
    4.2120   -2.5071   -4.3124 O   0  0  0  0  0  0  0  0  0  0  0  0
    4.6095   -2.1090   -3.1786 C   0  0  0  0  0  0  0  0  0  0  0  0
    4.6871   -0.9512   -2.8088 O   0  0  0  0  0  0  0  0  0  0  0  0
    5.0260   -3.2268   -2.2160 C   0  0  2  0  0  0  0  0  0  0  0  0
    3.7114   -3.7868   -1.5181 N   0  0  0  0  0  0  0  0  0  0  0  0
    3.3577   -3.7012   -0.0381 C   0  0  0  0  0  0  0  0  0  0  0  0
    3.4844   -2.5796    1.1025 C   0  0  2  0  0  0  0  0  0  0  0  0
    4.1919   -1.7923    0.0564 C   0  0  1  0  0  0  0  0  0  0  0  0
    5.3780   -0.9122    0.3395 C   0  0  0  0  0  0  0  0  0  0  0  0
    6.1054   -2.1939    0.4601 C   0  0  2  0  0  0  0  0  0  0  0  0
    6.2101   -2.9113   -1.0722 C   0  0  1  0  0  0  0  0  0  0  0  0
    5.8438   -4.0551   -0.4613 O   0  0  0  0  0  0  0  0  0  0  0  0
    4.7386   -3.3720    0.1267 C   0  0  2  0  0  0  0  0  0  0  0  0
    4.9861   -2.9050    1.3665 C   0  0  1  0  0  0  0  0  0  0  0  0
    5.3924   -4.0496   -2.8198 H   0  0  0  0  0  0  0  0  0  0  0  0
    3.4711   -1.3882   -0.6762 H   0  0  0  0  0  0  0  0  0  0  0  0
    5.7277   -0.2787   -0.4753 H   0  0  0  0  0  0  0  0  0  0  0  0
    5.3352   -0.3535    1.2848 H   0  0  0  0  0  0  0  0  0  0  0  0
    7.0649   -2.1071    0.9702 H   0  0  0  0  0  0  0  0  0  0  0  0
    7.2366   -3.0177   -1.4437 H   0  0  0  0  0  0  0  0  0  0  0  0
    5.2231   -3.8058    1.9336 H   0  0  0  0  0  0  0  0  0  0  0  0
    2.7853   -2.1767    1.8312 H   0  0  0  0  0  0  0  0  0  0  0  0
    3.2206   -4.4961   -2.0601 H   0  0  0  0  0  0  0  0  0  0  0  0
  1  2  2  0
  2  3  1  0
  2  4  1  0
  4 11  1  0
  4 15  1  6
  4  5  1  0
  5  6  2  0
  5 23  1  0
  6  7  1  0
  6 13  1  0
  7 14  1  0
  7  8  1  0
  7 22  1  1
  8 13  1  0
  8  9  1  0
  8 16  1  6
  9 10  1  0
  9 17  1  0
  9 18  1  0
 10 14  1  0
 10 11  1  0
 10 19  1  1
 11 12  1  0
 11 20  1  6
 13 12  1  6
 13 14  1  0
 14 21  1  1
M  CHG  2   3  -1   5   1
M  END
>  <i_m_ct_stereo_status>  (167) 
1

>  <s_m_source_file>  (167) 
/var/tmp/pbs.5076255.sched01/tmpc2azvghe/701e6xuegj.sdf

>  <i_m_source_file_index>  (167) 
6

>  <i_lp_mmshare_version>  (167) 
48012

>  <i_f3d_flags>  (167) 
0

>  <s_epik_input>  (167) 
Tz1DKFtPSF0pW0NASF0oTj0xKVtDQEhdKE8yKVtDQEhdKFtDQEBIXTM0KVtDSDJdW0NAQEhdNVtDQEhdM0MxW0NAXTI0NQ==

>  <s_epik_cmdline>  (167) 
J2VwaWtfcHl0aG9uJywgJy1waHQnLCAnMi4wJywgJy1waCcsICc3LjAnLCAnLXRuJywgJzgnLCAnLW1hJywgJzIwMCcsICctaW1hZScsICc8aW5maWxlLm1hZT4nLCAnLW9tYWUnLCAnPG91dGZpbGUubWFlPic=

>  <r_epik_Ionization_Penalty>  (167) 
13.5257

>  <r_epik_Ionization_Penalty_Charging>  (167) 
0.00226357

>  <r_epik_Ionization_Penalty_Neutral>  (167) 
13.5234

>  <r_epik_State_Penalty>  (167) 
0.00153818

>  <r_epik_Charging_Adjusted_Penalty>  (167) 
0.00380174

>  <i_epik_Tot_Q>  (167) 
0

>  <i_epik_Tot_abs_Q>  (167) 
2

>  <s_epik_Chemistry_Notes>  (167) 
This compound has an imine and may undergo hydrolysis.

>  <s_lp_Force_Field>  (167) 
OPLS3e

>  <r_lp_Energy>  (167) 
322.406

>  <b_lp_Chiralities_Consistent>  (167) 
1

>  <s_lp_Variant>  (167) 
62:0-1

>  <s_i_glide_gridfile>  (167) 
pfpi4k_grid

>  <i_i_glide_lignum>  (167) 
6

>  <i_i_glide_rotatable_bonds>  (167) 
1

>  <r_i_docking_score>  (167) 
-5.23574

>  <r_i_glide_ligand_efficiency>  (167) 
-0.373982

>  <r_i_glide_ligand_efficiency_sa>  (167) 
-0.901349

>  <r_i_glide_ligand_efficiency_ln>  (167) 
-1.43876

>  <r_i_glide_gscore>  (167) 
-5.23574

>  <r_i_glide_lipo>  (167) 
-0.39871

>  <r_i_glide_hbond>  (167) 
-0.158262

>  <r_i_glide_metal>  (167) 
-0

>  <r_i_glide_rewards>  (167) 
-2.20815

>  <r_i_glide_evdw>  (167) 
-15.2199

>  <r_i_glide_ecoul>  (167) 
-11.2465

>  <r_i_glide_erotb>  (167) 
0

>  <r_i_glide_esite>  (167) 
-0.0226506

>  <r_i_glide_emodel>  (167) 
-37.1609

>  <r_i_glide_energy>  (167) 
-26.4664

>  <r_i_glide_einternal>  (167) 
0.34248

>  <r_i_glide_intrahb_reward>  (167) 
-0

>  <i_i_glide_confnum>  (167) 
2

>  <i_i_glide_posenum>  (167) 
40

>  <r_i_glide_eff_state_penalty>  (167) 
0

>  <ligand_id>  (167) 
62

>  <original_smiles>  (167) 
O=C(O)C1N=C2C3C4CC5C1OC24C53

>  <smiles>  (167) 
[H][N+]1=C2C3([H])C4([H])C([H])([H])C5([H])C([H])(OC24C35[H])C1([H])C(=O)[O-]

$$$$
62:0:1
     RDKit          3D

 23 27  0  0  1  0  0  0  0  0999 V2000
    2.9487   -1.8759    3.1405 O   0  0  0  0  0  0  0  0  0  0  0  0
    3.0035   -2.3710    2.0021 C   0  0  0  0  0  0  0  0  0  0  0  0
    2.4916   -3.4781    1.6740 O   0  0  0  0  0  0  0  0  0  0  0  0
    3.6537   -1.5330    0.8879 C   0  0  2  0  0  0  0  0  0  0  0  0
    3.0493   -1.8850   -0.5301 N   0  0  0  0  0  0  0  0  0  0  0  0
    3.7408   -2.5454   -1.7192 C   0  0  0  0  0  0  0  0  0  0  0  0
    4.8741   -3.6764   -1.8862 C   0  0  2  0  0  0  0  0  0  0  0  0
    4.9044   -3.6965   -0.4021 C   0  0  1  0  0  0  0  0  0  0  0  0
    6.1478   -3.8814    0.4087 C   0  0  0  0  0  0  0  0  0  0  0  0
    6.4262   -2.4817    0.0065 C   0  0  2  0  0  0  0  0  0  0  0  0
    5.3241   -1.4590    0.7861 C   0  0  1  0  0  0  0  0  0  0  0  0
    5.1550   -0.8433   -0.4010 O   0  0  0  0  0  0  0  0  0  0  0  0
    4.9173   -2.1136   -0.9898 C   0  0  2  0  0  0  0  0  0  0  0  0
    6.0152   -2.7034   -1.5296 C   0  0  1  0  0  0  0  0  0  0  0  0
    3.3151   -0.5116    1.0786 H   0  0  0  0  0  0  0  0  0  0  0  0
    4.0411   -4.2650   -0.0468 H   0  0  0  0  0  0  0  0  0  0  0  0
    6.0210   -4.0063    1.4827 H   0  0  0  0  0  0  0  0  0  0  0  0
    6.8761   -4.6030    0.0009 H   0  0  0  0  0  0  0  0  0  0  0  0
    7.4693   -2.1928    0.1255 H   0  0  0  0  0  0  0  0  0  0  0  0
    5.7941   -0.7560    1.4712 H   0  0  0  0  0  0  0  0  0  0  0  0
    6.3139   -2.0041   -2.2957 H   0  0  0  0  0  0  0  0  0  0  0  0
    4.9371   -4.5566   -2.5391 H   0  0  0  0  0  0  0  0  0  0  0  0
    2.0923   -1.4883   -0.7165 H   0  0  0  0  0  0  0  0  0  0  0  0
  1  2  2  0
  2  3  1  0
  2  4  1  0
  4 11  1  0
  4 15  1  1
  4  5  1  0
  5  6  2  0
  5 23  1  0
  6  7  1  0
  6 13  1  0
  7 14  1  0
  7  8  1  0
  7 22  1  6
  8 13  1  0
  8  9  1  0
  8 16  1  1
  9 10  1  0
  9 17  1  0
  9 18  1  0
 10 14  1  0
 10 11  1  0
 10 19  1  6
 11 12  1  0
 11 20  1  1
 13 12  1  1
 13 14  1  0
 14 21  1  6
M  CHG  2   3  -1   5   1
M  END
>  <i_m_ct_stereo_status>  (168) 
1

>  <s_m_source_file>  (168) 
/var/tmp/pbs.5076255.sched01/tmpc2azvghe/701e6xuegj.sdf

>  <i_m_source_file_index>  (168) 
6

>  <i_lp_mmshare_version>  (168) 
48012

>  <i_f3d_flags>  (168) 
0

>  <s_epik_input>  (168) 
Tz1DKFtPSF0pW0NASF0oTj0xKVtDQEhdKE8yKVtDQEhdKFtDQEBIXTM0KVtDSDJdW0NAQEhdNVtDQEhdM0MxW0NAXTI0NQ==

>  <s_epik_cmdline>  (168) 
J2VwaWtfcHl0aG9uJywgJy1waHQnLCAnMi4wJywgJy1waCcsICc3LjAnLCAnLXRuJywgJzgnLCAnLW1hJywgJzIwMCcsICctaW1hZScsICc8aW5maWxlLm1hZT4nLCAnLW9tYWUnLCAnPG91dGZpbGUubWFlPic=

>  <r_epik_Ionization_Penalty>  (168) 
13.5257

>  <r_epik_Ionization_Penalty_Charging>  (168) 
0.00226357

>  <r_epik_Ionization_Penalty_Neutral>  (168) 
13.5234

>  <r_epik_State_Penalty>  (168) 
0.00153818

>  <r_epik_Charging_Adjusted_Penalty>  (168) 
0.00380174

>  <i_epik_Tot_Q>  (168) 
0

>  <i_epik_Tot_abs_Q>  (168) 
2

>  <s_epik_Chemistry_Notes>  (168) 
This compound has an imine and may undergo hydrolysis.

>  <s_lp_Force_Field>  (168) 
OPLS3e

>  <r_lp_Energy>  (168) 
322.406

>  <b_lp_Chiralities_Consistent>  (168) 
1

>  <s_lp_Variant>  (168) 
62:0-1

>  <s_i_glide_gridfile>  (168) 
pfpi4k_grid

>  <i_i_glide_lignum>  (168) 
6

>  <i_i_glide_rotatable_bonds>  (168) 
1

>  <r_i_docking_score>  (168) 
-4.87301

>  <r_i_glide_ligand_efficiency>  (168) 
-0.348072

>  <r_i_glide_ligand_efficiency_sa>  (168) 
-0.838903

>  <r_i_glide_ligand_efficiency_ln>  (168) 
-1.33909

>  <r_i_glide_gscore>  (168) 
-4.87301

>  <r_i_glide_lipo>  (168) 
-0.240828

>  <r_i_glide_hbond>  (168) 
-0.161122

>  <r_i_glide_metal>  (168) 
-0

>  <r_i_glide_rewards>  (168) 
-2.10557

>  <r_i_glide_evdw>  (168) 
-14.0138

>  <r_i_glide_ecoul>  (168) 
-10.1831

>  <r_i_glide_erotb>  (168) 
0

>  <r_i_glide_esite>  (168) 
-0.137338

>  <r_i_glide_emodel>  (168) 
-33.3724

>  <r_i_glide_energy>  (168) 
-24.1969

>  <r_i_glide_einternal>  (168) 
0.184633

>  <r_i_glide_intrahb_reward>  (168) 
-0

>  <i_i_glide_confnum>  (168) 
1

>  <i_i_glide_posenum>  (168) 
9

>  <r_i_glide_eff_state_penalty>  (168) 
0

>  <ligand_id>  (168) 
62

>  <original_smiles>  (168) 
O=C(O)C1N=C2C3C4CC5C1OC24C53

>  <smiles>  (168) 
[H][N+]1=C2C3([H])C4([H])C([H])([H])C5([H])C([H])(OC24C35[H])C1([H])C(=O)[O-]

$$$$
62:0:2
     RDKit          3D

 23 27  0  0  1  0  0  0  0  0999 V2000
    2.6703   -3.4136    1.8664 O   0  0  0  0  0  0  0  0  0  0  0  0
    3.1221   -2.2815    2.0612 C   0  0  0  0  0  0  0  0  0  0  0  0
    2.8868   -1.6425    3.1147 O   0  0  0  0  0  0  0  0  0  0  0  0
    3.9104   -1.5824    0.9640 C   0  0  2  0  0  0  0  0  0  0  0  0
    3.0175   -1.4813   -0.3489 N   0  0  0  0  0  0  0  0  0  0  0  0
    3.3260   -2.0408   -1.7017 C   0  0  0  0  0  0  0  0  0  0  0  0
    3.8549   -3.4365   -2.2437 C   0  0  2  0  0  0  0  0  0  0  0  0
    4.0208   -3.7682   -0.7800 C   0  0  1  0  0  0  0  0  0  0  0  0
    5.1751   -4.5482   -0.2300 C   0  0  0  0  0  0  0  0  0  0  0  0
    5.9488   -3.3199   -0.5111 C   0  0  2  0  0  0  0  0  0  0  0  0
    5.4471   -2.1064    0.5793 C   0  0  1  0  0  0  0  0  0  0  0  0
    5.4158   -1.3072   -0.5031 O   0  0  0  0  0  0  0  0  0  0  0  0
    4.6265   -2.2759   -1.1647 C   0  0  2  0  0  0  0  0  0  0  0  0
    5.3431   -3.0697   -1.9887 C   0  0  1  0  0  0  0  0  0  0  0  0
    4.0235   -0.5585    1.3137 H   0  0  0  0  0  0  0  0  0  0  0  0
    3.0397   -4.0236   -0.3746 H   0  0  0  0  0  0  0  0  0  0  0  0
    5.1221   -4.8069    0.8261 H   0  0  0  0  0  0  0  0  0  0  0  0
    5.4883   -5.4041   -0.8306 H   0  0  0  0  0  0  0  0  0  0  0  0
    7.0330   -3.4621   -0.5198 H   0  0  0  0  0  0  0  0  0  0  0  0
    6.2365   -1.7633    1.2597 H   0  0  0  0  0  0  0  0  0  0  0  0
    5.8414   -2.3997   -2.6906 H   0  0  0  0  0  0  0  0  0  0  0  0
    3.5061   -4.1190   -3.0042 H   0  0  0  0  0  0  0  0  0  0  0  0
    2.2410   -0.8107   -0.3196 H   0  0  0  0  0  0  0  0  0  0  0  0
  1  2  2  0
  2  3  1  0
  2  4  1  0
  4 11  1  0
  4 15  1  1
  4  5  1  0
  5  6  2  0
  5 23  1  0
  6  7  1  0
  6 13  1  0
  7 14  1  0
  7  8  1  0
  7 22  1  6
  8 13  1  0
  8  9  1  0
  8 16  1  1
  9 10  1  0
  9 17  1  0
  9 18  1  0
 10 14  1  0
 10 11  1  0
 10 19  1  6
 11 12  1  0
 11 20  1  1
 13 12  1  1
 13 14  1  0
 14 21  1  6
M  CHG  2   3  -1   5   1
M  END
>  <i_m_ct_stereo_status>  (169) 
1

>  <s_m_source_file>  (169) 
/var/tmp/pbs.5076255.sched01/tmpc2azvghe/701e6xuegj.sdf

>  <i_m_source_file_index>  (169) 
6

>  <i_lp_mmshare_version>  (169) 
48012

>  <i_f3d_flags>  (169) 
0

>  <s_epik_input>  (169) 
Tz1DKFtPSF0pW0NASF0oTj0xKVtDQEhdKE8yKVtDQEhdKFtDQEBIXTM0KVtDSDJdW0NAQEhdNVtDQEhdM0MxW0NAXTI0NQ==

>  <s_epik_cmdline>  (169) 
J2VwaWtfcHl0aG9uJywgJy1waHQnLCAnMi4wJywgJy1waCcsICc3LjAnLCAnLXRuJywgJzgnLCAnLW1hJywgJzIwMCcsICctaW1hZScsICc8aW5maWxlLm1hZT4nLCAnLW9tYWUnLCAnPG91dGZpbGUubWFlPic=

>  <r_epik_Ionization_Penalty>  (169) 
13.5257

>  <r_epik_Ionization_Penalty_Charging>  (169) 
0.00226357

>  <r_epik_Ionization_Penalty_Neutral>  (169) 
13.5234

>  <r_epik_State_Penalty>  (169) 
0.00153818

>  <r_epik_Charging_Adjusted_Penalty>  (169) 
0.00380174

>  <i_epik_Tot_Q>  (169) 
0

>  <i_epik_Tot_abs_Q>  (169) 
2

>  <s_epik_Chemistry_Notes>  (169) 
This compound has an imine and may undergo hydrolysis.

>  <s_lp_Force_Field>  (169) 
OPLS3e

>  <r_lp_Energy>  (169) 
322.406

>  <b_lp_Chiralities_Consistent>  (169) 
1

>  <s_lp_Variant>  (169) 
62:0-1

>  <s_i_glide_gridfile>  (169) 
pfpi4k_grid

>  <i_i_glide_lignum>  (169) 
6

>  <i_i_glide_rotatable_bonds>  (169) 
1

>  <r_i_docking_score>  (169) 
-4.28906

>  <r_i_glide_ligand_efficiency>  (169) 
-0.306362

>  <r_i_glide_ligand_efficiency_sa>  (169) 
-0.738375

>  <r_i_glide_ligand_efficiency_ln>  (169) 
-1.17862

>  <r_i_glide_gscore>  (169) 
-4.28906

>  <r_i_glide_lipo>  (169) 
-0.291389

>  <r_i_glide_hbond>  (169) 
-0.119912

>  <r_i_glide_metal>  (169) 
-0

>  <r_i_glide_rewards>  (169) 
-2.10557

>  <r_i_glide_evdw>  (169) 
-10.1417

>  <r_i_glide_ecoul>  (169) 
-7.24608

>  <r_i_glide_erotb>  (169) 
0

>  <r_i_glide_esite>  (169) 
-0.178194

>  <r_i_glide_emodel>  (169) 
-26.2983

>  <r_i_glide_energy>  (169) 
-17.3878

>  <r_i_glide_einternal>  (169) 
0.0828583

>  <r_i_glide_intrahb_reward>  (169) 
-0

>  <i_i_glide_confnum>  (169) 
1

>  <i_i_glide_posenum>  (169) 
35

>  <r_i_glide_eff_state_penalty>  (169) 
0

>  <ligand_id>  (169) 
62

>  <original_smiles>  (169) 
O=C(O)C1N=C2C3C4CC5C1OC24C53

>  <smiles>  (169) 
[H][N+]1=C2C3([H])C4([H])C([H])([H])C5([H])C([H])(OC24C35[H])C1([H])C(=O)[O-]

$$$$
63:0:0
     RDKit          3D

 78 85  0  0  1  0  0  0  0  0999 V2000
   -1.7793   -4.9183    7.1383 C   0  0  0  0  0  0  0  0  0  0  0  0
   -1.4035   -3.5445    7.2513 O   0  0  0  0  0  0  0  0  0  0  0  0
   -0.1312   -3.1795    6.8633 C   0  0  0  0  0  0  0  0  0  0  0  0
    0.2228   -1.8782    6.9245 C   0  0  0  0  0  0  0  0  0  0  0  0
    1.5755   -1.3080    6.4865 C   0  0  1  0  0  0  0  0  0  0  0  0
    2.2855   -1.0688    7.6821 O   0  0  0  0  0  0  0  0  0  0  0  0
    2.4062   -2.3926    5.6590 C   0  0  1  0  0  0  0  0  0  0  0  0
    3.9383   -2.1157    5.6562 C   0  0  0  0  0  0  0  0  0  0  0  0
    2.2614   -3.7674    6.3736 C   0  0  0  0  0  0  0  0  0  0  0  0
    0.8246   -4.2759    6.4067 C   0  0  0  0  0  0  0  0  0  0  0  0
    1.8797   -2.5010    4.1849 C   0  0  2  0  0  0  0  0  0  0  0  0
    2.3603   -3.6961    3.2967 C   0  0  0  0  0  0  0  0  0  0  0  0
    3.2938   -3.0841    2.2436 C   0  0  2  0  0  0  0  0  0  0  0  0
    2.9541   -1.6440    2.2829 C   0  0  0  0  0  0  0  0  0  0  0  0
    2.2206   -1.2886    3.3440 C   0  0  0  0  0  0  0  0  0  0  0  0
    1.7908    0.0922    3.7976 C   0  0  2  0  0  0  0  0  0  0  0  0
    2.4935    0.4755    5.0094 O   0  0  0  0  0  0  0  0  0  0  0  0
    1.3314    0.1071    5.8014 C   0  0  2  0  0  0  0  0  0  0  0  0
    1.0487    1.2478    6.8135 C   0  0  0  0  0  0  0  0  0  0  0  0
    0.7769    2.6383    6.1890 C   0  0  1  0  0  0  0  0  0  0  0  0
    2.0629    3.3845    5.7854 C   0  0  0  0  0  0  0  0  0  0  0  0
   -0.2228    2.5875    5.0393 C   0  0  0  0  0  0  0  0  0  0  0  0
   -0.9900    3.7360    4.7364 C   0  0  0  0  0  0  0  0  0  0  0  0
   -1.9006    3.7139    3.6666 C   0  0  0  0  0  0  0  0  0  0  0  0
   -2.0611    2.5451    2.9065 C   0  0  0  0  0  0  0  0  0  0  0  0
   -1.2980    1.4052    3.1991 C   0  0  0  0  0  0  0  0  0  0  0  0
   -0.3837    1.4138    4.2683 C   0  0  0  0  0  0  0  0  0  0  0  0
    0.4571    0.1752    4.5323 C   0  0  1  0  0  0  0  0  0  0  0  0
    3.4165   -0.9500    1.0237 C   0  0  1  0  0  0  0  0  0  0  0  0
    4.5384    0.0576    1.3169 C   0  0  0  0  0  0  0  0  0  0  0  0
    3.7935   -2.1629    0.0893 C   0  0  1  0  0  0  0  0  0  0  0  0
    3.4296   -2.0325   -1.4054 C   0  0  0  0  0  0  0  0  0  0  0  0
    4.5639   -2.7329   -2.1488 C   0  0  0  0  0  0  0  0  0  0  0  0
    5.7012   -2.6448   -1.1525 C   0  0  0  0  0  0  0  0  0  0  0  0
    6.8814   -2.8144   -1.4464 O   0  0  0  0  0  0  0  0  0  0  0  0
    5.2102   -2.3362    0.0541 O   0  0  0  0  0  0  0  0  0  0  0  0
    3.1307   -3.4023    0.7628 C   0  0  1  0  0  0  0  0  0  0  0  0
    3.6595   -4.7919    0.3744 C   0  0  0  0  0  0  0  0  0  0  0  0
   -2.8446   -5.0345    7.3431 H   0  0  0  0  0  0  0  0  0  0  0  0
   -1.2450   -5.5296    7.8662 H   0  0  0  0  0  0  0  0  0  0  0  0
   -1.6041   -5.3222    6.1396 H   0  0  0  0  0  0  0  0  0  0  0  0
   -0.4901   -1.1581    7.2836 H   0  0  0  0  0  0  0  0  0  0  0  0
    3.1131   -0.6803    7.4344 H   0  0  0  0  0  0  0  0  0  0  0  0
    4.4649   -2.8700    5.0724 H   0  0  0  0  0  0  0  0  0  0  0  0
    4.3557   -2.1626    6.6617 H   0  0  0  0  0  0  0  0  0  0  0  0
    4.2108   -1.1491    5.2399 H   0  0  0  0  0  0  0  0  0  0  0  0
    2.9121   -4.5281    5.9439 H   0  0  0  0  0  0  0  0  0  0  0  0
    2.5980   -3.6684    7.4065 H   0  0  0  0  0  0  0  0  0  0  0  0
    0.8246   -5.1339    7.0828 H   0  0  0  0  0  0  0  0  0  0  0  0
    0.5317   -4.6119    5.4092 H   0  0  0  0  0  0  0  0  0  0  0  0
    0.7942   -2.5783    4.2129 H   0  0  0  0  0  0  0  0  0  0  0  0
    2.8518   -4.5140    3.8249 H   0  0  0  0  0  0  0  0  0  0  0  0
    1.4950   -4.1354    2.7989 H   0  0  0  0  0  0  0  0  0  0  0  0
    4.3396   -3.1792    2.5526 H   0  0  0  0  0  0  0  0  0  0  0  0
    1.8776    0.8357    3.0104 H   0  0  0  0  0  0  0  0  0  0  0  0
    0.1536    0.9949    7.3798 H   0  0  0  0  0  0  0  0  0  0  0  0
    1.8443    1.3467    7.5525 H   0  0  0  0  0  0  0  0  0  0  0  0
    0.3177    3.2374    6.9750 H   0  0  0  0  0  0  0  0  0  0  0  0
    1.8541    4.4310    5.5594 H   0  0  0  0  0  0  0  0  0  0  0  0
    2.5323    2.9463    4.9048 H   0  0  0  0  0  0  0  0  0  0  0  0
    2.7936    3.3713    6.5959 H   0  0  0  0  0  0  0  0  0  0  0  0
   -0.8450    4.6420    5.3109 H   0  0  0  0  0  0  0  0  0  0  0  0
   -2.4698    4.5917    3.4043 H   0  0  0  0  0  0  0  0  0  0  0  0
   -2.7588    2.5345    2.0807 H   0  0  0  0  0  0  0  0  0  0  0  0
   -1.4148    0.5238    2.5866 H   0  0  0  0  0  0  0  0  0  0  0  0
   -0.1821   -0.6970    4.4146 H   0  0  0  0  0  0  0  0  0  0  0  0
    2.5585   -0.4143    0.6168 H   0  0  0  0  0  0  0  0  0  0  0  0
    4.1741    0.8486    1.9696 H   0  0  0  0  0  0  0  0  0  0  0  0
    4.9026    0.5226    0.4076 H   0  0  0  0  0  0  0  0  0  0  0  0
    5.3801   -0.4226    1.8137 H   0  0  0  0  0  0  0  0  0  0  0  0
    2.4656   -2.4920   -1.6320 H   0  0  0  0  0  0  0  0  0  0  0  0
    3.3667   -0.9895   -1.7229 H   0  0  0  0  0  0  0  0  0  0  0  0
    4.3369   -3.7824   -2.3313 H   0  0  0  0  0  0  0  0  0  0  0  0
    4.8067   -2.2652   -3.1020 H   0  0  0  0  0  0  0  0  0  0  0  0
    2.0657   -3.3747    0.5328 H   0  0  0  0  0  0  0  0  0  0  0  0
    4.7165   -4.9103    0.6110 H   0  0  0  0  0  0  0  0  0  0  0  0
    3.5310   -4.9740   -0.6894 H   0  0  0  0  0  0  0  0  0  0  0  0
    3.1167   -5.5795    0.8956 H   0  0  0  0  0  0  0  0  0  0  0  0
  1  2  1  0
  1 39  1  0
  1 40  1  0
  1 41  1  0
  2  3  1  0
  3 10  1  0
  3  4  2  0
  4  5  1  0
  4 42  1  0
  5 18  1  0
  5  6  1  1
  5  7  1  0
  6 43  1  0
  7  8  1  6
  7  9  1  0
  7 11  1  0
  8 44  1  0
  8 45  1  0
  8 46  1  0
  9 10  1  0
  9 47  1  0
  9 48  1  0
 10 49  1  0
 10 50  1  0
 11 15  1  0
 11 12  1  0
 11 51  1  1
 12 13  1  0
 12 52  1  0
 12 53  1  0
 13 37  1  0
 13 14  1  0
 13 54  1  1
 14 15  2  0
 14 29  1  0
 15 16  1  0
 16 28  1  0
 16 17  1  0
 16 55  1  6
 18 17  1  6
 18 28  1  0
 18 19  1  0
 19 20  1  0
 19 56  1  0
 19 57  1  0
 20 21  1  0
 20 22  1  0
 20 58  1  1
 21 59  1  0
 21 60  1  0
 21 61  1  0
 22 27  2  0
 22 23  1  0
 23 24  2  0
 23 62  1  0
 24 25  1  0
 24 63  1  0
 25 26  2  0
 25 64  1  0
 26 27  1  0
 26 65  1  0
 27 28  1  0
 28 66  1  6
 29 30  1  0
 29 31  1  0
 29 67  1  6
 30 68  1  0
 30 69  1  0
 30 70  1  0
 31 36  1  6
 31 32  1  0
 31 37  1  0
 32 33  1  0
 32 71  1  0
 32 72  1  0
 33 34  1  0
 33 73  1  0
 33 74  1  0
 34 35  2  0
 34 36  1  0
 37 38  1  0
 37 75  1  6
 38 76  1  0
 38 77  1  0
 38 78  1  0
M  END
>  <i_m_ct_stereo_status>  (170) 
1

>  <s_m_source_file>  (170) 
/var/tmp/pbs.5076255.sched01/tmpc2azvghe/701e6xuegj.sdf

>  <i_m_source_file_index>  (170) 
7

>  <i_lp_mmshare_version>  (170) 
48012

>  <i_f3d_flags>  (170) 
0

>  <s_epik_input>  (170) 
Tz1DKE8xKVtDSDJdW0NIMl1bQ0BAXTEoW0NAQEhdMltDSDNdKVtDQEBIXShbQ0gzXSlbQ0BIXShbQ0gyXTMpQzI9QyhbQ0BASF0zW0NAQF0oW0NIM10pKFtDQF00KFtDQF01NjcpW09IXSlbQ0gyXVtDSDJdQyg9W0NIXTQpT1tDSDNdKVtDQEhdKE81KVtDQEBIXTdjOGMoW0NAQEhdKFtDSDJdNilbQ0gzXSlbY0hdW2NIXVtjSF1bY0hdOA==

>  <s_epik_cmdline>  (170) 
J2VwaWtfcHl0aG9uJywgJy1waHQnLCAnMi4wJywgJy1waCcsICc3LjAnLCAnLXRuJywgJzgnLCAnLW1hJywgJzIwMCcsICctaW1hZScsICc8aW5maWxlLm1hZT4nLCAnLW9tYWUnLCAnPG91dGZpbGUubWFlPic=

>  <r_lp_tautomer_probability>  (170) 
1

>  <r_epik_Ionization_Penalty>  (170) 
1.78438e-07

>  <r_epik_Ionization_Penalty_Charging>  (170) 
0

>  <r_epik_Ionization_Penalty_Neutral>  (170) 
1.78438e-07

>  <r_epik_State_Penalty>  (170) 
-0

>  <r_epik_Charging_Adjusted_Penalty>  (170) 
0

>  <i_epik_Tot_Q>  (170) 
0

>  <i_epik_Tot_abs_Q>  (170) 
0

>  <s_epik_Chemistry_Notes>  (170) 
This compound has an ester and may undergo hydrolysis at high or low pH.

>  <s_lp_Force_Field>  (170) 
OPLS3e

>  <r_lp_Energy>  (170) 
55.2693

>  <b_lp_Chiralities_Consistent>  (170) 
1

>  <s_lp_Variant>  (170) 
63:0-1

>  <s_i_glide_gridfile>  (170) 
pfpi4k_grid

>  <i_i_glide_lignum>  (170) 
7

>  <i_i_glide_rotatable_bonds>  (170) 
2

>  <r_i_docking_score>  (170) 
-1.92938

>  <r_i_glide_ligand_efficiency>  (170) 
-0.0507732

>  <r_i_glide_ligand_efficiency_sa>  (170) 
-0.170698

>  <r_i_glide_ligand_efficiency_ln>  (170) 
-0.416031

>  <r_i_glide_gscore>  (170) 
-1.92938

>  <r_i_glide_lipo>  (170) 
-0.151549

>  <r_i_glide_hbond>  (170) 
-0.0246465

>  <r_i_glide_metal>  (170) 
-0

>  <r_i_glide_rewards>  (170) 
0

>  <r_i_glide_evdw>  (170) 
-28.5693

>  <r_i_glide_ecoul>  (170) 
-2.09682

>  <r_i_glide_erotb>  (170) 
0

>  <r_i_glide_esite>  (170) 
-0.0101973

>  <r_i_glide_emodel>  (170) 
-31.7804

>  <r_i_glide_energy>  (170) 
-30.6661

>  <r_i_glide_einternal>  (170) 
3.98451

>  <r_i_glide_intrahb_reward>  (170) 
-0

>  <i_i_glide_confnum>  (170) 
2

>  <i_i_glide_posenum>  (170) 
25

>  <r_i_glide_eff_state_penalty>  (170) 
0

>  <ligand_id>  (170) 
63

>  <original_smiles>  (170) 
COC1=CC2(O)C(C)(CC1)C1CC3C(=C1C1OC24CC(C)c2ccccc2C14)C(C)C1(CCC(=O)O1)C3C

>  <smiles>  (170) 
[H]OC12C([H])=C(OC([H])([H])[H])C([H])([H])C([H])([H])C1(C([H])([H])[H])C1([H])C(=C3C([H])(C1([H])[H])C([H])(C([H])([H])[H])C1(OC(=O)C([H])([H])C1([H])[H])C3([H])C([H])([H])[H])C1([H])OC23C([H])([H])C([H])(C([H])([H])[H])c2c([H])c([H])c([H])c([H])c2C13[H]

$$$$
63:0:1
     RDKit          3D

 78 85  0  0  1  0  0  0  0  0999 V2000
   -0.0904   -1.2876    9.7109 C   0  0  0  0  0  0  0  0  0  0  0  0
    0.4660   -2.2684    8.8425 O   0  0  0  0  0  0  0  0  0  0  0  0
    1.4752   -1.8471    8.0076 C   0  0  0  0  0  0  0  0  0  0  0  0
    1.7104   -0.5625    7.6535 C   0  0  0  0  0  0  0  0  0  0  0  0
    2.8670   -0.0830    6.7821 C   0  0  1  0  0  0  0  0  0  0  0  0
    3.7826    0.4968    7.6852 O   0  0  0  0  0  0  0  0  0  0  0  0
    3.6127   -1.3117    6.0866 C   0  0  1  0  0  0  0  0  0  0  0  0
    5.0683   -0.9585    5.6608 C   0  0  0  0  0  0  0  0  0  0  0  0
    3.7491   -2.4613    7.1379 C   0  0  0  0  0  0  0  0  0  0  0  0
    2.3912   -2.9906    7.6248 C   0  0  0  0  0  0  0  0  0  0  0  0
    2.8094   -1.8281    4.8462 C   0  0  2  0  0  0  0  0  0  0  0  0
    3.2288   -3.1831    4.1887 C   0  0  0  0  0  0  0  0  0  0  0  0
    3.8404   -2.8170    2.8293 C   0  0  2  0  0  0  0  0  0  0  0  0
    3.3557   -1.4396    2.6007 C   0  0  0  0  0  0  0  0  0  0  0  0
    2.8272   -0.8562    3.6839 C   0  0  0  0  0  0  0  0  0  0  0  0
    2.3425    0.5663    3.8699 C   0  0  2  0  0  0  0  0  0  0  0  0
    3.2349    1.2988    4.7506 O   0  0  0  0  0  0  0  0  0  0  0  0
    2.3200    1.0826    5.8542 C   0  0  2  0  0  0  0  0  0  0  0  0
    2.1191    2.4252    6.6015 C   0  0  0  0  0  0  0  0  0  0  0  0
    1.5533    3.5791    5.7432 C   0  0  1  0  0  0  0  0  0  0  0  0
    2.6283    4.2709    4.8843 C   0  0  0  0  0  0  0  0  0  0  0  0
    0.3420    3.1692    4.9075 C   0  0  0  0  0  0  0  0  0  0  0  0
   -0.6005    4.1470    4.5232 C   0  0  0  0  0  0  0  0  0  0  0  0
   -1.7068    3.7944    3.7271 C   0  0  0  0  0  0  0  0  0  0  0  0
   -1.8808    2.4591    3.3283 C   0  0  0  0  0  0  0  0  0  0  0  0
   -0.9544    1.4792    3.7181 C   0  0  0  0  0  0  0  0  0  0  0  0
    0.1629    1.8237    4.5045 C   0  0  0  0  0  0  0  0  0  0  0  0
    1.1915    0.7598    4.8520 C   0  0  1  0  0  0  0  0  0  0  0  0
    3.4470   -1.0771    1.1424 C   0  0  1  0  0  0  0  0  0  0  0  0
    4.4829    0.0174    0.8908 C   0  0  0  0  0  0  0  0  0  0  0  0
    3.7561   -2.4621    0.4643 C   0  0  1  0  0  0  0  0  0  0  0  0
    3.0824   -2.7364   -0.8960 C   0  0  0  0  0  0  0  0  0  0  0  0
    4.1154   -3.5318   -1.6849 C   0  0  0  0  0  0  0  0  0  0  0  0
    5.4115   -3.1127   -1.0328 C   0  0  0  0  0  0  0  0  0  0  0  0
    6.5202   -3.2852   -1.5362 O   0  0  0  0  0  0  0  0  0  0  0  0
    5.1473   -2.5492    0.1495 O   0  0  0  0  0  0  0  0  0  0  0  0
    3.3998   -3.5210    1.5506 C   0  0  1  0  0  0  0  0  0  0  0  0
    4.0008   -4.9267    1.3935 C   0  0  0  0  0  0  0  0  0  0  0  0
   -0.8195   -1.7455   10.3857 H   0  0  0  0  0  0  0  0  0  0  0  0
   -0.5861   -0.4876    9.1587 H   0  0  0  0  0  0  0  0  0  0  0  0
    0.7032   -0.8564   10.3231 H   0  0  0  0  0  0  0  0  0  0  0  0
    1.0597    0.2359    7.9712 H   0  0  0  0  0  0  0  0  0  0  0  0
    4.4727    0.8844    7.1676 H   0  0  0  0  0  0  0  0  0  0  0  0
    5.5445   -1.8037    5.1670 H   0  0  0  0  0  0  0  0  0  0  0  0
    5.6915   -0.7100    6.5193 H   0  0  0  0  0  0  0  0  0  0  0  0
    5.1303   -0.1189    4.9724 H   0  0  0  0  0  0  0  0  0  0  0  0
    4.3723   -3.2787    6.7699 H   0  0  0  0  0  0  0  0  0  0  0  0
    4.2890   -2.0770    8.0070 H   0  0  0  0  0  0  0  0  0  0  0  0
    2.5410   -3.6298    8.4979 H   0  0  0  0  0  0  0  0  0  0  0  0
    1.9177   -3.5978    6.8507 H   0  0  0  0  0  0  0  0  0  0  0  0
    1.7703   -1.9531    5.1405 H   0  0  0  0  0  0  0  0  0  0  0  0
    3.9152   -3.8012    4.7690 H   0  0  0  0  0  0  0  0  0  0  0  0
    2.3368   -3.7888    4.0290 H   0  0  0  0  0  0  0  0  0  0  0  0
    4.9339   -2.7647    2.8958 H   0  0  0  0  0  0  0  0  0  0  0  0
    2.1726    1.0855    2.9288 H   0  0  0  0  0  0  0  0  0  0  0  0
    1.3995    2.2803    7.4053 H   0  0  0  0  0  0  0  0  0  0  0  0
    3.0336    2.7597    7.0902 H   0  0  0  0  0  0  0  0  0  0  0  0
    1.2027    4.3316    6.4481 H   0  0  0  0  0  0  0  0  0  0  0  0
    2.2537    5.2068    4.4684 H   0  0  0  0  0  0  0  0  0  0  0  0
    2.9529    3.6470    4.0519 H   0  0  0  0  0  0  0  0  0  0  0  0
    3.5080    4.5151    5.4826 H   0  0  0  0  0  0  0  0  0  0  0  0
   -0.4372    5.1795    4.8069 H   0  0  0  0  0  0  0  0  0  0  0  0
   -2.4062    4.5466    3.3964 H   0  0  0  0  0  0  0  0  0  0  0  0
   -2.7159    2.1944    2.6890 H   0  0  0  0  0  0  0  0  0  0  0  0
   -1.0917    0.4586    3.3846 H   0  0  0  0  0  0  0  0  0  0  0  0
    0.6502   -0.1520    5.1000 H   0  0  0  0  0  0  0  0  0  0  0  0
    2.4600   -0.7161    0.8500 H   0  0  0  0  0  0  0  0  0  0  0  0
    4.1710    0.9420    1.3738 H   0  0  0  0  0  0  0  0  0  0  0  0
    4.5819    0.1717   -0.1771 H   0  0  0  0  0  0  0  0  0  0  0  0
    5.4597   -0.2532    1.2852 H   0  0  0  0  0  0  0  0  0  0  0  0
    2.1493   -3.2886   -0.7820 H   0  0  0  0  0  0  0  0  0  0  0  0
    2.8414   -1.8181   -1.4377 H   0  0  0  0  0  0  0  0  0  0  0  0
    3.9991   -4.6006   -1.5240 H   0  0  0  0  0  0  0  0  0  0  0  0
    4.0845   -3.3362   -2.7563 H   0  0  0  0  0  0  0  0  0  0  0  0
    2.3132   -3.6207    1.5838 H   0  0  0  0  0  0  0  0  0  0  0  0
    5.0909   -4.9114    1.3950 H   0  0  0  0  0  0  0  0  0  0  0  0
    3.6717   -5.3934    0.4688 H   0  0  0  0  0  0  0  0  0  0  0  0
    3.6811   -5.5802    2.2039 H   0  0  0  0  0  0  0  0  0  0  0  0
  1  2  1  0
  1 39  1  0
  1 40  1  0
  1 41  1  0
  2  3  1  0
  3 10  1  0
  3  4  2  0
  4  5  1  0
  4 42  1  0
  5 18  1  0
  5  6  1  1
  5  7  1  0
  6 43  1  0
  7  8  1  6
  7  9  1  0
  7 11  1  0
  8 44  1  0
  8 45  1  0
  8 46  1  0
  9 10  1  0
  9 47  1  0
  9 48  1  0
 10 49  1  0
 10 50  1  0
 11 15  1  0
 11 12  1  0
 11 51  1  1
 12 13  1  0
 12 52  1  0
 12 53  1  0
 13 37  1  0
 13 14  1  0
 13 54  1  1
 14 15  2  0
 14 29  1  0
 15 16  1  0
 16 28  1  0
 16 17  1  0
 16 55  1  6
 18 17  1  6
 18 28  1  0
 18 19  1  0
 19 20  1  0
 19 56  1  0
 19 57  1  0
 20 21  1  0
 20 22  1  0
 20 58  1  1
 21 59  1  0
 21 60  1  0
 21 61  1  0
 22 27  2  0
 22 23  1  0
 23 24  2  0
 23 62  1  0
 24 25  1  0
 24 63  1  0
 25 26  2  0
 25 64  1  0
 26 27  1  0
 26 65  1  0
 27 28  1  0
 28 66  1  1
 29 30  1  0
 29 31  1  0
 29 67  1  6
 30 68  1  0
 30 69  1  0
 30 70  1  0
 31 36  1  6
 31 32  1  0
 31 37  1  0
 32 33  1  0
 32 71  1  0
 32 72  1  0
 33 34  1  0
 33 73  1  0
 33 74  1  0
 34 35  2  0
 34 36  1  0
 37 38  1  0
 37 75  1  1
 38 76  1  0
 38 77  1  0
 38 78  1  0
M  END
>  <i_m_ct_stereo_status>  (171) 
1

>  <s_m_source_file>  (171) 
/var/tmp/pbs.5076255.sched01/tmpc2azvghe/701e6xuegj.sdf

>  <i_m_source_file_index>  (171) 
7

>  <i_lp_mmshare_version>  (171) 
48012

>  <i_f3d_flags>  (171) 
0

>  <s_epik_input>  (171) 
Tz1DKE8xKVtDSDJdW0NIMl1bQ0BAXTEoW0NAQEhdMltDSDNdKVtDQEBIXShbQ0gzXSlbQ0BIXShbQ0gyXTMpQzI9QyhbQ0BASF0zW0NAQF0oW0NIM10pKFtDQF00KFtDQF01NjcpW09IXSlbQ0gyXVtDSDJdQyg9W0NIXTQpT1tDSDNdKVtDQEhdKE81KVtDQEBIXTdjOGMoW0NAQEhdKFtDSDJdNilbQ0gzXSlbY0hdW2NIXVtjSF1bY0hdOA==

>  <s_epik_cmdline>  (171) 
J2VwaWtfcHl0aG9uJywgJy1waHQnLCAnMi4wJywgJy1waCcsICc3LjAnLCAnLXRuJywgJzgnLCAnLW1hJywgJzIwMCcsICctaW1hZScsICc8aW5maWxlLm1hZT4nLCAnLW9tYWUnLCAnPG91dGZpbGUubWFlPic=

>  <r_lp_tautomer_probability>  (171) 
1

>  <r_epik_Ionization_Penalty>  (171) 
1.78438e-07

>  <r_epik_Ionization_Penalty_Charging>  (171) 
0

>  <r_epik_Ionization_Penalty_Neutral>  (171) 
1.78438e-07

>  <r_epik_State_Penalty>  (171) 
-0

>  <r_epik_Charging_Adjusted_Penalty>  (171) 
0

>  <i_epik_Tot_Q>  (171) 
0

>  <i_epik_Tot_abs_Q>  (171) 
0

>  <s_epik_Chemistry_Notes>  (171) 
This compound has an ester and may undergo hydrolysis at high or low pH.

>  <s_lp_Force_Field>  (171) 
OPLS3e

>  <r_lp_Energy>  (171) 
55.2693

>  <b_lp_Chiralities_Consistent>  (171) 
1

>  <s_lp_Variant>  (171) 
63:0-1

>  <s_i_glide_gridfile>  (171) 
pfpi4k_grid

>  <i_i_glide_lignum>  (171) 
7

>  <i_i_glide_rotatable_bonds>  (171) 
2

>  <r_i_docking_score>  (171) 
-1.68077

>  <r_i_glide_ligand_efficiency>  (171) 
-0.0442308

>  <r_i_glide_ligand_efficiency_sa>  (171) 
-0.148703

>  <r_i_glide_ligand_efficiency_ln>  (171) 
-0.362424

>  <r_i_glide_gscore>  (171) 
-1.68077

>  <r_i_glide_lipo>  (171) 
-0.130788

>  <r_i_glide_hbond>  (171) 
-0.0131333

>  <r_i_glide_metal>  (171) 
-0

>  <r_i_glide_rewards>  (171) 
-0.0652153

>  <r_i_glide_evdw>  (171) 
-24.4597

>  <r_i_glide_ecoul>  (171) 
-1.65768

>  <r_i_glide_erotb>  (171) 
0

>  <r_i_glide_esite>  (171) 
0

>  <r_i_glide_emodel>  (171) 
-28.0897

>  <r_i_glide_energy>  (171) 
-26.1174

>  <r_i_glide_einternal>  (171) 
1.00999

>  <r_i_glide_intrahb_reward>  (171) 
-0

>  <i_i_glide_confnum>  (171) 
2

>  <i_i_glide_posenum>  (171) 
1

>  <r_i_glide_eff_state_penalty>  (171) 
0

>  <ligand_id>  (171) 
63

>  <original_smiles>  (171) 
COC1=CC2(O)C(C)(CC1)C1CC3C(=C1C1OC24CC(C)c2ccccc2C14)C(C)C1(CCC(=O)O1)C3C

>  <smiles>  (171) 
[H]OC12C([H])=C(OC([H])([H])[H])C([H])([H])C([H])([H])C1(C([H])([H])[H])C1([H])C(=C3C([H])(C1([H])[H])C([H])(C([H])([H])[H])C1(OC(=O)C([H])([H])C1([H])[H])C3([H])C([H])([H])[H])C1([H])OC23C([H])([H])C([H])(C([H])([H])[H])c2c([H])c([H])c([H])c([H])c2C13[H]

$$$$
63:0:2
     RDKit          3D

 78 85  0  0  1  0  0  0  0  0999 V2000
    0.0530    0.2877    9.8819 C   0  0  0  0  0  0  0  0  0  0  0  0
    0.8053   -0.8201    9.3905 O   0  0  0  0  0  0  0  0  0  0  0  0
    1.7921   -0.5379    8.4729 C   0  0  0  0  0  0  0  0  0  0  0  0
    1.9608    0.6460    7.8492 C   0  0  0  0  0  0  0  0  0  0  0  0
    3.0647    0.9772    6.8498 C   0  0  1  0  0  0  0  0  0  0  0  0
    3.9850    1.7712    7.5723 O   0  0  0  0  0  0  0  0  0  0  0  0
    3.8367   -0.3461    6.3932 C   0  0  1  0  0  0  0  0  0  0  0  0
    5.2560   -0.0342    5.8381 C   0  0  0  0  0  0  0  0  0  0  0  0
    4.0620   -1.2455    7.6539 C   0  0  0  0  0  0  0  0  0  0  0  0
    2.7467   -1.7069    8.3033 C   0  0  0  0  0  0  0  0  0  0  0  0
    3.0082   -1.1340    5.3204 C   0  0  2  0  0  0  0  0  0  0  0  0
    3.4644   -2.5790    4.9364 C   0  0  0  0  0  0  0  0  0  0  0  0
    4.0069   -2.4727    3.5034 C   0  0  2  0  0  0  0  0  0  0  0  0
    3.4503   -1.1909    3.0171 C   0  0  0  0  0  0  0  0  0  0  0  0
    2.9361   -0.4242    3.9844 C   0  0  0  0  0  0  0  0  0  0  0  0
    2.3898    0.9860    3.8987 C   0  0  2  0  0  0  0  0  0  0  0  0
    3.2807    1.9202    4.5558 O   0  0  0  0  0  0  0  0  0  0  0  0
    2.4250    1.9009    5.7286 C   0  0  2  0  0  0  0  0  0  0  0  0
    2.1895    3.3618    6.1976 C   0  0  0  0  0  0  0  0  0  0  0  0
    1.5388    4.2907    5.1490 C   0  0  1  0  0  0  0  0  0  0  0  0
    2.5465    4.8292    4.1156 C   0  0  0  0  0  0  0  0  0  0  0  0
    0.3180    3.6700    4.4791 C   0  0  0  0  0  0  0  0  0  0  0  0
   -0.6822    4.5118    3.9455 C   0  0  0  0  0  0  0  0  0  0  0  0
   -1.8001    3.9637    3.2930 C   0  0  0  0  0  0  0  0  0  0  0  0
   -1.9377    2.5695    3.1864 C   0  0  0  0  0  0  0  0  0  0  0  0
   -0.9484    1.7260    3.7245 C   0  0  0  0  0  0  0  0  0  0  0  0
    0.1811    2.2643    4.3697 C   0  0  0  0  0  0  0  0  0  0  0  0
    1.2719    1.3330    4.8765 C   0  0  1  0  0  0  0  0  0  0  0  0
    3.4681   -1.1293    1.5077 C   0  0  1  0  0  0  0  0  0  0  0  0
    4.4399   -0.0515    0.9850 C   0  0  0  0  0  0  0  0  0  0  0  0
    3.8136   -2.6179    1.1229 C   0  0  1  0  0  0  0  0  0  0  0  0
    3.1066   -3.2017   -0.1156 C   0  0  0  0  0  0  0  0  0  0  0  0
    4.1460   -4.1080   -0.7708 C   0  0  0  0  0  0  0  0  0  0  0  0
    5.4437   -3.5182   -0.2555 C   0  0  0  0  0  0  0  0  0  0  0  0
    6.5505   -3.7721   -0.7238 O   0  0  0  0  0  0  0  0  0  0  0  0
    5.1911   -2.7139    0.7780 O   0  0  0  0  0  0  0  0  0  0  0  0
    3.5522   -3.4433    2.4205 C   0  0  1  0  0  0  0  0  0  0  0  0
    4.2090   -4.8283    2.5276 C   0  0  0  0  0  0  0  0  0  0  0  0
   -0.6129   -0.0200   10.6897 H   0  0  0  0  0  0  0  0  0  0  0  0
   -0.5551    0.7361    9.0931 H   0  0  0  0  0  0  0  0  0  0  0  0
    0.7258    1.0421   10.2953 H   0  0  0  0  0  0  0  0  0  0  0  0
    1.2758    1.4647    8.0192 H   0  0  0  0  0  0  0  0  0  0  0  0
    4.3517    1.2486    8.2700 H   0  0  0  0  0  0  0  0  0  0  0  0
    5.7575   -0.9413    5.5068 H   0  0  0  0  0  0  0  0  0  0  0  0
    5.8957    0.4186    6.5962 H   0  0  0  0  0  0  0  0  0  0  0  0
    5.2471    0.6503    4.9933 H   0  0  0  0  0  0  0  0  0  0  0  0
    4.7043   -2.0996    7.4326 H   0  0  0  0  0  0  0  0  0  0  0  0
    4.6231   -0.6791    8.4011 H   0  0  0  0  0  0  0  0  0  0  0  0
    2.9547   -2.1471    9.2808 H   0  0  0  0  0  0  0  0  0  0  0  0
    2.2742   -2.4807    7.6949 H   0  0  0  0  0  0  0  0  0  0  0  0
    1.9889   -1.2381    5.6862 H   0  0  0  0  0  0  0  0  0  0  0  0
    4.1962   -3.0377    5.5998 H   0  0  0  0  0  0  0  0  0  0  0  0
    2.5950   -3.2379    4.9478 H   0  0  0  0  0  0  0  0  0  0  0  0
    5.0995   -2.3731    3.5103 H   0  0  0  0  0  0  0  0  0  0  0  0
    2.1598    1.2886    2.8810 H   0  0  0  0  0  0  0  0  0  0  0  0
    1.5073    3.3596    7.0467 H   0  0  0  0  0  0  0  0  0  0  0  0
    3.1062    3.8239    6.5667 H   0  0  0  0  0  0  0  0  0  0  0  0
    1.1831    5.1604    5.6993 H   0  0  0  0  0  0  0  0  0  0  0  0
    2.1137    5.6447    3.5356 H   0  0  0  0  0  0  0  0  0  0  0  0
    2.8665    4.0600    3.4143 H   0  0  0  0  0  0  0  0  0  0  0  0
    3.4382    5.2237    4.6070 H   0  0  0  0  0  0  0  0  0  0  0  0
   -0.5479    5.5873    3.9863 H   0  0  0  0  0  0  0  0  0  0  0  0
   -2.5378    4.6069    2.8386 H   0  0  0  0  0  0  0  0  0  0  0  0
   -2.7785    2.1534    2.6491 H   0  0  0  0  0  0  0  0  0  0  0  0
   -1.0453    0.6551    3.6060 H   0  0  0  0  0  0  0  0  0  0  0  0
    0.7836    0.4745    5.3358 H   0  0  0  0  0  0  0  0  0  0  0  0
    2.4548   -0.8868    1.1869 H   0  0  0  0  0  0  0  0  0  0  0  0
    4.1193    0.9381    1.2901 H   0  0  0  0  0  0  0  0  0  0  0  0
    4.4993   -0.0656   -0.1021 H   0  0  0  0  0  0  0  0  0  0  0  0
    5.4413   -0.2122    1.3818 H   0  0  0  0  0  0  0  0  0  0  0  0
    2.2133   -3.7590    0.1623 H   0  0  0  0  0  0  0  0  0  0  0  0
    2.7943   -2.4240   -0.8168 H   0  0  0  0  0  0  0  0  0  0  0  0
    4.0608   -5.1353   -0.4182 H   0  0  0  0  0  0  0  0  0  0  0  0
    4.0758   -4.1225   -1.8601 H   0  0  0  0  0  0  0  0  0  0  0  0
    2.4740   -3.5768    2.5250 H   0  0  0  0  0  0  0  0  0  0  0  0
    5.2969   -4.7768    2.4776 H   0  0  0  0  0  0  0  0  0  0  0  0
    3.8683   -5.4905    1.7358 H   0  0  0  0  0  0  0  0  0  0  0  0
    3.9493   -5.3138    3.4689 H   0  0  0  0  0  0  0  0  0  0  0  0
  1  2  1  0
  1 39  1  0
  1 40  1  0
  1 41  1  0
  2  3  1  0
  3 10  1  0
  3  4  2  0
  4  5  1  0
  4 42  1  0
  5 18  1  0
  5  6  1  1
  5  7  1  0
  6 43  1  0
  7  8  1  6
  7  9  1  0
  7 11  1  0
  8 44  1  0
  8 45  1  0
  8 46  1  0
  9 10  1  0
  9 47  1  0
  9 48  1  0
 10 49  1  0
 10 50  1  0
 11 15  1  0
 11 12  1  0
 11 51  1  1
 12 13  1  0
 12 52  1  0
 12 53  1  0
 13 37  1  0
 13 14  1  0
 13 54  1  1
 14 15  2  0
 14 29  1  0
 15 16  1  0
 16 28  1  0
 16 17  1  0
 16 55  1  6
 18 17  1  6
 18 28  1  0
 18 19  1  0
 19 20  1  0
 19 56  1  0
 19 57  1  0
 20 21  1  0
 20 22  1  0
 20 58  1  1
 21 59  1  0
 21 60  1  0
 21 61  1  0
 22 27  2  0
 22 23  1  0
 23 24  2  0
 23 62  1  0
 24 25  1  0
 24 63  1  0
 25 26  2  0
 25 64  1  0
 26 27  1  0
 26 65  1  0
 27 28  1  0
 28 66  1  1
 29 30  1  0
 29 31  1  0
 29 67  1  6
 30 68  1  0
 30 69  1  0
 30 70  1  0
 31 36  1  6
 31 32  1  0
 31 37  1  0
 32 33  1  0
 32 71  1  0
 32 72  1  0
 33 34  1  0
 33 73  1  0
 33 74  1  0
 34 35  2  0
 34 36  1  0
 37 38  1  0
 37 75  1  1
 38 76  1  0
 38 77  1  0
 38 78  1  0
M  END
>  <i_m_ct_stereo_status>  (172) 
1

>  <s_m_source_file>  (172) 
/var/tmp/pbs.5076255.sched01/tmpc2azvghe/701e6xuegj.sdf

>  <i_m_source_file_index>  (172) 
7

>  <i_lp_mmshare_version>  (172) 
48012

>  <i_f3d_flags>  (172) 
0

>  <s_epik_input>  (172) 
Tz1DKE8xKVtDSDJdW0NIMl1bQ0BAXTEoW0NAQEhdMltDSDNdKVtDQEBIXShbQ0gzXSlbQ0BIXShbQ0gyXTMpQzI9QyhbQ0BASF0zW0NAQF0oW0NIM10pKFtDQF00KFtDQF01NjcpW09IXSlbQ0gyXVtDSDJdQyg9W0NIXTQpT1tDSDNdKVtDQEhdKE81KVtDQEBIXTdjOGMoW0NAQEhdKFtDSDJdNilbQ0gzXSlbY0hdW2NIXVtjSF1bY0hdOA==

>  <s_epik_cmdline>  (172) 
J2VwaWtfcHl0aG9uJywgJy1waHQnLCAnMi4wJywgJy1waCcsICc3LjAnLCAnLXRuJywgJzgnLCAnLW1hJywgJzIwMCcsICctaW1hZScsICc8aW5maWxlLm1hZT4nLCAnLW9tYWUnLCAnPG91dGZpbGUubWFlPic=

>  <r_lp_tautomer_probability>  (172) 
1

>  <r_epik_Ionization_Penalty>  (172) 
1.78438e-07

>  <r_epik_Ionization_Penalty_Charging>  (172) 
0

>  <r_epik_Ionization_Penalty_Neutral>  (172) 
1.78438e-07

>  <r_epik_State_Penalty>  (172) 
-0

>  <r_epik_Charging_Adjusted_Penalty>  (172) 
0

>  <i_epik_Tot_Q>  (172) 
0

>  <i_epik_Tot_abs_Q>  (172) 
0

>  <s_epik_Chemistry_Notes>  (172) 
This compound has an ester and may undergo hydrolysis at high or low pH.

>  <s_lp_Force_Field>  (172) 
OPLS3e

>  <r_lp_Energy>  (172) 
55.2693

>  <b_lp_Chiralities_Consistent>  (172) 
1

>  <s_lp_Variant>  (172) 
63:0-1

>  <s_i_glide_gridfile>  (172) 
pfpi4k_grid

>  <i_i_glide_lignum>  (172) 
7

>  <i_i_glide_rotatable_bonds>  (172) 
2

>  <r_i_docking_score>  (172) 
-1.60971

>  <r_i_glide_ligand_efficiency>  (172) 
-0.0423607

>  <r_i_glide_ligand_efficiency_sa>  (172) 
-0.142416

>  <r_i_glide_ligand_efficiency_ln>  (172) 
-0.3471

>  <r_i_glide_gscore>  (172) 
-1.60971

>  <r_i_glide_lipo>  (172) 
-0.122794

>  <r_i_glide_hbond>  (172) 
0

>  <r_i_glide_metal>  (172) 
-0

>  <r_i_glide_rewards>  (172) 
-0.0782535

>  <r_i_glide_evdw>  (172) 
-24.1878

>  <r_i_glide_ecoul>  (172) 
-1.32846

>  <r_i_glide_erotb>  (172) 
0

>  <r_i_glide_esite>  (172) 
0

>  <r_i_glide_emodel>  (172) 
-27.9339

>  <r_i_glide_energy>  (172) 
-25.5163

>  <r_i_glide_einternal>  (172) 
0.0727099

>  <r_i_glide_intrahb_reward>  (172) 
-0

>  <i_i_glide_confnum>  (172) 
4

>  <i_i_glide_posenum>  (172) 
21

>  <r_i_glide_eff_state_penalty>  (172) 
0

>  <ligand_id>  (172) 
63

>  <original_smiles>  (172) 
COC1=CC2(O)C(C)(CC1)C1CC3C(=C1C1OC24CC(C)c2ccccc2C14)C(C)C1(CCC(=O)O1)C3C

>  <smiles>  (172) 
[H]OC12C([H])=C(OC([H])([H])[H])C([H])([H])C([H])([H])C1(C([H])([H])[H])C1([H])C(=C3C([H])(C1([H])[H])C([H])(C([H])([H])[H])C1(OC(=O)C([H])([H])C1([H])[H])C3([H])C([H])([H])[H])C1([H])OC23C([H])([H])C([H])(C([H])([H])[H])c2c([H])c([H])c([H])c([H])c2C13[H]

$$$$
64:0:0
     RDKit          3D

 75 82  0  0  1  0  0  0  0  0999 V2000
    4.0795   -2.9851    8.4428 C   0  0  0  0  0  0  0  0  0  0  0  0
    4.1334   -4.0819    7.6836 C   0  0  0  0  0  0  0  0  0  0  0  0
    5.1826   -4.3562    6.6331 C   0  0  1  0  0  0  0  0  0  0  0  0
    6.3589   -3.3563    6.5552 C   0  0  0  0  0  0  0  0  0  0  0  0
    5.6261   -5.7721    7.0045 C   0  0  0  0  0  0  0  0  0  0  0  0
    4.3742   -6.4779    7.5708 C   0  0  2  0  0  0  0  0  0  0  0  0
    3.6520   -7.3464    6.5435 C   0  0  0  0  0  0  0  0  0  0  0  0
    2.1463   -7.0661    6.6975 C   0  0  1  0  0  0  0  0  0  0  0  0
    2.0464   -5.6156    7.2294 C   0  0  2  0  0  0  0  0  0  0  0  0
    3.3892   -5.3729    7.9950 C   0  0  2  0  0  0  0  0  0  0  0  0
    0.8167   -5.4061    8.1668 C   0  0  1  0  0  0  0  0  0  0  0  0
    0.6081   -6.4510    9.3024 C   0  0  0  0  0  0  0  0  0  0  0  0
   -0.1682   -7.5626    8.9362 O   0  0  0  0  0  0  0  0  0  0  0  0
    1.0065   -4.1773    8.8867 O   0  0  0  0  0  0  0  0  0  0  0  0
   -0.1892   -3.4471    8.9219 C   0  0  1  0  0  0  0  0  0  0  0  0
    0.0178   -2.1151    8.5886 O   0  0  0  0  0  0  0  0  0  0  0  0
    0.7248   -1.3797    9.5758 C   0  0  0  0  0  0  0  0  0  0  0  0
   -1.0412   -4.0776    7.8698 C   0  0  0  0  0  0  0  0  0  0  0  0
   -0.4531   -5.1650    7.4029 C   0  0  0  0  0  0  0  0  0  0  0  0
   -0.9172   -5.9299    6.2311 C   0  0  1  0  0  0  0  0  0  0  0  0
   -0.1758   -5.5620    5.0758 O   0  0  0  0  0  0  0  0  0  0  0  0
   -0.2050   -6.9639    5.3491 C   0  0  2  0  0  0  0  0  0  0  0  0
   -1.0990   -7.7366    4.3861 C   0  0  1  0  0  0  0  0  0  0  0  0
   -1.2829   -7.2275    2.9881 C   0  0  0  0  0  0  0  0  0  0  0  0
   -0.4857   -8.4788    3.1977 C   0  0  1  0  0  0  0  0  0  0  0  0
    1.0464   -8.6245    3.0770 C   0  0  1  0  0  0  0  0  0  0  0  0
    1.4036  -10.1364    3.1540 C   0  0  0  0  0  0  0  0  0  0  0  0
    1.6456   -8.1149    1.7262 C   0  0  1  0  0  0  0  0  0  0  0  0
    0.7391   -7.4453    0.8794 O   0  0  0  0  0  0  0  0  0  0  0  0
    2.8103   -7.1879    2.0831 C   0  0  0  0  0  0  0  0  0  0  0  0
    2.4385   -6.5842    3.4282 C   0  0  1  0  0  0  0  0  0  0  0  0
    1.6079   -5.4783    3.1502 O   0  0  0  0  0  0  0  0  0  0  0  0
    1.8290   -7.8161    4.1733 C   0  0  1  0  0  0  0  0  0  0  0  0
    1.1534   -7.6615    5.5954 C   0  0  1  0  0  0  0  0  0  0  0  0
    0.8142   -9.1063    6.1276 C   0  0  0  0  0  0  0  0  0  0  0  0
    3.4145   -2.9485    9.2939 H   0  0  0  0  0  0  0  0  0  0  0  0
    4.7436   -2.1495    8.2719 H   0  0  0  0  0  0  0  0  0  0  0  0
    4.6767   -4.3734    5.6689 H   0  0  0  0  0  0  0  0  0  0  0  0
    6.0407   -2.3459    6.2920 H   0  0  0  0  0  0  0  0  0  0  0  0
    7.0514   -3.6686    5.7762 H   0  0  0  0  0  0  0  0  0  0  0  0
    6.9454   -3.2887    7.4774 H   0  0  0  0  0  0  0  0  0  0  0  0
    6.0880   -6.2882    6.1669 H   0  0  0  0  0  0  0  0  0  0  0  0
    6.3831   -5.7196    7.7887 H   0  0  0  0  0  0  0  0  0  0  0  0
    4.6444   -7.0874    8.4390 H   0  0  0  0  0  0  0  0  0  0  0  0
    4.0277   -7.0895    5.5677 H   0  0  0  0  0  0  0  0  0  0  0  0
    3.8885   -8.3966    6.6944 H   0  0  0  0  0  0  0  0  0  0  0  0
    1.9682   -7.6654    7.5741 H   0  0  0  0  0  0  0  0  0  0  0  0
    2.0080   -4.9233    6.3879 H   0  0  0  0  0  0  0  0  0  0  0  0
    3.2497   -5.4225    9.0814 H   0  0  0  0  0  0  0  0  0  0  0  0
    1.5465   -6.7943    9.7254 H   0  0  0  0  0  0  0  0  0  0  0  0
    0.0328   -6.0119   10.1176 H   0  0  0  0  0  0  0  0  0  0  0  0
    0.2930   -8.0882    8.2873 H   0  0  0  0  0  0  0  0  0  0  0  0
   -0.6853   -3.5463    9.8922 H   0  0  0  0  0  0  0  0  0  0  0  0
    0.9503   -0.3831    9.1990 H   0  0  0  0  0  0  0  0  0  0  0  0
    1.6690   -1.8528    9.8333 H   0  0  0  0  0  0  0  0  0  0  0  0
    0.1364   -1.2815   10.4881 H   0  0  0  0  0  0  0  0  0  0  0  0
   -1.9510   -3.6469    7.4867 H   0  0  0  0  0  0  0  0  0  0  0  0
   -1.9899   -5.8304    6.1005 H   0  0  0  0  0  0  0  0  0  0  0  0
   -1.9651   -8.2408    4.8088 H   0  0  0  0  0  0  0  0  0  0  0  0
   -2.2652   -7.3743    2.5487 H   0  0  0  0  0  0  0  0  0  0  0  0
   -0.7417   -6.3383    2.6830 H   0  0  0  0  0  0  0  0  0  0  0  0
   -1.0137   -9.3755    2.8849 H   0  0  0  0  0  0  0  0  0  0  0  0
    2.4790  -10.2956    3.1166 H   0  0  0  0  0  0  0  0  0  0  0  0
    0.9708  -10.6776    2.3160 H   0  0  0  0  0  0  0  0  0  0  0  0
    1.0491  -10.6488    4.0418 H   0  0  0  0  0  0  0  0  0  0  0  0
    2.0238   -8.9402    1.1304 H   0  0  0  0  0  0  0  0  0  0  0  0
    0.2011   -8.1262    0.4802 H   0  0  0  0  0  0  0  0  0  0  0  0
    3.7073   -7.7964    2.2196 H   0  0  0  0  0  0  0  0  0  0  0  0
    3.0235   -6.4448    1.3122 H   0  0  0  0  0  0  0  0  0  0  0  0
    3.3134   -6.1732    3.9173 H   0  0  0  0  0  0  0  0  0  0  0  0
    1.3113   -5.1184    3.9737 H   0  0  0  0  0  0  0  0  0  0  0  0
    2.6934   -8.4511    4.3728 H   0  0  0  0  0  0  0  0  0  0  0  0
    0.0730   -9.6322    5.5277 H   0  0  0  0  0  0  0  0  0  0  0  0
    0.3481   -9.1131    7.1071 H   0  0  0  0  0  0  0  0  0  0  0  0
    1.7042   -9.7415    6.1946 H   0  0  0  0  0  0  0  0  0  0  0  0
  1  2  2  0
  1 36  1  0
  1 37  1  0
  2 10  1  0
  2  3  1  0
  3  4  1  0
  3  5  1  0
  3 38  1  6
  4 39  1  0
  4 40  1  0
  4 41  1  0
  5  6  1  0
  5 42  1  0
  5 43  1  0
  6 10  1  0
  6  7  1  0
  6 44  1  1
  7  8  1  0
  7 45  1  0
  7 46  1  0
  8 34  1  0
  8  9  1  0
  8 47  1  1
  9 10  1  0
  9 11  1  0
  9 48  1  6
 10 49  1  1
 11 19  1  0
 11 12  1  1
 11 14  1  0
 12 13  1  0
 12 50  1  0
 12 51  1  0
 13 52  1  0
 14 15  1  0
 15 16  1  0
 15 18  1  0
 15 53  1  1
 16 17  1  0
 17 54  1  0
 17 55  1  0
 17 56  1  0
 18 19  2  0
 18 57  1  0
 19 20  1  0
 20 22  1  0
 20 21  1  0
 20 58  1  6
 22 21  1  6
 22 34  1  0
 22 23  1  0
 23 25  1  0
 23 24  1  0
 23 59  1  1
 24 25  1  0
 24 60  1  0
 24 61  1  0
 25 26  1  0
 25 62  1  6
 26 33  1  0
 26 27  1  1
 26 28  1  0
 27 63  1  0
 27 64  1  0
 27 65  1  0
 28 29  1  0
 28 30  1  0
 28 66  1  6
 29 67  1  0
 30 31  1  0
 30 68  1  0
 30 69  1  0
 31 32  1  0
 31 33  1  0
 31 70  1  1
 32 71  1  0
 33 34  1  0
 33 72  1  1
 34 35  1  1
 35 73  1  0
 35 74  1  0
 35 75  1  0
M  END
>  <i_m_ct_stereo_status>  (173) 
1

>  <s_m_source_file>  (173) 
/var/tmp/pbs.5076255.sched01/tmpc2azvghe/701e6xuegj.sdf

>  <i_m_source_file_index>  (173) 
8

>  <i_lp_mmshare_version>  (173) 
48012

>  <i_f3d_flags>  (173) 
0

>  <s_epik_input>  (173) 
W0NIM11bQ0BASF0oW0NIMl0xKUMoPVtDSDJdKVtDQEBIXTJbQ0BIXTFbQ0gyXVtDQEBIXShbQ0BIXTJbQ0BdKFtDSDJdW09IXSkoQzNbQ0BASF0oTzQpW0NAXTQ1NilPW0NASF0oW0NIXT0zKU9bQ0gzXSlbQ0BdNihbQ0gzXSlbQ0BIXTdbQ0BAXShbQ0gzXSkoW0NASF04W0NAQEhdNVtDSDJdOClbQ0BASF0oW09IXSlbQ0gyXVtDQEhdN1tPSF0=

>  <s_epik_cmdline>  (173) 
J2VwaWtfcHl0aG9uJywgJy1waHQnLCAnMi4wJywgJy1waCcsICc3LjAnLCAnLXRuJywgJzgnLCAnLW1hJywgJzIwMCcsICctaW1hZScsICc8aW5maWxlLm1hZT4nLCAnLW9tYWUnLCAnPG91dGZpbGUubWFlPic=

>  <r_lp_tautomer_probability>  (173) 
1

>  <r_epik_Ionization_Penalty>  (173) 
1.38092e-06

>  <r_epik_Ionization_Penalty_Charging>  (173) 
0

>  <r_epik_Ionization_Penalty_Neutral>  (173) 
1.38092e-06

>  <r_epik_State_Penalty>  (173) 
-0

>  <r_epik_Charging_Adjusted_Penalty>  (173) 
0

>  <i_epik_Tot_Q>  (173) 
0

>  <i_epik_Tot_abs_Q>  (173) 
0

>  <s_epik_Chemistry_Notes>  (173) 
This compound contains an acetal/aminal-like group ( X-CH(R)-Y where X, Y are N, S, or O) that may be acid/base labile, releasing an aldehyde.

>  <s_lp_Force_Field>  (173) 
OPLS3e

>  <r_lp_Energy>  (173) 
81.939

>  <b_lp_Chiralities_Consistent>  (173) 
1

>  <s_lp_Variant>  (173) 
64:0-1

>  <s_i_glide_gridfile>  (173) 
pfpi4k_grid

>  <i_i_glide_lignum>  (173) 
8

>  <i_i_glide_rotatable_bonds>  (173) 
5

>  <r_i_docking_score>  (173) 
-3.34381

>  <r_i_glide_ligand_efficiency>  (173) 
-0.0955374

>  <r_i_glide_ligand_efficiency_sa>  (173) 
-0.312509

>  <r_i_glide_ligand_efficiency_ln>  (173) 
-0.73404

>  <r_i_glide_gscore>  (173) 
-3.34381

>  <r_i_glide_lipo>  (173) 
-0.201833

>  <r_i_glide_hbond>  (173) 
-0.426079

>  <r_i_glide_metal>  (173) 
-0

>  <r_i_glide_rewards>  (173) 
-0.604834

>  <r_i_glide_evdw>  (173) 
-18.0806

>  <r_i_glide_ecoul>  (173) 
-8.31367

>  <r_i_glide_erotb>  (173) 
0.0864737

>  <r_i_glide_esite>  (173) 
-0.0464551

>  <r_i_glide_emodel>  (173) 
-36.6049

>  <r_i_glide_energy>  (173) 
-26.3943

>  <r_i_glide_einternal>  (173) 
0.958336

>  <r_i_glide_intrahb_reward>  (173) 
-0.5

>  <i_i_glide_confnum>  (173) 
5

>  <i_i_glide_posenum>  (173) 
3

>  <r_i_glide_eff_state_penalty>  (173) 
0

>  <ligand_id>  (173) 
64

>  <original_smiles>  (173) 
C=C1C(C)CC2CC3C(C12)C1(CO)OC(OC)C=C1C1OC12C1CC1C1(C)C(O)CC(O)C1C32C

>  <smiles>  (173) 
[H]OC([H])([H])C12OC([H])(OC([H])([H])[H])C([H])=C1C1([H])OC13C1([H])C([H])([H])C1([H])C1(C([H])([H])[H])C([H])(O[H])C([H])([H])C([H])(O[H])C1([H])C3(C([H])([H])[H])C1([H])C([H])([H])C3([H])C([H])([H])C([H])(C([H])([H])[H])C(=C([H])[H])C3([H])C21[H]

$$$$
64:0:1
     RDKit          3D

 75 82  0  0  1  0  0  0  0  0999 V2000
    4.3572   -3.0662    8.4794 C   0  0  0  0  0  0  0  0  0  0  0  0
    4.3799   -4.1478    7.6810 C   0  0  0  0  0  0  0  0  0  0  0  0
    5.4190   -4.3989    6.6184 C   0  0  1  0  0  0  0  0  0  0  0  0
    6.6015   -3.4064    6.5411 C   0  0  0  0  0  0  0  0  0  0  0  0
    5.8643   -5.8239    6.9492 C   0  0  0  0  0  0  0  0  0  0  0  0
    4.6227   -6.5409    7.5209 C   0  0  2  0  0  0  0  0  0  0  0  0
    3.8683   -7.3786    6.4915 C   0  0  0  0  0  0  0  0  0  0  0  0
    2.3684   -7.0871    6.6800 C   0  0  1  0  0  0  0  0  0  0  0  0
    2.2852   -5.6516    7.2587 C   0  0  2  0  0  0  0  0  0  0  0  0
    3.6510   -5.4426    7.9927 C   0  0  2  0  0  0  0  0  0  0  0  0
    1.0641   -5.4645    8.2144 C   0  0  1  0  0  0  0  0  0  0  0  0
    0.8752   -6.5966    9.2729 C   0  0  0  0  0  0  0  0  0  0  0  0
   -0.1685   -6.3268   10.1820 O   0  0  0  0  0  0  0  0  0  0  0  0
    1.2791   -4.2567    8.9686 O   0  0  0  0  0  0  0  0  0  0  0  0
    0.0923   -3.4970    9.0124 C   0  0  1  0  0  0  0  0  0  0  0  0
    0.3025   -2.1623    8.7016 O   0  0  0  0  0  0  0  0  0  0  0  0
    1.0246   -1.4665    9.7027 C   0  0  0  0  0  0  0  0  0  0  0  0
   -0.7771   -4.1149    7.9606 C   0  0  0  0  0  0  0  0  0  0  0  0
   -0.2221   -5.2036    7.4783 C   0  0  0  0  0  0  0  0  0  0  0  0
   -0.6963   -5.9573    6.3035 C   0  0  1  0  0  0  0  0  0  0  0  0
    0.0284   -5.5569    5.1441 O   0  0  0  0  0  0  0  0  0  0  0  0
   -0.0052   -6.9648    5.3856 C   0  0  2  0  0  0  0  0  0  0  0  0
   -0.9172   -7.7103    4.4086 C   0  0  1  0  0  0  0  0  0  0  0  0
   -1.1211   -7.1646    3.0270 C   0  0  0  0  0  0  0  0  0  0  0  0
   -0.3263   -8.4287    3.1930 C   0  0  1  0  0  0  0  0  0  0  0  0
    1.2004   -8.5848    3.0482 C   0  0  1  0  0  0  0  0  0  0  0  0
    1.5512  -10.0967    3.0866 C   0  0  0  0  0  0  0  0  0  0  0  0
    1.7757   -8.0519    1.6953 C   0  0  1  0  0  0  0  0  0  0  0  0
    0.8410   -7.3776    0.8806 O   0  0  0  0  0  0  0  0  0  0  0  0
    2.9479   -7.1297    2.0486 C   0  0  0  0  0  0  0  0  0  0  0  0
    2.6063   -6.5592    3.4162 C   0  0  1  0  0  0  0  0  0  0  0  0
    1.7661   -5.4479    3.1816 O   0  0  0  0  0  0  0  0  0  0  0  0
    2.0063   -7.8042    4.1452 C   0  0  1  0  0  0  0  0  0  0  0  0
    1.3540   -7.6585    5.5860 C   0  0  1  0  0  0  0  0  0  0  0  0
    1.0039   -9.0838    6.1348 C   0  0  0  0  0  0  0  0  0  0  0  0
    3.7050   -3.0414    9.3384 H   0  0  0  0  0  0  0  0  0  0  0  0
    5.0206   -2.2255    8.3124 H   0  0  0  0  0  0  0  0  0  0  0  0
    4.8975   -4.3969    5.6658 H   0  0  0  0  0  0  0  0  0  0  0  0
    6.2801   -2.3933    6.3000 H   0  0  0  0  0  0  0  0  0  0  0  0
    7.2766   -3.7180    5.7480 H   0  0  0  0  0  0  0  0  0  0  0  0
    7.1977   -3.3606    7.4526 H   0  0  0  0  0  0  0  0  0  0  0  0
    6.3062   -6.3281    6.0909 H   0  0  0  0  0  0  0  0  0  0  0  0
    6.6337   -5.7961    7.7188 H   0  0  0  0  0  0  0  0  0  0  0  0
    4.8998   -7.1667    8.3700 H   0  0  0  0  0  0  0  0  0  0  0  0
    4.2309   -7.1050    5.5138 H   0  0  0  0  0  0  0  0  0  0  0  0
    4.1072   -8.4354    6.6157 H   0  0  0  0  0  0  0  0  0  0  0  0
    2.2292   -7.7144    7.5521 H   0  0  0  0  0  0  0  0  0  0  0  0
    2.2260   -4.9464    6.4225 H   0  0  0  0  0  0  0  0  0  0  0  0
    3.5280   -5.5120    9.0808 H   0  0  0  0  0  0  0  0  0  0  0  0
    0.5855   -7.5384    8.8142 H   0  0  0  0  0  0  0  0  0  0  0  0
    1.7969   -6.7754    9.8328 H   0  0  0  0  0  0  0  0  0  0  0  0
    0.1002   -5.5908   10.7091 H   0  0  0  0  0  0  0  0  0  0  0  0
   -0.3985   -3.6028    9.9836 H   0  0  0  0  0  0  0  0  0  0  0  0
    1.2521   -0.4614    9.3512 H   0  0  0  0  0  0  0  0  0  0  0  0
    1.9686   -1.9518    9.9354 H   0  0  0  0  0  0  0  0  0  0  0  0
    0.4510   -1.3910   10.6255 H   0  0  0  0  0  0  0  0  0  0  0  0
   -1.6981   -3.6746    7.6070 H   0  0  0  0  0  0  0  0  0  0  0  0
   -1.7635   -5.8207    6.1774 H   0  0  0  0  0  0  0  0  0  0  0  0
   -1.7766   -8.2198    4.8338 H   0  0  0  0  0  0  0  0  0  0  0  0
   -2.1167   -7.2901    2.6059 H   0  0  0  0  0  0  0  0  0  0  0  0
   -0.5853   -6.2698    2.7358 H   0  0  0  0  0  0  0  0  0  0  0  0
   -0.8650   -9.3156    2.8693 H   0  0  0  0  0  0  0  0  0  0  0  0
    2.6276  -10.2563    3.0234 H   0  0  0  0  0  0  0  0  0  0  0  0
    1.1070  -10.6247    2.2456 H   0  0  0  0  0  0  0  0  0  0  0  0
    1.2109  -10.6141    3.9773 H   0  0  0  0  0  0  0  0  0  0  0  0
    2.1490   -8.8658    1.0760 H   0  0  0  0  0  0  0  0  0  0  0  0
    0.2702   -8.0463    0.5208 H   0  0  0  0  0  0  0  0  0  0  0  0
    3.8483   -7.7373    2.1550 H   0  0  0  0  0  0  0  0  0  0  0  0
    3.1512   -6.3685    1.2923 H   0  0  0  0  0  0  0  0  0  0  0  0
    3.4888   -6.1537    3.8953 H   0  0  0  0  0  0  0  0  0  0  0  0
    1.4726   -5.1107    4.0152 H   0  0  0  0  0  0  0  0  0  0  0  0
    2.8743   -8.4429    4.3210 H   0  0  0  0  0  0  0  0  0  0  0  0
    0.2438   -9.6162    5.5639 H   0  0  0  0  0  0  0  0  0  0  0  0
    0.5702   -9.0346    7.1353 H   0  0  0  0  0  0  0  0  0  0  0  0
    1.8776   -9.7398    6.1926 H   0  0  0  0  0  0  0  0  0  0  0  0
  1  2  2  0
  1 36  1  0
  1 37  1  0
  2 10  1  0
  2  3  1  0
  3  4  1  0
  3  5  1  0
  3 38  1  6
  4 39  1  0
  4 40  1  0
  4 41  1  0
  5  6  1  0
  5 42  1  0
  5 43  1  0
  6 10  1  0
  6  7  1  0
  6 44  1  1
  7  8  1  0
  7 45  1  0
  7 46  1  0
  8 34  1  0
  8  9  1  0
  8 47  1  1
  9 10  1  0
  9 11  1  0
  9 48  1  6
 10 49  1  1
 11 19  1  0
 11 12  1  1
 11 14  1  0
 12 13  1  0
 12 50  1  0
 12 51  1  0
 13 52  1  0
 14 15  1  0
 15 16  1  0
 15 18  1  0
 15 53  1  1
 16 17  1  0
 17 54  1  0
 17 55  1  0
 17 56  1  0
 18 19  2  0
 18 57  1  0
 19 20  1  0
 20 22  1  0
 20 21  1  0
 20 58  1  6
 22 21  1  6
 22 34  1  0
 22 23  1  0
 23 25  1  0
 23 24  1  0
 23 59  1  1
 24 25  1  0
 24 60  1  0
 24 61  1  0
 25 26  1  0
 25 62  1  6
 26 33  1  0
 26 27  1  1
 26 28  1  0
 27 63  1  0
 27 64  1  0
 27 65  1  0
 28 29  1  0
 28 30  1  0
 28 66  1  6
 29 67  1  0
 30 31  1  0
 30 68  1  0
 30 69  1  0
 31 32  1  0
 31 33  1  0
 31 70  1  1
 32 71  1  0
 33 34  1  0
 33 72  1  1
 34 35  1  1
 35 73  1  0
 35 74  1  0
 35 75  1  0
M  END
>  <i_m_ct_stereo_status>  (174) 
1

>  <s_m_source_file>  (174) 
/var/tmp/pbs.5076255.sched01/tmpc2azvghe/701e6xuegj.sdf

>  <i_m_source_file_index>  (174) 
8

>  <i_lp_mmshare_version>  (174) 
48012

>  <i_f3d_flags>  (174) 
0

>  <s_epik_input>  (174) 
W0NIM11bQ0BASF0oW0NIMl0xKUMoPVtDSDJdKVtDQEBIXTJbQ0BIXTFbQ0gyXVtDQEBIXShbQ0BIXTJbQ0BdKFtDSDJdW09IXSkoQzNbQ0BASF0oTzQpW0NAXTQ1NilPW0NASF0oW0NIXT0zKU9bQ0gzXSlbQ0BdNihbQ0gzXSlbQ0BIXTdbQ0BAXShbQ0gzXSkoW0NASF04W0NAQEhdNVtDSDJdOClbQ0BASF0oW09IXSlbQ0gyXVtDQEhdN1tPSF0=

>  <s_epik_cmdline>  (174) 
J2VwaWtfcHl0aG9uJywgJy1waHQnLCAnMi4wJywgJy1waCcsICc3LjAnLCAnLXRuJywgJzgnLCAnLW1hJywgJzIwMCcsICctaW1hZScsICc8aW5maWxlLm1hZT4nLCAnLW9tYWUnLCAnPG91dGZpbGUubWFlPic=

>  <r_lp_tautomer_probability>  (174) 
1

>  <r_epik_Ionization_Penalty>  (174) 
1.38092e-06

>  <r_epik_Ionization_Penalty_Charging>  (174) 
0

>  <r_epik_Ionization_Penalty_Neutral>  (174) 
1.38092e-06

>  <r_epik_State_Penalty>  (174) 
-0

>  <r_epik_Charging_Adjusted_Penalty>  (174) 
0

>  <i_epik_Tot_Q>  (174) 
0

>  <i_epik_Tot_abs_Q>  (174) 
0

>  <s_epik_Chemistry_Notes>  (174) 
This compound contains an acetal/aminal-like group ( X-CH(R)-Y where X, Y are N, S, or O) that may be acid/base labile, releasing an aldehyde.

>  <s_lp_Force_Field>  (174) 
OPLS3e

>  <r_lp_Energy>  (174) 
81.939

>  <b_lp_Chiralities_Consistent>  (174) 
1

>  <s_lp_Variant>  (174) 
64:0-1

>  <s_i_glide_gridfile>  (174) 
pfpi4k_grid

>  <i_i_glide_lignum>  (174) 
8

>  <i_i_glide_rotatable_bonds>  (174) 
5

>  <r_i_docking_score>  (174) 
-2.86618

>  <r_i_glide_ligand_efficiency>  (174) 
-0.0818908

>  <r_i_glide_ligand_efficiency_sa>  (174) 
-0.26787

>  <r_i_glide_ligand_efficiency_ln>  (174) 
-0.62919

>  <r_i_glide_gscore>  (174) 
-2.86618

>  <r_i_glide_lipo>  (174) 
-0.168826

>  <r_i_glide_hbond>  (174) 
-0.0788024

>  <r_i_glide_metal>  (174) 
-0

>  <r_i_glide_rewards>  (174) 
-0.604834

>  <r_i_glide_evdw>  (174) 
-18.1984

>  <r_i_glide_ecoul>  (174) 
-7.74831

>  <r_i_glide_erotb>  (174) 
0.0864737

>  <r_i_glide_esite>  (174) 
-0.028025

>  <r_i_glide_emodel>  (174) 
-34.2688

>  <r_i_glide_energy>  (174) 
-25.9467

>  <r_i_glide_einternal>  (174) 
2.94307

>  <r_i_glide_intrahb_reward>  (174) 
-0.5

>  <i_i_glide_confnum>  (174) 
5

>  <i_i_glide_posenum>  (174) 
2

>  <r_i_glide_eff_state_penalty>  (174) 
0

>  <ligand_id>  (174) 
64

>  <original_smiles>  (174) 
C=C1C(C)CC2CC3C(C12)C1(CO)OC(OC)C=C1C1OC12C1CC1C1(C)C(O)CC(O)C1C32C

>  <smiles>  (174) 
[H]OC([H])([H])C12OC([H])(OC([H])([H])[H])C([H])=C1C1([H])OC13C1([H])C([H])([H])C1([H])C1(C([H])([H])[H])C([H])(O[H])C([H])([H])C([H])(O[H])C1([H])C3(C([H])([H])[H])C1([H])C([H])([H])C3([H])C([H])([H])C([H])(C([H])([H])[H])C(=C([H])[H])C3([H])C21[H]

$$$$
64:0:2
     RDKit          3D

 75 82  0  0  1  0  0  0  0  0999 V2000
    5.4842   -1.5829    2.4239 C   0  0  0  0  0  0  0  0  0  0  0  0
    5.2256   -2.9017    2.4857 C   0  0  0  0  0  0  0  0  0  0  0  0
    5.4789   -3.8452    1.3419 C   0  0  1  0  0  0  0  0  0  0  0  0
    6.1518   -3.2749    0.0802 C   0  0  0  0  0  0  0  0  0  0  0  0
    6.3084   -4.9424    2.0234 C   0  0  0  0  0  0  0  0  0  0  0  0
    5.8223   -5.0065    3.4903 C   0  0  2  0  0  0  0  0  0  0  0  0
    4.8008   -6.1054    3.7344 C   0  0  0  0  0  0  0  0  0  0  0  0
    3.6869   -5.4873    4.6021 C   0  0  1  0  0  0  0  0  0  0  0  0
    3.6703   -3.9725    4.2631 C   0  0  2  0  0  0  0  0  0  0  0  0
    5.1496   -3.6731    3.7968 C   0  0  2  0  0  0  0  0  0  0  0  0
    3.2370   -3.1004    5.4971 C   0  0  1  0  0  0  0  0  0  0  0  0
    3.9497   -3.4219    6.8573 C   0  0  0  0  0  0  0  0  0  0  0  0
    3.4701   -2.6221    7.9256 O   0  0  0  0  0  0  0  0  0  0  0  0
    3.6214   -1.7431    5.1824 O   0  0  0  0  0  0  0  0  0  0  0  0
    2.5675   -0.8631    5.5167 C   0  0  1  0  0  0  0  0  0  0  0  0
    2.2951    0.0300    4.5007 O   0  0  0  0  0  0  0  0  0  0  0  0
    3.3106    0.9960    4.3038 C   0  0  0  0  0  0  0  0  0  0  0  0
    1.3859   -1.7694    5.7140 C   0  0  0  0  0  0  0  0  0  0  0  0
    1.7459   -3.0352    5.6750 C   0  0  0  0  0  0  0  0  0  0  0  0
    0.8634   -4.1974    5.6656 C   0  0  1  0  0  0  0  0  0  0  0  0
    0.6293   -4.5901    4.2976 O   0  0  0  0  0  0  0  0  0  0  0  0
    1.0496   -5.6445    5.1964 C   0  0  2  0  0  0  0  0  0  0  0  0
   -0.0793   -6.5917    5.5098 C   0  0  1  0  0  0  0  0  0  0  0  0
   -1.1692   -6.8277    4.4961 C   0  0  0  0  0  0  0  0  0  0  0  0
   -0.2010   -7.9428    4.7760 C   0  0  1  0  0  0  0  0  0  0  0  0
    0.9244   -8.4275    3.8659 C   0  0  1  0  0  0  0  0  0  0  0  0
    1.5290   -9.7291    4.4602 C   0  0  0  0  0  0  0  0  0  0  0  0
    0.4691   -8.8010    2.4184 C   0  0  1  0  0  0  0  0  0  0  0  0
   -0.8719   -8.5044    2.0737 O   0  0  0  0  0  0  0  0  0  0  0  0
    1.4071   -8.0556    1.4528 C   0  0  0  0  0  0  0  0  0  0  0  0
    1.8445   -6.8158    2.2049 C   0  0  1  0  0  0  0  0  0  0  0  0
    0.8453   -5.8570    2.0175 O   0  0  0  0  0  0  0  0  0  0  0  0
    2.0563   -7.3576    3.6506 C   0  0  1  0  0  0  0  0  0  0  0  0
    2.3626   -6.3538    4.8274 C   0  0  1  0  0  0  0  0  0  0  0  0
    2.7173   -7.1805    6.1208 C   0  0  0  0  0  0  0  0  0  0  0  0
    5.5046   -1.0037    3.3409 H   0  0  0  0  0  0  0  0  0  0  0  0
    5.7086   -1.0963    1.4790 H   0  0  0  0  0  0  0  0  0  0  0  0
    4.4994   -4.2587    1.0688 H   0  0  0  0  0  0  0  0  0  0  0  0
    5.5594   -2.4945   -0.3941 H   0  0  0  0  0  0  0  0  0  0  0  0
    6.2708   -4.0545   -0.6713 H   0  0  0  0  0  0  0  0  0  0  0  0
    7.1485   -2.8656    0.2534 H   0  0  0  0  0  0  0  0  0  0  0  0
    6.2571   -5.8854    1.4998 H   0  0  0  0  0  0  0  0  0  0  0  0
    7.3591   -4.6516    2.0218 H   0  0  0  0  0  0  0  0  0  0  0  0
    6.6659   -5.1433    4.1680 H   0  0  0  0  0  0  0  0  0  0  0  0
    4.4533   -6.4543    2.7765 H   0  0  0  0  0  0  0  0  0  0  0  0
    5.2659   -6.9575    4.2200 H   0  0  0  0  0  0  0  0  0  0  0  0
    4.2295   -5.5301    5.5302 H   0  0  0  0  0  0  0  0  0  0  0  0
    3.0017   -3.8045    3.4356 H   0  0  0  0  0  0  0  0  0  0  0  0
    5.6905   -3.1297    4.5461 H   0  0  0  0  0  0  0  0  0  0  0  0
    3.7572   -4.4409    7.2034 H   0  0  0  0  0  0  0  0  0  0  0  0
    5.0271   -3.3047    6.7595 H   0  0  0  0  0  0  0  0  0  0  0  0
    2.5758   -2.8591    8.0898 H   0  0  0  0  0  0  0  0  0  0  0  0
    2.7805   -0.3561    6.4631 H   0  0  0  0  0  0  0  0  0  0  0  0
    3.0651    1.6058    3.4360 H   0  0  0  0  0  0  0  0  0  0  0  0
    4.2688    0.5323    4.1178 H   0  0  0  0  0  0  0  0  0  0  0  0
    3.4175    1.6487    5.1681 H   0  0  0  0  0  0  0  0  0  0  0  0
    0.3773   -1.3972    5.8197 H   0  0  0  0  0  0  0  0  0  0  0  0
   -0.0734   -3.9542    6.1731 H   0  0  0  0  0  0  0  0  0  0  0  0
   -0.4151   -6.6282    6.5502 H   0  0  0  0  0  0  0  0  0  0  0  0
   -2.1651   -6.9773    4.8888 H   0  0  0  0  0  0  0  0  0  0  0  0
   -1.1098   -6.3260    3.5403 H   0  0  0  0  0  0  0  0  0  0  0  0
   -0.6511   -8.7535    5.3551 H   0  0  0  0  0  0  0  0  0  0  0  0
    2.3624  -10.0883    3.8592 H   0  0  0  0  0  0  0  0  0  0  0  0
    0.7913  -10.5302    4.4847 H   0  0  0  0  0  0  0  0  0  0  0  0
    1.8959   -9.6274    5.4762 H   0  0  0  0  0  0  0  0  0  0  0  0
    0.5575   -9.8747    2.2454 H   0  0  0  0  0  0  0  0  0  0  0  0
   -1.0066   -8.8815    1.2141 H   0  0  0  0  0  0  0  0  0  0  0  0
    2.2824   -8.6842    1.2825 H   0  0  0  0  0  0  0  0  0  0  0  0
    0.9638   -7.8290    0.4863 H   0  0  0  0  0  0  0  0  0  0  0  0
    2.7318   -6.3887    1.7606 H   0  0  0  0  0  0  0  0  0  0  0  0
    1.0068   -5.1468    2.6380 H   0  0  0  0  0  0  0  0  0  0  0  0
    2.9622   -7.9596    3.5706 H   0  0  0  0  0  0  0  0  0  0  0  0
    1.8884   -7.7859    6.4942 H   0  0  0  0  0  0  0  0  0  0  0  0
    2.9550   -6.5250    6.9614 H   0  0  0  0  0  0  0  0  0  0  0  0
    3.5657   -7.8534    5.9604 H   0  0  0  0  0  0  0  0  0  0  0  0
  1  2  2  0
  1 36  1  0
  1 37  1  0
  2 10  1  0
  2  3  1  0
  3  4  1  0
  3  5  1  0
  3 38  1  6
  4 39  1  0
  4 40  1  0
  4 41  1  0
  5  6  1  0
  5 42  1  0
  5 43  1  0
  6 10  1  0
  6  7  1  0
  6 44  1  1
  7  8  1  0
  7 45  1  0
  7 46  1  0
  8 34  1  0
  8  9  1  0
  8 47  1  1
  9 10  1  0
  9 11  1  0
  9 48  1  6
 10 49  1  1
 11 19  1  0
 11 12  1  1
 11 14  1  0
 12 13  1  0
 12 50  1  0
 12 51  1  0
 13 52  1  0
 14 15  1  0
 15 16  1  0
 15 18  1  0
 15 53  1  1
 16 17  1  0
 17 54  1  0
 17 55  1  0
 17 56  1  0
 18 19  2  0
 18 57  1  0
 19 20  1  0
 20 22  1  0
 20 21  1  0
 20 58  1  1
 22 21  1  6
 22 34  1  0
 22 23  1  0
 23 25  1  0
 23 24  1  0
 23 59  1  1
 24 25  1  0
 24 60  1  0
 24 61  1  0
 25 26  1  0
 25 62  1  1
 26 33  1  0
 26 27  1  1
 26 28  1  0
 27 63  1  0
 27 64  1  0
 27 65  1  0
 28 29  1  0
 28 30  1  0
 28 66  1  1
 29 67  1  0
 30 31  1  0
 30 68  1  0
 30 69  1  0
 31 32  1  0
 31 33  1  0
 31 70  1  6
 32 71  1  0
 33 34  1  0
 33 72  1  6
 34 35  1  1
 35 73  1  0
 35 74  1  0
 35 75  1  0
M  END
>  <i_m_ct_stereo_status>  (175) 
1

>  <s_m_source_file>  (175) 
/var/tmp/pbs.5076255.sched01/tmpc2azvghe/701e6xuegj.sdf

>  <i_m_source_file_index>  (175) 
8

>  <i_lp_mmshare_version>  (175) 
48012

>  <i_f3d_flags>  (175) 
0

>  <s_epik_input>  (175) 
W0NIM11bQ0BASF0oW0NIMl0xKUMoPVtDSDJdKVtDQEBIXTJbQ0BIXTFbQ0gyXVtDQEBIXShbQ0BIXTJbQ0BdKFtDSDJdW09IXSkoQzNbQ0BASF0oTzQpW0NAXTQ1NilPW0NASF0oW0NIXT0zKU9bQ0gzXSlbQ0BdNihbQ0gzXSlbQ0BIXTdbQ0BAXShbQ0gzXSkoW0NASF04W0NAQEhdNVtDSDJdOClbQ0BASF0oW09IXSlbQ0gyXVtDQEhdN1tPSF0=

>  <s_epik_cmdline>  (175) 
J2VwaWtfcHl0aG9uJywgJy1waHQnLCAnMi4wJywgJy1waCcsICc3LjAnLCAnLXRuJywgJzgnLCAnLW1hJywgJzIwMCcsICctaW1hZScsICc8aW5maWxlLm1hZT4nLCAnLW9tYWUnLCAnPG91dGZpbGUubWFlPic=

>  <r_lp_tautomer_probability>  (175) 
1

>  <r_epik_Ionization_Penalty>  (175) 
1.38092e-06

>  <r_epik_Ionization_Penalty_Charging>  (175) 
0

>  <r_epik_Ionization_Penalty_Neutral>  (175) 
1.38092e-06

>  <r_epik_State_Penalty>  (175) 
-0

>  <r_epik_Charging_Adjusted_Penalty>  (175) 
0

>  <i_epik_Tot_Q>  (175) 
0

>  <i_epik_Tot_abs_Q>  (175) 
0

>  <s_epik_Chemistry_Notes>  (175) 
This compound contains an acetal/aminal-like group ( X-CH(R)-Y where X, Y are N, S, or O) that may be acid/base labile, releasing an aldehyde.

>  <s_lp_Force_Field>  (175) 
OPLS3e

>  <r_lp_Energy>  (175) 
81.939

>  <b_lp_Chiralities_Consistent>  (175) 
1

>  <s_lp_Variant>  (175) 
64:0-1

>  <s_i_glide_gridfile>  (175) 
pfpi4k_grid

>  <i_i_glide_lignum>  (175) 
8

>  <i_i_glide_rotatable_bonds>  (175) 
5

>  <r_i_docking_score>  (175) 
-2.5328

>  <r_i_glide_ligand_efficiency>  (175) 
-0.0723657

>  <r_i_glide_ligand_efficiency_sa>  (175) 
-0.236713

>  <r_i_glide_ligand_efficiency_ln>  (175) 
-0.556006

>  <r_i_glide_gscore>  (175) 
-2.5328

>  <r_i_glide_lipo>  (175) 
-0.362762

>  <r_i_glide_hbond>  (175) 
0

>  <r_i_glide_metal>  (175) 
-0

>  <r_i_glide_rewards>  (175) 
-0.604834

>  <r_i_glide_evdw>  (175) 
-19.1948

>  <r_i_glide_ecoul>  (175) 
-4.61293

>  <r_i_glide_erotb>  (175) 
0.0864737

>  <r_i_glide_esite>  (175) 
0

>  <r_i_glide_emodel>  (175) 
-31.6819

>  <r_i_glide_energy>  (175) 
-23.8077

>  <r_i_glide_einternal>  (175) 
2.3255

>  <r_i_glide_intrahb_reward>  (175) 
-0.5

>  <i_i_glide_confnum>  (175) 
2

>  <i_i_glide_posenum>  (175) 
40

>  <r_i_glide_eff_state_penalty>  (175) 
0

>  <ligand_id>  (175) 
64

>  <original_smiles>  (175) 
C=C1C(C)CC2CC3C(C12)C1(CO)OC(OC)C=C1C1OC12C1CC1C1(C)C(O)CC(O)C1C32C

>  <smiles>  (175) 
[H]OC([H])([H])C12OC([H])(OC([H])([H])[H])C([H])=C1C1([H])OC13C1([H])C([H])([H])C1([H])C1(C([H])([H])[H])C([H])(O[H])C([H])([H])C([H])(O[H])C1([H])C3(C([H])([H])[H])C1([H])C([H])([H])C3([H])C([H])([H])C([H])(C([H])([H])[H])C(=C([H])[H])C3([H])C21[H]

$$$$
65:0:0
     RDKit          3D

 57 61  0  0  1  0  0  0  0  0999 V2000
    5.6997   -3.1835    1.6174 C   0  0  0  0  0  0  0  0  0  0  0  0
    5.0912   -4.4904    2.0764 C   0  0  0  0  0  0  0  0  0  0  0  0
    4.2248   -4.7277    3.0616 C   0  0  0  0  0  0  0  0  0  0  0  0
    3.8927   -6.1946    3.2497 C   0  0  2  0  0  0  0  0  0  0  0  0
    4.6406   -6.9019    2.0686 C   0  0  2  0  0  0  0  0  0  0  0  0
    3.8139   -7.4188    1.0481 O   0  0  0  0  0  0  0  0  0  0  0  0
    5.5852   -8.0170    2.5633 C   0  0  0  0  0  0  0  0  0  0  0  0
    4.9462   -9.3751    2.9344 C   0  0  1  0  0  0  0  0  0  0  0  0
    6.0902  -10.3420    3.3092 C   0  0  0  0  0  0  0  0  0  0  0  0
    3.8652   -9.3456    4.0713 C   0  0  0  0  0  0  0  0  0  0  0  0
    2.3125   -9.2398    3.7283 C   0  0  1  0  0  0  0  0  0  0  0  0
    2.0488   -9.9130    2.3538 C   0  0  0  0  0  0  0  0  0  0  0  0
    1.4553  -10.0686    4.7793 C   0  0  1  0  0  0  0  0  0  0  0  0
    1.8824  -11.4153    4.8792 O   0  0  0  0  0  0  0  0  0  0  0  0
    1.3258   -9.4661    6.2070 C   0  0  0  0  0  0  0  0  0  0  0  0
    0.8599   -7.9902    6.2187 C   0  0  1  0  0  0  0  0  0  0  0  0
    0.7824   -7.4108    7.6395 C   0  0  0  0  0  0  0  0  0  0  0  0
    1.8005   -7.2558    5.2760 C   0  0  2  0  0  0  0  0  0  0  0  0
    1.7138   -5.8398    4.7241 C   0  0  0  0  0  0  0  0  0  0  0  0
    2.3781   -6.4241    3.4327 C   0  0  1  0  0  0  0  0  0  0  0  0
    1.6484   -6.0163    2.2787 O   0  0  0  0  0  0  0  0  0  0  0  0
    0.5639   -6.7546    2.0192 C   0  0  0  0  0  0  0  0  0  0  0  0
   -0.1789   -6.6456    1.0529 O   0  0  0  0  0  0  0  0  0  0  0  0
    0.3295   -7.7196    3.1639 C   0  0  0  0  0  0  0  0  0  0  0  0
    1.7202   -7.7808    3.8286 C   0  0  1  0  0  0  0  0  0  0  0  0
    5.4371   -5.7474    1.4396 C   0  0  0  0  0  0  0  0  0  0  0  0
    6.2450   -5.8882    0.5197 O   0  0  0  0  0  0  0  0  0  0  0  0
    5.4393   -2.9939    0.5774 H   0  0  0  0  0  0  0  0  0  0  0  0
    6.7858   -3.2358    1.6831 H   0  0  0  0  0  0  0  0  0  0  0  0
    5.3589   -2.3434    2.2184 H   0  0  0  0  0  0  0  0  0  0  0  0
    3.8131   -3.9645    3.7043 H   0  0  0  0  0  0  0  0  0  0  0  0
    4.3974   -6.4556    4.1796 H   0  0  0  0  0  0  0  0  0  0  0  0
    3.3656   -8.1826    1.3760 H   0  0  0  0  0  0  0  0  0  0  0  0
    6.3315   -8.2106    1.7910 H   0  0  0  0  0  0  0  0  0  0  0  0
    6.1628   -7.6465    3.4106 H   0  0  0  0  0  0  0  0  0  0  0  0
    4.5369   -9.8016    2.0206 H   0  0  0  0  0  0  0  0  0  0  0  0
    6.6088  -10.0236    4.2141 H   0  0  0  0  0  0  0  0  0  0  0  0
    6.8324  -10.4022    2.5126 H   0  0  0  0  0  0  0  0  0  0  0  0
    5.7221  -11.3550    3.4726 H   0  0  0  0  0  0  0  0  0  0  0  0
    3.9963  -10.2897    4.5940 H   0  0  0  0  0  0  0  0  0  0  0  0
    4.1703   -8.6350    4.8312 H   0  0  0  0  0  0  0  0  0  0  0  0
    1.0069  -10.1910    2.1953 H   0  0  0  0  0  0  0  0  0  0  0  0
    2.5960  -10.8546    2.2803 H   0  0  0  0  0  0  0  0  0  0  0  0
    2.3265   -9.3026    1.5043 H   0  0  0  0  0  0  0  0  0  0  0  0
    0.4288  -10.1400    4.4167 H   0  0  0  0  0  0  0  0  0  0  0  0
    1.6221  -11.7649    5.7295 H   0  0  0  0  0  0  0  0  0  0  0  0
    0.6259  -10.0665    6.7906 H   0  0  0  0  0  0  0  0  0  0  0  0
    2.2852   -9.5449    6.7165 H   0  0  0  0  0  0  0  0  0  0  0  0
   -0.1615   -7.9669    5.8295 H   0  0  0  0  0  0  0  0  0  0  0  0
    1.7419   -7.4591    8.1552 H   0  0  0  0  0  0  0  0  0  0  0  0
    0.0609   -7.9811    8.2299 H   0  0  0  0  0  0  0  0  0  0  0  0
    0.4454   -6.3727    7.6287 H   0  0  0  0  0  0  0  0  0  0  0  0
    2.8114   -7.3245    5.6795 H   0  0  0  0  0  0  0  0  0  0  0  0
    0.6918   -5.4655    4.6103 H   0  0  0  0  0  0  0  0  0  0  0  0
    2.3323   -5.1219    5.2613 H   0  0  0  0  0  0  0  0  0  0  0  0
   -0.4027   -7.2456    3.8108 H   0  0  0  0  0  0  0  0  0  0  0  0
   -0.1095   -8.6601    2.8434 H   0  0  0  0  0  0  0  0  0  0  0  0
  1  2  1  0
  1 28  1  0
  1 29  1  0
  1 30  1  0
  2 26  1  0
  2  3  2  0
  3  4  1  0
  3 31  1  0
  4 20  1  0
  4  5  1  0
  4 32  1  1
  5  6  1  6
  5  7  1  0
  5 26  1  0
  6 33  1  0
  7  8  1  0
  7 34  1  0
  7 35  1  0
  8  9  1  0
  8 10  1  0
  8 36  1  6
  9 37  1  0
  9 38  1  0
  9 39  1  0
 10 11  1  0
 10 40  1  0
 10 41  1  0
 11 25  1  0
 11 12  1  6
 11 13  1  0
 12 42  1  0
 12 43  1  0
 12 44  1  0
 13 14  1  0
 13 15  1  0
 13 45  1  6
 14 46  1  0
 15 16  1  0
 15 47  1  0
 15 48  1  0
 16 17  1  0
 16 18  1  0
 16 49  1  6
 17 50  1  0
 17 51  1  0
 17 52  1  0
 18 25  1  0
 18 19  1  0
 18 53  1  1
 19 20  1  0
 19 54  1  0
 19 55  1  0
 20 25  1  0
 20 21  1  6
 21 22  1  0
 22 23  2  0
 22 24  1  0
 25 24  1  6
 24 56  1  0
 24 57  1  0
 26 27  2  0
M  END
>  <i_m_ct_stereo_status>  (176) 
1

>  <s_m_source_file>  (176) 
/var/tmp/pbs.5076255.sched01/tmpc2azvghe/701e6xuegj.sdf

>  <i_m_source_file_index>  (176) 
9

>  <i_lp_mmshare_version>  (176) 
48012

>  <i_f3d_flags>  (176) 
0

>  <s_epik_input>  (176) 
Tz1DMUMoW0NIM10pPVtDSF1bQ0BASF0yW0NAXTEoW09IXSlbQ0gyXVtDQEBIXShbQ0gzXSlbQ0gyXVtDQF0oW0NIM10pKFtDQEBdMyhbQ0BdMjQ1KVtDSDJdQyhPNSk9TylbQ0BASF0oW09IXSlbQ0gyXVtDQEBIXShbQ0gzXSlbQ0BASF0zW0NIMl00

>  <s_epik_cmdline>  (176) 
J2VwaWtfcHl0aG9uJywgJy1waHQnLCAnMi4wJywgJy1waCcsICc3LjAnLCAnLXRuJywgJzgnLCAnLW1hJywgJzIwMCcsICctaW1hZScsICc8aW5maWxlLm1hZT4nLCAnLW9tYWUnLCAnPG91dGZpbGUubWFlPic=

>  <r_lp_tautomer_probability>  (176) 
1

>  <r_epik_Ionization_Penalty>  (176) 
1.2402e-06

>  <r_epik_Ionization_Penalty_Charging>  (176) 
0

>  <r_epik_Ionization_Penalty_Neutral>  (176) 
1.2402e-06

>  <r_epik_State_Penalty>  (176) 
-0

>  <r_epik_Charging_Adjusted_Penalty>  (176) 
0

>  <i_epik_Tot_Q>  (176) 
0

>  <i_epik_Tot_abs_Q>  (176) 
0

>  <s_epik_Chemistry_Notes>  (176) 
This compound has an ester and may undergo hydrolysis at high or low pH.

>  <s_lp_Force_Field>  (176) 
OPLS3e

>  <r_lp_Energy>  (176) 
73.8657

>  <b_lp_Chiralities_Consistent>  (176) 
1

>  <s_lp_Variant>  (176) 
65:0-1

>  <s_i_glide_gridfile>  (176) 
pfpi4k_grid

>  <i_i_glide_lignum>  (176) 
9

>  <i_i_glide_rotatable_bonds>  (176) 
2

>  <r_i_docking_score>  (176) 
-3.48758

>  <r_i_glide_ligand_efficiency>  (176) 
-0.12917

>  <r_i_glide_ligand_efficiency_sa>  (176) 
-0.387509

>  <r_i_glide_ligand_efficiency_ln>  (176) 
-0.811852

>  <r_i_glide_gscore>  (176) 
-3.48758

>  <r_i_glide_lipo>  (176) 
-0.208417

>  <r_i_glide_hbond>  (176) 
-0.349246

>  <r_i_glide_metal>  (176) 
-0

>  <r_i_glide_rewards>  (176) 
-0.945541

>  <r_i_glide_evdw>  (176) 
-25.7451

>  <r_i_glide_ecoul>  (176) 
-4.09888

>  <r_i_glide_erotb>  (176) 
0

>  <r_i_glide_esite>  (176) 
-0.0822928

>  <r_i_glide_emodel>  (176) 
-36.4279

>  <r_i_glide_energy>  (176) 
-29.844

>  <r_i_glide_einternal>  (176) 
1.00215

>  <r_i_glide_intrahb_reward>  (176) 
-0

>  <i_i_glide_confnum>  (176) 
1

>  <i_i_glide_posenum>  (176) 
13

>  <r_i_glide_eff_state_penalty>  (176) 
0

>  <ligand_id>  (176) 
65

>  <original_smiles>  (176) 
CC1=CC2C(O)(CC(C)CC3(C)C(O)CC(C)C4CC25OC(=O)CC435)C1=O

>  <smiles>  (176) 
[H]OC1([H])C([H])([H])C([H])(C([H])([H])[H])C2([H])C([H])([H])C34OC(=O)C([H])([H])C23C1(C([H])([H])[H])C([H])([H])C([H])(C([H])([H])[H])C([H])([H])C1(O[H])C(=O)C(C([H])([H])[H])=C([H])C14[H]

$$$$
65:0:1
     RDKit          3D

 57 61  0  0  1  0  0  0  0  0999 V2000
    4.6314   -5.7762    0.1829 C   0  0  0  0  0  0  0  0  0  0  0  0
    4.0661   -6.4653    1.4038 C   0  0  0  0  0  0  0  0  0  0  0  0
    3.3439   -5.9566    2.4080 C   0  0  0  0  0  0  0  0  0  0  0  0
    2.9947   -6.9574    3.4867 C   0  0  2  0  0  0  0  0  0  0  0  0
    3.5450   -8.3190    2.9332 C   0  0  2  0  0  0  0  0  0  0  0  0
    2.5632   -9.2558    2.5399 O   0  0  0  0  0  0  0  0  0  0  0  0
    4.5351   -8.9879    3.9101 C   0  0  0  0  0  0  0  0  0  0  0  0
    3.9253   -9.7633    5.1032 C   0  0  1  0  0  0  0  0  0  0  0  0
    5.0901  -10.4247    5.8750 C   0  0  0  0  0  0  0  0  0  0  0  0
    3.0230   -8.9320    6.0809 C   0  0  0  0  0  0  0  0  0  0  0  0
    1.4435   -8.8889    5.8986 C   0  0  1  0  0  0  0  0  0  0  0  0
    0.9631  -10.2201    5.2617 C   0  0  0  0  0  0  0  0  0  0  0  0
    0.7233   -8.8222    7.3139 C   0  0  1  0  0  0  0  0  0  0  0  0
    1.1132   -9.8476    8.2151 O   0  0  0  0  0  0  0  0  0  0  0  0
    0.8229   -7.4564    8.0740 C   0  0  0  0  0  0  0  0  0  0  0  0
    0.4163   -6.2285    7.2260 C   0  0  1  0  0  0  0  0  0  0  0  0
    0.5564   -4.9023    7.9873 C   0  0  0  0  0  0  0  0  0  0  0  0
    1.2133   -6.3285    5.9356 C   0  0  2  0  0  0  0  0  0  0  0  0
    1.0811   -5.5386    4.6407 C   0  0  0  0  0  0  0  0  0  0  0  0
    1.5226   -6.8599    3.9260 C   0  0  1  0  0  0  0  0  0  0  0  0
    0.6320   -7.1599    2.8486 O   0  0  0  0  0  0  0  0  0  0  0  0
   -0.4949   -7.7696    3.2248 C   0  0  0  0  0  0  0  0  0  0  0  0
   -1.3870   -8.1872    2.4926 O   0  0  0  0  0  0  0  0  0  0  0  0
   -0.5676   -7.8105    4.7348 C   0  0  0  0  0  0  0  0  0  0  0  0
    0.9074   -7.6126    5.1445 C   0  0  1  0  0  0  0  0  0  0  0  0
    4.2715   -7.8807    1.6505 C   0  0  0  0  0  0  0  0  0  0  0  0
    4.9201   -8.6504    0.9371 O   0  0  0  0  0  0  0  0  0  0  0  0
    4.2286   -6.2359   -0.7202 H   0  0  0  0  0  0  0  0  0  0  0  0
    5.7159   -5.8993    0.1611 H   0  0  0  0  0  0  0  0  0  0  0  0
    4.4003   -4.7093    0.1664 H   0  0  0  0  0  0  0  0  0  0  0  0
    3.0535   -4.9204    2.4822 H   0  0  0  0  0  0  0  0  0  0  0  0
    3.6231   -6.6588    4.3257 H   0  0  0  0  0  0  0  0  0  0  0  0
    2.0033   -8.8722    1.8831 H   0  0  0  0  0  0  0  0  0  0  0  0
    5.1491   -9.6969    3.3489 H   0  0  0  0  0  0  0  0  0  0  0  0
    5.2410   -8.2440    4.2810 H   0  0  0  0  0  0  0  0  0  0  0  0
    3.3743  -10.6036    4.6876 H   0  0  0  0  0  0  0  0  0  0  0  0
    5.7484   -9.6870    6.3338 H   0  0  0  0  0  0  0  0  0  0  0  0
    5.7018  -11.0399    5.2148 H   0  0  0  0  0  0  0  0  0  0  0  0
    4.7262  -11.0839    6.6633 H   0  0  0  0  0  0  0  0  0  0  0  0
    3.2071   -9.3705    7.0571 H   0  0  0  0  0  0  0  0  0  0  0  0
    3.4601   -7.9466    6.2062 H   0  0  0  0  0  0  0  0  0  0  0  0
   -0.0957  -10.4128    5.4204 H   0  0  0  0  0  0  0  0  0  0  0  0
    1.4716  -11.0718    5.7045 H   0  0  0  0  0  0  0  0  0  0  0  0
    1.1299  -10.2760    4.1941 H   0  0  0  0  0  0  0  0  0  0  0  0
   -0.3485   -8.9784    7.1557 H   0  0  0  0  0  0  0  0  0  0  0  0
    1.0713  -10.7351    7.8040 H   0  0  0  0  0  0  0  0  0  0  0  0
    0.2053   -7.5003    8.9712 H   0  0  0  0  0  0  0  0  0  0  0  0
    1.8486   -7.3175    8.4225 H   0  0  0  0  0  0  0  0  0  0  0  0
   -0.6426   -6.3028    6.9975 H   0  0  0  0  0  0  0  0  0  0  0  0
    1.5765   -4.7324    8.3312 H   0  0  0  0  0  0  0  0  0  0  0  0
   -0.0892   -4.9147    8.8668 H   0  0  0  0  0  0  0  0  0  0  0  0
    0.2434   -4.0550    7.3754 H   0  0  0  0  0  0  0  0  0  0  0  0
    2.2683   -6.2535    6.1811 H   0  0  0  0  0  0  0  0  0  0  0  0
    0.0617   -5.2016    4.4426 H   0  0  0  0  0  0  0  0  0  0  0  0
    1.7998   -4.7175    4.5527 H   0  0  0  0  0  0  0  0  0  0  0  0
   -1.1817   -6.9557    5.0055 H   0  0  0  0  0  0  0  0  0  0  0  0
   -1.0813   -8.6912    5.1055 H   0  0  0  0  0  0  0  0  0  0  0  0
  1  2  1  0
  1 28  1  0
  1 29  1  0
  1 30  1  0
  2 26  1  0
  2  3  2  0
  3  4  1  0
  3 31  1  0
  4 20  1  0
  4  5  1  0
  4 32  1  1
  5  6  1  6
  5  7  1  0
  5 26  1  0
  6 33  1  0
  7  8  1  0
  7 34  1  0
  7 35  1  0
  8  9  1  0
  8 10  1  0
  8 36  1  6
  9 37  1  0
  9 38  1  0
  9 39  1  0
 10 11  1  0
 10 40  1  0
 10 41  1  0
 11 25  1  0
 11 12  1  6
 11 13  1  0
 12 42  1  0
 12 43  1  0
 12 44  1  0
 13 14  1  0
 13 15  1  0
 13 45  1  6
 14 46  1  0
 15 16  1  0
 15 47  1  0
 15 48  1  0
 16 17  1  0
 16 18  1  0
 16 49  1  6
 17 50  1  0
 17 51  1  0
 17 52  1  0
 18 25  1  0
 18 19  1  0
 18 53  1  1
 19 20  1  0
 19 54  1  0
 19 55  1  0
 20 25  1  0
 20 21  1  6
 21 22  1  0
 22 23  2  0
 22 24  1  0
 25 24  1  6
 24 56  1  0
 24 57  1  0
 26 27  2  0
M  END
>  <i_m_ct_stereo_status>  (177) 
1

>  <s_m_source_file>  (177) 
/var/tmp/pbs.5076255.sched01/tmpc2azvghe/701e6xuegj.sdf

>  <i_m_source_file_index>  (177) 
9

>  <i_lp_mmshare_version>  (177) 
48012

>  <i_f3d_flags>  (177) 
0

>  <s_epik_input>  (177) 
Tz1DMUMoW0NIM10pPVtDSF1bQ0BASF0yW0NAXTEoW09IXSlbQ0gyXVtDQEBIXShbQ0gzXSlbQ0gyXVtDQF0oW0NIM10pKFtDQEBdMyhbQ0BdMjQ1KVtDSDJdQyhPNSk9TylbQ0BASF0oW09IXSlbQ0gyXVtDQEBIXShbQ0gzXSlbQ0BASF0zW0NIMl00

>  <s_epik_cmdline>  (177) 
J2VwaWtfcHl0aG9uJywgJy1waHQnLCAnMi4wJywgJy1waCcsICc3LjAnLCAnLXRuJywgJzgnLCAnLW1hJywgJzIwMCcsICctaW1hZScsICc8aW5maWxlLm1hZT4nLCAnLW9tYWUnLCAnPG91dGZpbGUubWFlPic=

>  <r_lp_tautomer_probability>  (177) 
1

>  <r_epik_Ionization_Penalty>  (177) 
1.2402e-06

>  <r_epik_Ionization_Penalty_Charging>  (177) 
0

>  <r_epik_Ionization_Penalty_Neutral>  (177) 
1.2402e-06

>  <r_epik_State_Penalty>  (177) 
-0

>  <r_epik_Charging_Adjusted_Penalty>  (177) 
0

>  <i_epik_Tot_Q>  (177) 
0

>  <i_epik_Tot_abs_Q>  (177) 
0

>  <s_epik_Chemistry_Notes>  (177) 
This compound has an ester and may undergo hydrolysis at high or low pH.

>  <s_lp_Force_Field>  (177) 
OPLS3e

>  <r_lp_Energy>  (177) 
73.8657

>  <b_lp_Chiralities_Consistent>  (177) 
1

>  <s_lp_Variant>  (177) 
65:0-1

>  <s_i_glide_gridfile>  (177) 
pfpi4k_grid

>  <i_i_glide_lignum>  (177) 
9

>  <i_i_glide_rotatable_bonds>  (177) 
2

>  <r_i_docking_score>  (177) 
-3.30238

>  <r_i_glide_ligand_efficiency>  (177) 
-0.12231

>  <r_i_glide_ligand_efficiency_sa>  (177) 
-0.366931

>  <r_i_glide_ligand_efficiency_ln>  (177) 
-0.768739

>  <r_i_glide_gscore>  (177) 
-3.30238

>  <r_i_glide_lipo>  (177) 
-0.128862

>  <r_i_glide_hbond>  (177) 
-0.16

>  <r_i_glide_metal>  (177) 
-0

>  <r_i_glide_rewards>  (177) 
-0.874261

>  <r_i_glide_evdw>  (177) 
-24.3758

>  <r_i_glide_ecoul>  (177) 
-5.76472

>  <r_i_glide_erotb>  (177) 
0

>  <r_i_glide_esite>  (177) 
-0.0557574

>  <r_i_glide_emodel>  (177) 
-35.7267

>  <r_i_glide_energy>  (177) 
-30.1405

>  <r_i_glide_einternal>  (177) 
2.07465

>  <r_i_glide_intrahb_reward>  (177) 
-0

>  <i_i_glide_confnum>  (177) 
2

>  <i_i_glide_posenum>  (177) 
35

>  <r_i_glide_eff_state_penalty>  (177) 
0

>  <ligand_id>  (177) 
65

>  <original_smiles>  (177) 
CC1=CC2C(O)(CC(C)CC3(C)C(O)CC(C)C4CC25OC(=O)CC435)C1=O

>  <smiles>  (177) 
[H]OC1([H])C([H])([H])C([H])(C([H])([H])[H])C2([H])C([H])([H])C34OC(=O)C([H])([H])C23C1(C([H])([H])[H])C([H])([H])C([H])(C([H])([H])[H])C([H])([H])C1(O[H])C(=O)C(C([H])([H])[H])=C([H])C14[H]

$$$$
65:0:2
     RDKit          3D

 57 61  0  0  1  0  0  0  0  0999 V2000
    4.7181   -5.8445    0.1773 C   0  0  0  0  0  0  0  0  0  0  0  0
    4.1105   -6.5024    1.3955 C   0  0  0  0  0  0  0  0  0  0  0  0
    3.3525   -5.9770    2.3516 C   0  0  0  0  0  0  0  0  0  0  0  0
    2.9723   -6.9574    3.4453 C   0  0  2  0  0  0  0  0  0  0  0  0
    3.5512   -8.3254    2.9451 C   0  0  2  0  0  0  0  0  0  0  0  0
    2.6053   -9.2909    2.5313 O   0  0  0  0  0  0  0  0  0  0  0  0
    4.5036   -8.9644    3.9798 C   0  0  0  0  0  0  0  0  0  0  0  0
    3.8523   -9.7107    5.1655 C   0  0  1  0  0  0  0  0  0  0  0  0
    4.9873  -10.3464    5.9971 C   0  0  0  0  0  0  0  0  0  0  0  0
    2.9128   -8.8606    6.0904 C   0  0  0  0  0  0  0  0  0  0  0  0
    1.3404   -8.8342    5.8503 C   0  0  1  0  0  0  0  0  0  0  0  0
    0.8891  -10.1860    5.2318 C   0  0  0  0  0  0  0  0  0  0  0  0
    0.5721   -8.7213    7.2336 C   0  0  1  0  0  0  0  0  0  0  0  0
    0.9273   -9.7196    8.1698 O   0  0  0  0  0  0  0  0  0  0  0  0
    0.6331   -7.3464    7.9620 C   0  0  0  0  0  0  0  0  0  0  0  0
    0.2454   -6.1443    7.0627 C   0  0  1  0  0  0  0  0  0  0  0  0
    0.3599   -4.7978    7.7945 C   0  0  0  0  0  0  0  0  0  0  0  0
    1.0981   -6.2729    5.8098 C   0  0  2  0  0  0  0  0  0  0  0  0
    1.0051   -5.5194    4.4905 C   0  0  0  0  0  0  0  0  0  0  0  0
    1.4789   -6.8549    3.8231 C   0  0  1  0  0  0  0  0  0  0  0  0
    0.6232   -7.1749    2.7260 O   0  0  0  0  0  0  0  0  0  0  0  0
   -0.5112   -7.7910    3.0778 C   0  0  0  0  0  0  0  0  0  0  0  0
   -1.3738   -8.2278    2.3210 O   0  0  0  0  0  0  0  0  0  0  0  0
   -0.6360   -7.7991    4.5814 C   0  0  0  0  0  0  0  0  0  0  0  0
    0.8239   -7.5780    5.0378 C   0  0  1  0  0  0  0  0  0  0  0  0
    4.3198   -7.9142    1.6816 C   0  0  0  0  0  0  0  0  0  0  0  0
    4.9903   -8.7022    1.0139 O   0  0  0  0  0  0  0  0  0  0  0  0
    4.3445   -6.3289   -0.7200 H   0  0  0  0  0  0  0  0  0  0  0  0
    5.7995   -5.9536    0.1938 H   0  0  0  0  0  0  0  0  0  0  0  0
    4.4804   -4.7874    0.1220 H   0  0  0  0  0  0  0  0  0  0  0  0
    3.0502   -4.9381    2.3888 H   0  0  0  0  0  0  0  0  0  0  0  0
    3.5680   -6.6236    4.2952 H   0  0  0  0  0  0  0  0  0  0  0  0
    3.0811  -10.0375    2.1891 H   0  0  0  0  0  0  0  0  0  0  0  0
    5.1455   -9.6797    3.4632 H   0  0  0  0  0  0  0  0  0  0  0  0
    5.1903   -8.2075    4.3594 H   0  0  0  0  0  0  0  0  0  0  0  0
    3.3179  -10.5644    4.7530 H   0  0  0  0  0  0  0  0  0  0  0  0
    5.6212   -9.5898    6.4571 H   0  0  0  0  0  0  0  0  0  0  0  0
    5.6250  -10.9743    5.3735 H   0  0  0  0  0  0  0  0  0  0  0  0
    4.5937  -10.9853    6.7884 H   0  0  0  0  0  0  0  0  0  0  0  0
    3.0597   -9.2752    7.0832 H   0  0  0  0  0  0  0  0  0  0  0  0
    3.3335   -7.8670    6.2018 H   0  0  0  0  0  0  0  0  0  0  0  0
   -0.1755  -10.3741    5.3529 H   0  0  0  0  0  0  0  0  0  0  0  0
    1.3759  -11.0323    5.7138 H   0  0  0  0  0  0  0  0  0  0  0  0
    1.0930  -10.2546    4.1700 H   0  0  0  0  0  0  0  0  0  0  0  0
   -0.4864   -8.9027    7.0498 H   0  0  0  0  0  0  0  0  0  0  0  0
    1.0148  -10.5674    7.7307 H   0  0  0  0  0  0  0  0  0  0  0  0
   -0.0174   -7.3688    8.8386 H   0  0  0  0  0  0  0  0  0  0  0  0
    1.6426   -7.1921    8.3431 H   0  0  0  0  0  0  0  0  0  0  0  0
   -0.8107   -6.2463    6.8070 H   0  0  0  0  0  0  0  0  0  0  0  0
    1.3705   -4.6136    8.1649 H   0  0  0  0  0  0  0  0  0  0  0  0
   -0.3153   -4.7862    8.6542 H   0  0  0  0  0  0  0  0  0  0  0  0
    0.0704   -3.9679    7.1456 H   0  0  0  0  0  0  0  0  0  0  0  0
    2.1457   -6.1815    6.0982 H   0  0  0  0  0  0  0  0  0  0  0  0
   -0.0048   -5.1884    4.2386 H   0  0  0  0  0  0  0  0  0  0  0  0
    1.7139   -4.6967    4.4142 H   0  0  0  0  0  0  0  0  0  0  0  0
   -1.2637   -6.9452    4.8226 H   0  0  0  0  0  0  0  0  0  0  0  0
   -1.1477   -8.6812    4.9532 H   0  0  0  0  0  0  0  0  0  0  0  0
  1  2  1  0
  1 28  1  0
  1 29  1  0
  1 30  1  0
  2 26  1  0
  2  3  2  0
  3  4  1  0
  3 31  1  0
  4 20  1  0
  4  5  1  0
  4 32  1  1
  5  6  1  6
  5  7  1  0
  5 26  1  0
  6 33  1  0
  7  8  1  0
  7 34  1  0
  7 35  1  0
  8  9  1  0
  8 10  1  0
  8 36  1  6
  9 37  1  0
  9 38  1  0
  9 39  1  0
 10 11  1  0
 10 40  1  0
 10 41  1  0
 11 25  1  0
 11 12  1  6
 11 13  1  0
 12 42  1  0
 12 43  1  0
 12 44  1  0
 13 14  1  0
 13 15  1  0
 13 45  1  6
 14 46  1  0
 15 16  1  0
 15 47  1  0
 15 48  1  0
 16 17  1  0
 16 18  1  0
 16 49  1  6
 17 50  1  0
 17 51  1  0
 17 52  1  0
 18 25  1  0
 18 19  1  0
 18 53  1  1
 19 20  1  0
 19 54  1  0
 19 55  1  0
 20 25  1  0
 20 21  1  6
 21 22  1  0
 22 23  2  0
 22 24  1  0
 25 24  1  6
 24 56  1  0
 24 57  1  0
 26 27  2  0
M  END
>  <i_m_ct_stereo_status>  (178) 
1

>  <s_m_source_file>  (178) 
/var/tmp/pbs.5076255.sched01/tmpc2azvghe/701e6xuegj.sdf

>  <i_m_source_file_index>  (178) 
9

>  <i_lp_mmshare_version>  (178) 
48012

>  <i_f3d_flags>  (178) 
0

>  <s_epik_input>  (178) 
Tz1DMUMoW0NIM10pPVtDSF1bQ0BASF0yW0NAXTEoW09IXSlbQ0gyXVtDQEBIXShbQ0gzXSlbQ0gyXVtDQF0oW0NIM10pKFtDQEBdMyhbQ0BdMjQ1KVtDSDJdQyhPNSk9TylbQ0BASF0oW09IXSlbQ0gyXVtDQEBIXShbQ0gzXSlbQ0BASF0zW0NIMl00

>  <s_epik_cmdline>  (178) 
J2VwaWtfcHl0aG9uJywgJy1waHQnLCAnMi4wJywgJy1waCcsICc3LjAnLCAnLXRuJywgJzgnLCAnLW1hJywgJzIwMCcsICctaW1hZScsICc8aW5maWxlLm1hZT4nLCAnLW9tYWUnLCAnPG91dGZpbGUubWFlPic=

>  <r_lp_tautomer_probability>  (178) 
1

>  <r_epik_Ionization_Penalty>  (178) 
1.2402e-06

>  <r_epik_Ionization_Penalty_Charging>  (178) 
0

>  <r_epik_Ionization_Penalty_Neutral>  (178) 
1.2402e-06

>  <r_epik_State_Penalty>  (178) 
-0

>  <r_epik_Charging_Adjusted_Penalty>  (178) 
0

>  <i_epik_Tot_Q>  (178) 
0

>  <i_epik_Tot_abs_Q>  (178) 
0

>  <s_epik_Chemistry_Notes>  (178) 
This compound has an ester and may undergo hydrolysis at high or low pH.

>  <s_lp_Force_Field>  (178) 
OPLS3e

>  <r_lp_Energy>  (178) 
73.8657

>  <b_lp_Chiralities_Consistent>  (178) 
1

>  <s_lp_Variant>  (178) 
65:0-1

>  <s_i_glide_gridfile>  (178) 
pfpi4k_grid

>  <i_i_glide_lignum>  (178) 
9

>  <i_i_glide_rotatable_bonds>  (178) 
2

>  <r_i_docking_score>  (178) 
-3.20135

>  <r_i_glide_ligand_efficiency>  (178) 
-0.118568

>  <r_i_glide_ligand_efficiency_sa>  (178) 
-0.355705

>  <r_i_glide_ligand_efficiency_ln>  (178) 
-0.745221

>  <r_i_glide_gscore>  (178) 
-3.20135

>  <r_i_glide_lipo>  (178) 
-0.141089

>  <r_i_glide_hbond>  (178) 
-0.16

>  <r_i_glide_metal>  (178) 
-0

>  <r_i_glide_rewards>  (178) 
-0.872487

>  <r_i_glide_evdw>  (178) 
-25.3237

>  <r_i_glide_ecoul>  (178) 
-4.69159

>  <r_i_glide_erotb>  (178) 
0

>  <r_i_glide_esite>  (178) 
-0.0578485

>  <r_i_glide_emodel>  (178) 
-35.3878

>  <r_i_glide_energy>  (178) 
-30.0152

>  <r_i_glide_einternal>  (178) 
2.22759

>  <r_i_glide_intrahb_reward>  (178) 
-0

>  <i_i_glide_confnum>  (178) 
2

>  <i_i_glide_posenum>  (178) 
25

>  <r_i_glide_eff_state_penalty>  (178) 
0

>  <ligand_id>  (178) 
65

>  <original_smiles>  (178) 
CC1=CC2C(O)(CC(C)CC3(C)C(O)CC(C)C4CC25OC(=O)CC435)C1=O

>  <smiles>  (178) 
[H]OC1([H])C([H])([H])C([H])(C([H])([H])[H])C2([H])C([H])([H])C34OC(=O)C([H])([H])C23C1(C([H])([H])[H])C([H])([H])C([H])(C([H])([H])[H])C([H])([H])C1(O[H])C(=O)C(C([H])([H])[H])=C([H])C14[H]

$$$$
66:0:0
     RDKit          3D

 64 68  0  0  1  0  0  0  0  0999 V2000
    5.9829   -5.4247    1.2903 C   0  0  0  0  0  0  0  0  0  0  0  0
    5.2316   -6.7622    1.1138 C   0  0  2  0  0  0  0  0  0  0  0  0
    3.7326   -6.5359    1.3259 C   0  0  0  0  0  0  0  0  0  0  0  0
    3.0835   -5.7695    0.6135 O   0  0  0  0  0  0  0  0  0  0  0  0
    3.1305   -7.3154    2.5265 C   0  0  2  0  0  0  0  0  0  0  0  0
    2.2840   -6.3085    3.3978 C   0  0  0  0  0  0  0  0  0  0  0  0
    2.3707   -6.3085    4.9548 C   0  0  2  0  0  0  0  0  0  0  0  0
    1.2289   -5.3960    5.5182 C   0  0  0  0  0  0  0  0  0  0  0  0
    3.6555   -5.5142    5.3871 C   0  0  0  0  0  0  0  0  0  0  0  0
    3.8092   -4.3389    5.0512 O   0  0  0  0  0  0  0  0  0  0  0  0
    4.8159   -6.1812    6.1328 C   0  0  0  0  0  0  0  0  0  0  0  0
    4.5586   -7.5916    6.6414 C   0  0  1  0  0  0  0  0  0  0  0  0
    3.9960   -7.4808    7.9355 O   0  0  0  0  0  0  0  0  0  0  0  0
    3.6885   -8.4625    5.6872 C   0  0  2  0  0  0  0  0  0  0  0  0
    3.6308   -9.6499    6.4610 O   0  0  0  0  0  0  0  0  0  0  0  0
    4.5042   -8.7971    4.3746 C   0  0  1  0  0  0  0  0  0  0  0  0
    4.4331  -10.1583    3.9893 O   0  0  0  0  0  0  0  0  0  0  0  0
    4.4819   -7.7930    3.1722 C   0  0  1  0  0  0  0  0  0  0  0  0
    5.6058   -7.9094    2.0860 C   0  0  0  0  0  0  0  0  0  0  0  0
    5.6474   -9.2541    1.3113 C   0  0  0  0  0  0  0  0  0  0  0  0
    7.0263   -7.7349    2.6910 C   0  0  0  0  0  0  0  0  0  0  0  0
    2.2658   -7.7785    5.5423 C   0  0  2  0  0  0  0  0  0  0  0  0
    0.9728   -8.6778    5.2385 C   0  0  1  0  0  0  0  0  0  0  0  0
    0.7743   -9.8364    6.2426 C   0  0  0  0  0  0  0  0  0  0  0  0
   -0.1851   -7.8968    5.4883 O   0  0  0  0  0  0  0  0  0  0  0  0
   -0.9974   -7.7105    4.4406 C   0  0  0  0  0  0  0  0  0  0  0  0
   -2.0068   -7.0175    4.4155 O   0  0  0  0  0  0  0  0  0  0  0  0
   -0.4813   -8.3680    3.4354 O   0  0  0  0  0  0  0  0  0  0  0  0
    0.5752   -9.1897    3.8414 C   0  0  1  0  0  0  0  0  0  0  0  0
    1.5824   -9.5383    2.7414 C   0  0  0  0  0  0  0  0  0  0  0  0
    2.2010   -8.4154    1.8919 C   0  0  1  0  0  0  0  0  0  0  0  0
    1.0994   -7.8408    1.2035 O   0  0  0  0  0  0  0  0  0  0  0  0
    5.6209   -4.6857    0.5769 H   0  0  0  0  0  0  0  0  0  0  0  0
    7.0536   -5.5247    1.1116 H   0  0  0  0  0  0  0  0  0  0  0  0
    5.8438   -5.0070    2.2883 H   0  0  0  0  0  0  0  0  0  0  0  0
    5.3709   -7.0800    0.0813 H   0  0  0  0  0  0  0  0  0  0  0  0
    2.4813   -5.2842    3.0695 H   0  0  0  0  0  0  0  0  0  0  0  0
    1.2297   -6.3899    3.1402 H   0  0  0  0  0  0  0  0  0  0  0  0
    0.2824   -5.5013    4.9956 H   0  0  0  0  0  0  0  0  0  0  0  0
    1.4328   -4.3261    5.4386 H   0  0  0  0  0  0  0  0  0  0  0  0
    1.0526   -5.5915    6.5770 H   0  0  0  0  0  0  0  0  0  0  0  0
    5.6701   -6.1928    5.4596 H   0  0  0  0  0  0  0  0  0  0  0  0
    5.1165   -5.5389    6.9617 H   0  0  0  0  0  0  0  0  0  0  0  0
    5.5268   -8.0775    6.7921 H   0  0  0  0  0  0  0  0  0  0  0  0
    3.8901   -8.3694    8.2533 H   0  0  0  0  0  0  0  0  0  0  0  0
    3.1264  -10.2888    5.9794 H   0  0  0  0  0  0  0  0  0  0  0  0
    5.5447   -8.7726    4.7023 H   0  0  0  0  0  0  0  0  0  0  0  0
    3.6038  -10.3159    3.5638 H   0  0  0  0  0  0  0  0  0  0  0  0
    4.8328   -6.8819    3.6365 H   0  0  0  0  0  0  0  0  0  0  0  0
    5.9687  -10.0788    1.9478 H   0  0  0  0  0  0  0  0  0  0  0  0
    6.3714   -9.2027    0.4958 H   0  0  0  0  0  0  0  0  0  0  0  0
    4.7026   -9.5455    0.8615 H   0  0  0  0  0  0  0  0  0  0  0  0
    7.3006   -8.5930    3.3065 H   0  0  0  0  0  0  0  0  0  0  0  0
    7.1123   -6.8455    3.3174 H   0  0  0  0  0  0  0  0  0  0  0  0
    7.7840   -7.6620    1.9078 H   0  0  0  0  0  0  0  0  0  0  0  0
    2.0238   -7.5604    6.5778 H   0  0  0  0  0  0  0  0  0  0  0  0
    1.3840  -10.7015    5.9780 H   0  0  0  0  0  0  0  0  0  0  0  0
   -0.2580  -10.1914    6.2421 H   0  0  0  0  0  0  0  0  0  0  0  0
    1.0078   -9.5458    7.2690 H   0  0  0  0  0  0  0  0  0  0  0  0
    0.0602  -10.1326    4.0067 H   0  0  0  0  0  0  0  0  0  0  0  0
    2.2996  -10.2425    3.1253 H   0  0  0  0  0  0  0  0  0  0  0  0
    1.0231  -10.1650    2.0401 H   0  0  0  0  0  0  0  0  0  0  0  0
    2.7495   -8.9173    1.1051 H   0  0  0  0  0  0  0  0  0  0  0  0
    0.6733   -8.5217    0.6885 H   0  0  0  0  0  0  0  0  0  0  0  0
  1  2  1  0
  1 33  1  0
  1 34  1  0
  1 35  1  0
  2 19  1  0
  2  3  1  0
  2 36  1  6
  3  4  2  0
  5  3  1  6
  5 18  1  0
  5 31  1  0
  5  6  1  0
  6  7  1  0
  6 37  1  0
  6 38  1  0
  7 22  1  0
  7  8  1  1
  7  9  1  0
  8 39  1  0
  8 40  1  0
  8 41  1  0
  9 10  2  0
  9 11  1  0
 11 12  1  0
 11 42  1  0
 11 43  1  0
 12 13  1  0
 12 14  1  0
 12 44  1  1
 13 45  1  0
 14 15  1  1
 14 16  1  0
 14 22  1  0
 15 46  1  0
 16 17  1  0
 16 18  1  0
 16 47  1  1
 17 48  1  0
 18 19  1  0
 18 49  1  1
 19 20  1  0
 19 21  1  0
 20 50  1  0
 20 51  1  0
 20 52  1  0
 21 53  1  0
 21 54  1  0
 21 55  1  0
 22 23  1  0
 22 56  1  1
 23 29  1  0
 23 24  1  1
 23 25  1  0
 24 57  1  0
 24 58  1  0
 24 59  1  0
 25 26  1  0
 26 27  2  0
 26 28  1  0
 28 29  1  0
 29 30  1  0
 29 60  1  1
 30 31  1  0
 30 61  1  0
 30 62  1  0
 31 32  1  0
 31 63  1  6
 32 64  1  0
M  END
>  <i_m_ct_stereo_status>  (179) 
1

>  <s_m_source_file>  (179) 
/var/tmp/pbs.5076255.sched01/tmpc2azvghe/701e6xuegj.sdf

>  <i_m_source_file_index>  (179) 
10

>  <i_lp_mmshare_version>  (179) 
48012

>  <i_f3d_flags>  (179) 
0

>  <s_epik_input>  (179) 
Tz1DMVtDQEBIXShbQ0gzXSlDKFtDSDNdKShbQ0gzXSlbQ0BASF0oW0NAXTEyMylbQ0BIXShbT0hdKVtDQF00KFtPSF0pW0NAQEhdKFtDQEBdKFtDSDJdMikoW0NIM10pQyg9TylbQ0gyXVtDQEhdNFtPSF0pW0NAXTUoW0NIM10pW0NAQEhdKE9DKE81KT1PKVtDSDJdW0NASF0zW09IXQ==

>  <s_epik_cmdline>  (179) 
J2VwaWtfcHl0aG9uJywgJy1waHQnLCAnMi4wJywgJy1waCcsICc3LjAnLCAnLXRuJywgJzgnLCAnLW1hJywgJzIwMCcsICctaW1hZScsICc8aW5maWxlLm1hZT4nLCAnLW9tYWUnLCAnPG91dGZpbGUubWFlPic=

>  <r_lp_tautomer_probability>  (179) 
1

>  <r_epik_Ionization_Penalty>  (179) 
3.4865e-07

>  <r_epik_Ionization_Penalty_Charging>  (179) 
0

>  <r_epik_Ionization_Penalty_Neutral>  (179) 
3.4865e-07

>  <r_epik_State_Penalty>  (179) 
-0

>  <r_epik_Charging_Adjusted_Penalty>  (179) 
0

>  <i_epik_Tot_Q>  (179) 
0

>  <i_epik_Tot_abs_Q>  (179) 
0

>  <s_epik_Chemistry_Notes>  (179) 
This compound has an ester and may undergo hydrolysis at high or low pH.

>  <s_lp_Force_Field>  (179) 
OPLS3e

>  <r_lp_Energy>  (179) 
72.8772

>  <b_lp_Chiralities_Consistent>  (179) 
1

>  <s_lp_Variant>  (179) 
66:0-1

>  <s_i_glide_gridfile>  (179) 
pfpi4k_grid

>  <i_i_glide_lignum>  (179) 
10

>  <i_i_glide_rotatable_bonds>  (179) 
4

>  <r_i_docking_score>  (179) 
-3.00763

>  <r_i_glide_ligand_efficiency>  (179) 
-0.0939886

>  <r_i_glide_ligand_efficiency_sa>  (179) 
-0.298395

>  <r_i_glide_ligand_efficiency_ln>  (179) 
-0.673491

>  <r_i_glide_gscore>  (179) 
-3.00763

>  <r_i_glide_lipo>  (179) 
-0.297338

>  <r_i_glide_hbond>  (179) 
0

>  <r_i_glide_metal>  (179) 
-0

>  <r_i_glide_rewards>  (179) 
-0.413645

>  <r_i_glide_evdw>  (179) 
-25.4176

>  <r_i_glide_ecoul>  (179) 
-6.43777

>  <r_i_glide_erotb>  (179) 
0

>  <r_i_glide_esite>  (179) 
-0.0601027

>  <r_i_glide_emodel>  (179) 
-38.0944

>  <r_i_glide_energy>  (179) 
-31.8554

>  <r_i_glide_einternal>  (179) 
0.710175

>  <r_i_glide_intrahb_reward>  (179) 
-0

>  <i_i_glide_confnum>  (179) 
2

>  <i_i_glide_posenum>  (179) 
21

>  <r_i_glide_eff_state_penalty>  (179) 
0

>  <ligand_id>  (179) 
66

>  <original_smiles>  (179) 
CC1C(=O)C23CC4(C)C(=O)CC(O)C(O)(C(O)C2C1(C)C)C4C1(C)OC(=O)OC1CC3O

>  <smiles>  (179) 
[H]OC1([H])C([H])([H])C(=O)C2(C([H])([H])[H])C([H])([H])C34C(=O)C([H])(C([H])([H])[H])C(C([H])([H])[H])(C([H])([H])[H])C3([H])C([H])(O[H])C1(O[H])C2([H])C1(C([H])([H])[H])OC(=O)OC1([H])C([H])([H])C4([H])O[H]

$$$$
66:0:1
     RDKit          3D

 64 68  0  0  1  0  0  0  0  0999 V2000
    4.0204   -1.2413   -0.6867 C   0  0  0  0  0  0  0  0  0  0  0  0
    4.3146   -2.7454   -0.5094 C   0  0  2  0  0  0  0  0  0  0  0  0
    3.0612   -3.4535   -0.0048 C   0  0  0  0  0  0  0  0  0  0  0  0
    2.0533   -3.5226   -0.7051 O   0  0  0  0  0  0  0  0  0  0  0  0
    3.2020   -4.0928    1.4103 C   0  0  2  0  0  0  0  0  0  0  0  0
    2.0149   -3.6383    2.3422 C   0  0  0  0  0  0  0  0  0  0  0  0
    2.2054   -3.1897    3.8183 C   0  0  2  0  0  0  0  0  0  0  0  0
    0.7964   -3.0653    4.4968 C   0  0  0  0  0  0  0  0  0  0  0  0
    2.6912   -1.6991    3.8232 C   0  0  0  0  0  0  0  0  0  0  0  0
    2.0084   -0.8123    3.3113 O   0  0  0  0  0  0  0  0  0  0  0  0
    4.0704   -1.2987    4.3475 C   0  0  0  0  0  0  0  0  0  0  0  0
    4.8197   -2.3903    5.1016 C   0  0  1  0  0  0  0  0  0  0  0  0
    4.4053   -2.2978    6.4561 O   0  0  0  0  0  0  0  0  0  0  0  0
    4.6474   -3.8189    4.4930 C   0  0  2  0  0  0  0  0  0  0  0  0
    5.4580   -4.5699    5.3772 O   0  0  0  0  0  0  0  0  0  0  0  0
    5.3488   -3.9017    3.0763 C   0  0  1  0  0  0  0  0  0  0  0  0
    6.1369   -5.0666    2.8921 O   0  0  0  0  0  0  0  0  0  0  0  0
    4.5819   -3.4586    1.7924 C   0  0  1  0  0  0  0  0  0  0  0  0
    5.4126   -3.1258    0.5081 C   0  0  0  0  0  0  0  0  0  0  0  0
    6.2367   -4.3011   -0.0579 C   0  0  0  0  0  0  0  0  0  0  0  0
    6.4275   -1.9776    0.7273 C   0  0  0  0  0  0  0  0  0  0  0  0
    3.1208   -4.2117    4.6092 C   0  0  2  0  0  0  0  0  0  0  0  0
    2.6890   -5.7538    4.7322 C   0  0  1  0  0  0  0  0  0  0  0  0
    3.3959   -6.5012    5.8948 C   0  0  0  0  0  0  0  0  0  0  0  0
    1.3285   -5.8213    5.1553 O   0  0  0  0  0  0  0  0  0  0  0  0
    0.4787   -6.4452    4.3225 C   0  0  0  0  0  0  0  0  0  0  0  0
   -0.7342   -6.5719    4.4654 O   0  0  0  0  0  0  0  0  0  0  0  0
    1.1961   -6.8501    3.2972 O   0  0  0  0  0  0  0  0  0  0  0  0
    2.5717   -6.7194    3.5305 C   0  0  1  0  0  0  0  0  0  0  0  0
    3.4587   -6.6490    2.2802 C   0  0  0  0  0  0  0  0  0  0  0  0
    3.1414   -5.6444    1.1575 C   0  0  1  0  0  0  0  0  0  0  0  0
    1.8816   -6.0511    0.6370 O   0  0  0  0  0  0  0  0  0  0  0  0
    3.1955   -1.0937   -1.3851 H   0  0  0  0  0  0  0  0  0  0  0  0
    4.8717   -0.6964   -1.0930 H   0  0  0  0  0  0  0  0  0  0  0  0
    3.7287   -0.7729    0.2538 H   0  0  0  0  0  0  0  0  0  0  0  0
    4.5449   -3.1619   -1.4899 H   0  0  0  0  0  0  0  0  0  0  0  0
    1.4778   -2.8266    1.8488 H   0  0  0  0  0  0  0  0  0  0  0  0
    1.2676   -4.4252    2.3711 H   0  0  0  0  0  0  0  0  0  0  0  0
    0.1090   -3.8577    4.2264 H   0  0  0  0  0  0  0  0  0  0  0  0
    0.2463   -2.1628    4.2244 H   0  0  0  0  0  0  0  0  0  0  0  0
    0.8788   -3.0502    5.5860 H   0  0  0  0  0  0  0  0  0  0  0  0
    4.6636   -0.9629    3.4993 H   0  0  0  0  0  0  0  0  0  0  0  0
    3.9519   -0.4176    4.9799 H   0  0  0  0  0  0  0  0  0  0  0  0
    5.8735   -2.1229    5.0985 H   0  0  0  0  0  0  0  0  0  0  0  0
    4.6785   -1.4587    6.7961 H   0  0  0  0  0  0  0  0  0  0  0  0
    5.4694   -5.4606    5.0644 H   0  0  0  0  0  0  0  0  0  0  0  0
    6.1376   -3.1554    3.1311 H   0  0  0  0  0  0  0  0  0  0  0  0
    5.5731   -5.7965    2.6999 H   0  0  0  0  0  0  0  0  0  0  0  0
    4.3004   -2.4461    2.0379 H   0  0  0  0  0  0  0  0  0  0  0  0
    7.0783   -4.5637    0.5856 H   0  0  0  0  0  0  0  0  0  0  0  0
    6.6599   -4.0042   -1.0187 H   0  0  0  0  0  0  0  0  0  0  0  0
    5.6692   -5.2091   -0.2417 H   0  0  0  0  0  0  0  0  0  0  0  0
    7.2528   -2.3170    1.3475 H   0  0  0  0  0  0  0  0  0  0  0  0
    5.9806   -1.1034    1.2045 H   0  0  0  0  0  0  0  0  0  0  0  0
    6.8684   -1.6591   -0.2173 H   0  0  0  0  0  0  0  0  0  0  0  0
    2.8995   -3.9387    5.6374 H   0  0  0  0  0  0  0  0  0  0  0  0
    4.3940   -6.8469    5.6229 H   0  0  0  0  0  0  0  0  0  0  0  0
    2.8383   -7.3962    6.1844 H   0  0  0  0  0  0  0  0  0  0  0  0
    3.4751   -5.8778    6.7873 H   0  0  0  0  0  0  0  0  0  0  0  0
    2.8184   -7.7012    3.9315 H   0  0  0  0  0  0  0  0  0  0  0  0
    4.4887   -6.6420    2.5838 H   0  0  0  0  0  0  0  0  0  0  0  0
    3.3920   -7.6376    1.8193 H   0  0  0  0  0  0  0  0  0  0  0  0
    3.8230   -5.8854    0.3503 H   0  0  0  0  0  0  0  0  0  0  0  0
    1.9334   -6.9729    0.4207 H   0  0  0  0  0  0  0  0  0  0  0  0
  1  2  1  0
  1 33  1  0
  1 34  1  0
  1 35  1  0
  2 19  1  0
  2  3  1  0
  2 36  1  6
  3  4  2  0
  5  3  1  6
  5 18  1  0
  5 31  1  0
  5  6  1  0
  6  7  1  0
  6 37  1  0
  6 38  1  0
  7 22  1  0
  7  8  1  1
  7  9  1  0
  8 39  1  0
  8 40  1  0
  8 41  1  0
  9 10  2  0
  9 11  1  0
 11 12  1  0
 11 42  1  0
 11 43  1  0
 12 13  1  0
 12 14  1  0
 12 44  1  1
 13 45  1  0
 14 15  1  1
 14 16  1  0
 14 22  1  0
 15 46  1  0
 16 17  1  0
 16 18  1  0
 16 47  1  1
 17 48  1  0
 18 19  1  0
 18 49  1  1
 19 20  1  0
 19 21  1  0
 20 50  1  0
 20 51  1  0
 20 52  1  0
 21 53  1  0
 21 54  1  0
 21 55  1  0
 22 23  1  0
 22 56  1  1
 23 29  1  0
 23 24  1  1
 23 25  1  0
 24 57  1  0
 24 58  1  0
 24 59  1  0
 25 26  1  0
 26 27  2  0
 26 28  1  0
 28 29  1  0
 29 30  1  0
 29 60  1  1
 30 31  1  0
 30 61  1  0
 30 62  1  0
 31 32  1  0
 31 63  1  6
 32 64  1  0
M  END
>  <i_m_ct_stereo_status>  (180) 
1

>  <s_m_source_file>  (180) 
/var/tmp/pbs.5076255.sched01/tmpc2azvghe/701e6xuegj.sdf

>  <i_m_source_file_index>  (180) 
10

>  <i_lp_mmshare_version>  (180) 
48012

>  <i_f3d_flags>  (180) 
0

>  <s_epik_input>  (180) 
Tz1DMVtDQEBIXShbQ0gzXSlDKFtDSDNdKShbQ0gzXSlbQ0BASF0oW0NAXTEyMylbQ0BIXShbT0hdKVtDQF00KFtPSF0pW0NAQEhdKFtDQEBdKFtDSDJdMikoW0NIM10pQyg9TylbQ0gyXVtDQEhdNFtPSF0pW0NAXTUoW0NIM10pW0NAQEhdKE9DKE81KT1PKVtDSDJdW0NASF0zW09IXQ==

>  <s_epik_cmdline>  (180) 
J2VwaWtfcHl0aG9uJywgJy1waHQnLCAnMi4wJywgJy1waCcsICc3LjAnLCAnLXRuJywgJzgnLCAnLW1hJywgJzIwMCcsICctaW1hZScsICc8aW5maWxlLm1hZT4nLCAnLW9tYWUnLCAnPG91dGZpbGUubWFlPic=

>  <r_lp_tautomer_probability>  (180) 
1

>  <r_epik_Ionization_Penalty>  (180) 
3.4865e-07

>  <r_epik_Ionization_Penalty_Charging>  (180) 
0

>  <r_epik_Ionization_Penalty_Neutral>  (180) 
3.4865e-07

>  <r_epik_State_Penalty>  (180) 
-0

>  <r_epik_Charging_Adjusted_Penalty>  (180) 
0

>  <i_epik_Tot_Q>  (180) 
0

>  <i_epik_Tot_abs_Q>  (180) 
0

>  <s_epik_Chemistry_Notes>  (180) 
This compound has an ester and may undergo hydrolysis at high or low pH.

>  <s_lp_Force_Field>  (180) 
OPLS3e

>  <r_lp_Energy>  (180) 
72.8772

>  <b_lp_Chiralities_Consistent>  (180) 
1

>  <s_lp_Variant>  (180) 
66:0-1

>  <s_i_glide_gridfile>  (180) 
pfpi4k_grid

>  <i_i_glide_lignum>  (180) 
10

>  <i_i_glide_rotatable_bonds>  (180) 
4

>  <r_i_docking_score>  (180) 
-1.93424

>  <r_i_glide_ligand_efficiency>  (180) 
-0.0604449

>  <r_i_glide_ligand_efficiency_sa>  (180) 
-0.191901

>  <r_i_glide_ligand_efficiency_ln>  (180) 
-0.433128

>  <r_i_glide_gscore>  (180) 
-1.93424

>  <r_i_glide_lipo>  (180) 
-0.294568

>  <r_i_glide_hbond>  (180) 
-0.0198674

>  <r_i_glide_metal>  (180) 
-0

>  <r_i_glide_rewards>  (180) 
-0.323899

>  <r_i_glide_evdw>  (180) 
-21.6513

>  <r_i_glide_ecoul>  (180) 
-1.25933

>  <r_i_glide_erotb>  (180) 
0

>  <r_i_glide_esite>  (180) 
-0.0244397

>  <r_i_glide_emodel>  (180) 
-26.7407

>  <r_i_glide_energy>  (180) 
-22.9106

>  <r_i_glide_einternal>  (180) 
0.702281

>  <r_i_glide_intrahb_reward>  (180) 
-0

>  <i_i_glide_confnum>  (180) 
2

>  <i_i_glide_posenum>  (180) 
27

>  <r_i_glide_eff_state_penalty>  (180) 
0

>  <ligand_id>  (180) 
66

>  <original_smiles>  (180) 
CC1C(=O)C23CC4(C)C(=O)CC(O)C(O)(C(O)C2C1(C)C)C4C1(C)OC(=O)OC1CC3O

>  <smiles>  (180) 
[H]OC1([H])C([H])([H])C(=O)C2(C([H])([H])[H])C([H])([H])C34C(=O)C([H])(C([H])([H])[H])C(C([H])([H])[H])(C([H])([H])[H])C3([H])C([H])(O[H])C1(O[H])C2([H])C1(C([H])([H])[H])OC(=O)OC1([H])C([H])([H])C4([H])O[H]

$$$$
66:0:2
     RDKit          3D

 64 68  0  0  1  0  0  0  0  0999 V2000
    4.0191   -1.2339   -0.8536 C   0  0  0  0  0  0  0  0  0  0  0  0
    4.3183   -2.7230   -0.5852 C   0  0  2  0  0  0  0  0  0  0  0  0
    3.0687   -3.4045   -0.0364 C   0  0  0  0  0  0  0  0  0  0  0  0
    2.0589   -3.5192   -0.7236 O   0  0  0  0  0  0  0  0  0  0  0  0
    3.2105   -3.9548    1.4139 C   0  0  2  0  0  0  0  0  0  0  0  0
    2.0235   -3.4476    2.3134 C   0  0  0  0  0  0  0  0  0  0  0  0
    2.2069   -2.9145    3.7583 C   0  0  2  0  0  0  0  0  0  0  0  0
    0.7984   -2.7586    4.4264 C   0  0  0  0  0  0  0  0  0  0  0  0
    2.6821   -1.4218    3.6755 C   0  0  0  0  0  0  0  0  0  0  0  0
    1.9939   -0.5719    3.1114 O   0  0  0  0  0  0  0  0  0  0  0  0
    4.0543   -0.9890    4.1864 C   0  0  0  0  0  0  0  0  0  0  0  0
    4.8099   -2.0364    4.9985 C   0  0  1  0  0  0  0  0  0  0  0  0
    4.4613   -1.8829    6.3664 O   0  0  0  0  0  0  0  0  0  0  0  0
    4.6550   -3.5014    4.4614 C   0  0  2  0  0  0  0  0  0  0  0  0
    5.4751   -4.2331    5.3583 O   0  0  0  0  0  0  0  0  0  0  0  0
    5.3526   -3.6477    3.0482 C   0  0  1  0  0  0  0  0  0  0  0  0
    6.0900   -4.8441    2.8940 O   0  0  0  0  0  0  0  0  0  0  0  0
    4.5833   -3.2853    1.7511 C   0  0  1  0  0  0  0  0  0  0  0  0
    5.4176   -3.0368    0.4531 C   0  0  0  0  0  0  0  0  0  0  0  0
    6.2452   -4.2435   -0.0425 C   0  0  0  0  0  0  0  0  0  0  0  0
    6.4269   -1.8715    0.6147 C   0  0  0  0  0  0  0  0  0  0  0  0
    3.1303   -3.8863    4.6034 C   0  0  2  0  0  0  0  0  0  0  0  0
    2.7068   -5.4183    4.8215 C   0  0  1  0  0  0  0  0  0  0  0  0
    3.4118   -6.0896    6.0304 C   0  0  0  0  0  0  0  0  0  0  0  0
    1.3505   -5.4598    5.2521 O   0  0  0  0  0  0  0  0  0  0  0  0
    0.5032   -6.1384    4.4661 C   0  0  0  0  0  0  0  0  0  0  0  0
   -0.7077   -6.2580    4.6235 O   0  0  0  0  0  0  0  0  0  0  0  0
    1.2152   -6.6072    3.4667 O   0  0  0  0  0  0  0  0  0  0  0  0
    2.5899   -6.4552    3.6850 C   0  0  1  0  0  0  0  0  0  0  0  0
    3.4684   -6.4586    2.4292 C   0  0  0  0  0  0  0  0  0  0  0  0
    3.1542   -5.5201    1.2532 C   0  0  1  0  0  0  0  0  0  0  0  0
    1.8971   -5.9657    0.7539 O   0  0  0  0  0  0  0  0  0  0  0  0
    3.1914   -1.1333   -1.5564 H   0  0  0  0  0  0  0  0  0  0  0  0
    4.8670   -0.7092   -1.2925 H   0  0  0  0  0  0  0  0  0  0  0  0
    3.7246   -0.7121    0.0576 H   0  0  0  0  0  0  0  0  0  0  0  0
    4.5464   -3.1994   -1.5389 H   0  0  0  0  0  0  0  0  0  0  0  0
    1.4800   -2.6721    1.7699 H   0  0  0  0  0  0  0  0  0  0  0  0
    1.2857   -4.2394    2.4011 H   0  0  0  0  0  0  0  0  0  0  0  0
    0.1132   -3.5672    4.1994 H   0  0  0  0  0  0  0  0  0  0  0  0
    0.2458   -1.8765    4.0998 H   0  0  0  0  0  0  0  0  0  0  0  0
    0.8772   -2.6793    5.5130 H   0  0  0  0  0  0  0  0  0  0  0  0
    4.6474   -0.7017    3.3177 H   0  0  0  0  0  0  0  0  0  0  0  0
    3.9400   -0.0714    4.7640 H   0  0  0  0  0  0  0  0  0  0  0  0
    5.8471   -1.7343    4.9521 H   0  0  0  0  0  0  0  0  0  0  0  0
    3.5454   -2.0967    6.4814 H   0  0  0  0  0  0  0  0  0  0  0  0
    6.3176   -3.8093    5.4032 H   0  0  0  0  0  0  0  0  0  0  0  0
    6.1517   -2.9083    3.0630 H   0  0  0  0  0  0  0  0  0  0  0  0
    6.6138   -4.9732    3.6736 H   0  0  0  0  0  0  0  0  0  0  0  0
    4.2946   -2.2632    1.9356 H   0  0  0  0  0  0  0  0  0  0  0  0
    7.0869   -4.4642    0.6159 H   0  0  0  0  0  0  0  0  0  0  0  0
    6.6666   -3.9992   -1.0180 H   0  0  0  0  0  0  0  0  0  0  0  0
    5.6799   -5.1634   -0.1716 H   0  0  0  0  0  0  0  0  0  0  0  0
    7.2442   -2.1544    1.2764 H   0  0  0  0  0  0  0  0  0  0  0  0
    5.9663   -0.9700    1.0235 H   0  0  0  0  0  0  0  0  0  0  0  0
    6.8743   -1.6154   -0.3443 H   0  0  0  0  0  0  0  0  0  0  0  0
    2.9107   -3.5572    5.6141 H   0  0  0  0  0  0  0  0  0  0  0  0
    4.4145   -6.4385    5.7774 H   0  0  0  0  0  0  0  0  0  0  0  0
    2.8612   -6.9712    6.3682 H   0  0  0  0  0  0  0  0  0  0  0  0
    3.4859   -5.4137    6.8831 H   0  0  0  0  0  0  0  0  0  0  0  0
    2.8473   -7.4078    4.1447 H   0  0  0  0  0  0  0  0  0  0  0  0
    4.4964   -6.4376    2.7334 H   0  0  0  0  0  0  0  0  0  0  0  0
    3.4165   -7.4731    2.0308 H   0  0  0  0  0  0  0  0  0  0  0  0
    3.8392   -5.8037    0.4638 H   0  0  0  0  0  0  0  0  0  0  0  0
    1.9752   -6.8868    0.5449 H   0  0  0  0  0  0  0  0  0  0  0  0
  1  2  1  0
  1 33  1  0
  1 34  1  0
  1 35  1  0
  2 19  1  0
  2  3  1  0
  2 36  1  6
  3  4  2  0
  5  3  1  6
  5 18  1  0
  5 31  1  0
  5  6  1  0
  6  7  1  0
  6 37  1  0
  6 38  1  0
  7 22  1  0
  7  8  1  1
  7  9  1  0
  8 39  1  0
  8 40  1  0
  8 41  1  0
  9 10  2  0
  9 11  1  0
 11 12  1  0
 11 42  1  0
 11 43  1  0
 12 13  1  0
 12 14  1  0
 12 44  1  1
 13 45  1  0
 14 15  1  1
 14 16  1  0
 14 22  1  0
 15 46  1  0
 16 17  1  0
 16 18  1  0
 16 47  1  1
 17 48  1  0
 18 19  1  0
 18 49  1  1
 19 20  1  0
 19 21  1  0
 20 50  1  0
 20 51  1  0
 20 52  1  0
 21 53  1  0
 21 54  1  0
 21 55  1  0
 22 23  1  0
 22 56  1  1
 23 29  1  0
 23 24  1  1
 23 25  1  0
 24 57  1  0
 24 58  1  0
 24 59  1  0
 25 26  1  0
 26 27  2  0
 26 28  1  0
 28 29  1  0
 29 30  1  0
 29 60  1  1
 30 31  1  0
 30 61  1  0
 30 62  1  0
 31 32  1  0
 31 63  1  6
 32 64  1  0
M  END
>  <i_m_ct_stereo_status>  (181) 
1

>  <s_m_source_file>  (181) 
/var/tmp/pbs.5076255.sched01/tmpc2azvghe/701e6xuegj.sdf

>  <i_m_source_file_index>  (181) 
10

>  <i_lp_mmshare_version>  (181) 
48012

>  <i_f3d_flags>  (181) 
0

>  <s_epik_input>  (181) 
Tz1DMVtDQEBIXShbQ0gzXSlDKFtDSDNdKShbQ0gzXSlbQ0BASF0oW0NAXTEyMylbQ0BIXShbT0hdKVtDQF00KFtPSF0pW0NAQEhdKFtDQEBdKFtDSDJdMikoW0NIM10pQyg9TylbQ0gyXVtDQEhdNFtPSF0pW0NAXTUoW0NIM10pW0NAQEhdKE9DKE81KT1PKVtDSDJdW0NASF0zW09IXQ==

>  <s_epik_cmdline>  (181) 
J2VwaWtfcHl0aG9uJywgJy1waHQnLCAnMi4wJywgJy1waCcsICc3LjAnLCAnLXRuJywgJzgnLCAnLW1hJywgJzIwMCcsICctaW1hZScsICc8aW5maWxlLm1hZT4nLCAnLW9tYWUnLCAnPG91dGZpbGUubWFlPic=

>  <r_lp_tautomer_probability>  (181) 
1

>  <r_epik_Ionization_Penalty>  (181) 
3.4865e-07

>  <r_epik_Ionization_Penalty_Charging>  (181) 
0

>  <r_epik_Ionization_Penalty_Neutral>  (181) 
3.4865e-07

>  <r_epik_State_Penalty>  (181) 
-0

>  <r_epik_Charging_Adjusted_Penalty>  (181) 
0

>  <i_epik_Tot_Q>  (181) 
0

>  <i_epik_Tot_abs_Q>  (181) 
0

>  <s_epik_Chemistry_Notes>  (181) 
This compound has an ester and may undergo hydrolysis at high or low pH.

>  <s_lp_Force_Field>  (181) 
OPLS3e

>  <r_lp_Energy>  (181) 
72.8772

>  <b_lp_Chiralities_Consistent>  (181) 
1

>  <s_lp_Variant>  (181) 
66:0-1

>  <s_i_glide_gridfile>  (181) 
pfpi4k_grid

>  <i_i_glide_lignum>  (181) 
10

>  <i_i_glide_rotatable_bonds>  (181) 
4

>  <r_i_docking_score>  (181) 
-1.85768

>  <r_i_glide_ligand_efficiency>  (181) 
-0.0580525

>  <r_i_glide_ligand_efficiency_sa>  (181) 
-0.184305

>  <r_i_glide_ligand_efficiency_ln>  (181) 
-0.415985

>  <r_i_glide_gscore>  (181) 
-1.85768

>  <r_i_glide_lipo>  (181) 
-0.301168

>  <r_i_glide_hbond>  (181) 
-0.0190338

>  <r_i_glide_metal>  (181) 
-0

>  <r_i_glide_rewards>  (181) 
-0.323899

>  <r_i_glide_evdw>  (181) 
-21.4721

>  <r_i_glide_ecoul>  (181) 
-0.814298

>  <r_i_glide_erotb>  (181) 
0

>  <r_i_glide_esite>  (181) 
-0.0178294

>  <r_i_glide_emodel>  (181) 
-25.8602

>  <r_i_glide_energy>  (181) 
-22.2864

>  <r_i_glide_einternal>  (181) 
0.719481

>  <r_i_glide_intrahb_reward>  (181) 
-0

>  <i_i_glide_confnum>  (181) 
2

>  <i_i_glide_posenum>  (181) 
1

>  <r_i_glide_eff_state_penalty>  (181) 
0

>  <ligand_id>  (181) 
66

>  <original_smiles>  (181) 
CC1C(=O)C23CC4(C)C(=O)CC(O)C(O)(C(O)C2C1(C)C)C4C1(C)OC(=O)OC1CC3O

>  <smiles>  (181) 
[H]OC1([H])C([H])([H])C(=O)C2(C([H])([H])[H])C([H])([H])C34C(=O)C([H])(C([H])([H])[H])C(C([H])([H])[H])(C([H])([H])[H])C3([H])C([H])(O[H])C1(O[H])C2([H])C1(C([H])([H])[H])OC(=O)OC1([H])C([H])([H])C4([H])O[H]

$$$$
68:0:0
     RDKit          3D

 75 81  0  0  1  0  0  0  0  0999 V2000
    2.6530   -2.3526    5.4781 C   0  0  0  0  0  0  0  0  0  0  0  0
    3.0671   -1.2718    6.4718 C   0  0  0  0  0  0  0  0  0  0  0  0
    2.7450    0.0389    6.4496 C   0  0  0  0  0  0  0  0  0  0  0  0
    1.8936    0.7136    5.3954 C   0  0  1  0  0  0  0  0  0  0  0  0
    0.6844    1.3768    6.0570 C   0  0  0  0  0  0  0  0  0  0  0  0
    1.0046    2.3053    7.2791 C   0  0  1  0  0  0  0  0  0  0  0  0
    1.9377    1.5469    8.2735 C   0  0  0  0  0  0  0  0  0  0  0  0
    1.2068    0.4253    9.0578 C   0  0  0  0  0  0  0  0  0  0  0  0
    1.0576    1.3685   10.2472 C   0  0  0  0  0  0  0  0  0  0  0  0
    2.2117    2.1674    9.6625 C   0  0  0  0  0  0  0  0  0  0  0  0
    3.1842    1.0447    7.4949 C   0  0  2  0  0  0  0  0  0  0  0  0
    4.0460    2.1355    6.7777 C   0  0  1  0  0  0  0  0  0  0  0  0
    4.0126    2.0982    5.2234 C   0  0  0  0  0  0  0  0  0  0  0  0
    2.6652    1.7724    4.6589 N   0  0  1  0  0  0  0  0  0  0  0  0
    2.6972    1.4916    3.1942 C   0  0  0  0  0  0  0  0  0  0  0  0
    1.3219    1.7240    2.5587 C   0  0  0  0  0  0  0  0  0  0  0  0
    0.2700    0.5878    2.6016 C   0  0  0  0  0  0  0  0  0  0  0  0
    0.9395    0.9477    1.3155 C   0  0  0  0  0  0  0  0  0  0  0  0
    4.0233    3.5421    7.4070 C   0  0  1  0  0  0  0  0  0  0  0  0
    5.3310    4.3104    7.1358 C   0  0  0  0  0  0  0  0  0  0  0  0
    2.7409    4.4278    7.2796 C   0  0  1  0  0  0  0  0  0  0  0  0
    2.8037    5.5595    6.2853 C   0  0  0  0  0  0  0  0  0  0  0  0
    1.7028    5.6621    5.5467 C   0  0  0  0  0  0  0  0  0  0  0  0
    0.6958    4.5451    5.7530 C   0  0  1  0  0  0  0  0  0  0  0  0
   -0.8112    4.9723    5.8016 C   0  0  0  0  0  0  0  0  0  0  0  0
   -1.3674    4.5498    4.5247 N   0  0  0  0  0  0  0  0  0  0  0  0
   -2.2070    3.3714    4.6484 C   0  0  0  0  0  0  0  0  0  0  0  0
   -0.2317    4.3601    3.7072 C   0  0  0  0  0  0  0  0  0  0  0  0
    0.7313    3.8039    4.5365 O   0  0  0  0  0  0  0  0  0  0  0  0
    1.2723    3.8616    7.0805 C   0  0  1  0  0  0  0  0  0  0  0  0
    0.4867    4.3704    8.1964 O   0  0  0  0  0  0  0  0  0  0  0  0
    0.3818    5.7659    8.5380 C   0  0  0  0  0  0  0  0  0  0  0  0
    3.5464   -2.8292    5.0804 H   0  0  0  0  0  0  0  0  0  0  0  0
    2.0652   -2.0124    4.6269 H   0  0  0  0  0  0  0  0  0  0  0  0
    2.0752   -3.1254    5.9852 H   0  0  0  0  0  0  0  0  0  0  0  0
    3.6566   -1.6412    7.3032 H   0  0  0  0  0  0  0  0  0  0  0  0
    1.5257   -0.0380    4.7053 H   0  0  0  0  0  0  0  0  0  0  0  0
    0.0846    1.8324    5.2946 H   0  0  0  0  0  0  0  0  0  0  0  0
    0.0798    0.5490    6.4342 H   0  0  0  0  0  0  0  0  0  0  0  0
    0.0230    2.2951    7.7505 H   0  0  0  0  0  0  0  0  0  0  0  0
    0.2483    0.0921    8.6538 H   0  0  0  0  0  0  0  0  0  0  0  0
    1.8485   -0.4293    9.2748 H   0  0  0  0  0  0  0  0  0  0  0  0
    0.1179    1.9235   10.2432 H   0  0  0  0  0  0  0  0  0  0  0  0
    1.2713    0.9105   11.2136 H   0  0  0  0  0  0  0  0  0  0  0  0
    3.1723    1.8423   10.0604 H   0  0  0  0  0  0  0  0  0  0  0  0
    2.0888    3.2479    9.7566 H   0  0  0  0  0  0  0  0  0  0  0  0
    3.8462    0.4942    8.1727 H   0  0  0  0  0  0  0  0  0  0  0  0
    5.0585    1.7779    6.9726 H   0  0  0  0  0  0  0  0  0  0  0  0
    4.3679    3.0373    4.7927 H   0  0  0  0  0  0  0  0  0  0  0  0
    4.6815    1.3048    4.8783 H   0  0  0  0  0  0  0  0  0  0  0  0
    3.3292    2.2338    2.7394 H   0  0  0  0  0  0  0  0  0  0  0  0
    3.1661    0.5037    2.9895 H   0  0  0  0  0  0  0  0  0  0  0  0
    1.1271    2.7580    2.3166 H   0  0  0  0  0  0  0  0  0  0  0  0
    0.4958   -0.4273    2.9883 H   0  0  0  0  0  0  0  0  0  0  0  0
   -0.7346    0.9589    2.7840 H   0  0  0  0  0  0  0  0  0  0  0  0
    0.3257    1.4964    0.6199 H   0  0  0  0  0  0  0  0  0  0  0  0
    1.6423    0.2369    0.8728 H   0  0  0  0  0  0  0  0  0  0  0  0
    4.1268    3.3326    8.4690 H   0  0  0  0  0  0  0  0  0  0  0  0
    5.4441    4.5874    6.0890 H   0  0  0  0  0  0  0  0  0  0  0  0
    6.1975    3.7154    7.4241 H   0  0  0  0  0  0  0  0  0  0  0  0
    5.3539    5.2151    7.7368 H   0  0  0  0  0  0  0  0  0  0  0  0
    2.7844    4.9476    8.2333 H   0  0  0  0  0  0  0  0  0  0  0  0
    3.6251    6.2644    6.2653 H   0  0  0  0  0  0  0  0  0  0  0  0
    1.5406    6.4589    4.8418 H   0  0  0  0  0  0  0  0  0  0  0  0
   -1.3380    4.5289    6.6443 H   0  0  0  0  0  0  0  0  0  0  0  0
   -0.8857    6.0609    5.8949 H   0  0  0  0  0  0  0  0  0  0  0  0
   -2.5687    3.0733    3.6523 H   0  0  0  0  0  0  0  0  0  0  0  0
   -3.0832    3.6093    5.2555 H   0  0  0  0  0  0  0  0  0  0  0  0
   -1.6748    2.5362    5.0900 H   0  0  0  0  0  0  0  0  0  0  0  0
   -0.4516    3.7144    2.8599 H   0  0  0  0  0  0  0  0  0  0  0  0
    0.1580    5.3138    3.3265 H   0  0  0  0  0  0  0  0  0  0  0  0
   -0.3831    5.8793    9.3034 H   0  0  0  0  0  0  0  0  0  0  0  0
    0.0826    6.4157    7.7229 H   0  0  0  0  0  0  0  0  0  0  0  0
    1.2938    6.1856    8.9511 H   0  0  0  0  0  0  0  0  0  0  0  0
    2.1274    2.6422    4.7577 H   0  0  0  0  0  0  0  0  0  0  0  0
  1  2  1  0
  1 33  1  0
  1 34  1  0
  1 35  1  0
  2  3  2  3
  2 36  1  0
  3 11  1  0
  3  4  1  0
  4 14  1  0
  4  5  1  0
  4 37  1  6
  5  6  1  0
  5 38  1  0
  5 39  1  0
  6 30  1  0
  6  7  1  0
  6 40  1  1
  7 10  1  0
  7  8  1  0
  7 11  1  0
  8  9  1  0
  8 41  1  0
  8 42  1  0
  9 10  1  0
  9 43  1  0
  9 44  1  0
 10 45  1  0
 10 46  1  0
 11 12  1  0
 11 47  1  1
 12 13  1  0
 12 19  1  0
 12 48  1  6
 13 14  1  0
 13 49  1  0
 13 50  1  0
 14 15  1  0
 14 75  1  6
 15 16  1  0
 15 51  1  0
 15 52  1  0
 16 18  1  0
 16 17  1  0
 16 53  1  0
 17 18  1  0
 17 54  1  0
 17 55  1  0
 18 56  1  0
 18 57  1  0
 19 20  1  0
 19 21  1  0
 19 58  1  1
 20 59  1  0
 20 60  1  0
 20 61  1  0
 21 30  1  0
 21 22  1  0
 21 62  1  1
 22 23  2  0
 22 63  1  0
 23 24  1  0
 23 64  1  0
 24 29  1  6
 24 25  1  0
 24 30  1  0
 25 26  1  0
 25 65  1  0
 25 66  1  0
 26 27  1  0
 26 28  1  0
 27 67  1  0
 27 68  1  0
 27 69  1  0
 28 29  1  0
 28 70  1  0
 28 71  1  0
 30 31  1  1
 31 32  1  0
 32 72  1  0
 32 73  1  0
 32 74  1  0
M  CHG  1  14   1
M  END
>  <i_m_ct_stereo_status>  (182) 
1

>  <s_m_source_file>  (182) 
/var/tmp/pbs.5076255.sched01/tmpc2azvghe/701e6xuegj.sdf

>  <i_m_source_file_index>  (182) 
12

>  <i_lp_mmshare_version>  (182) 
48012

>  <i_f3d_flags>  (182) 
0

>  <s_epik_input>  (182) 
W0NIMl0xW0NIMl1bQ0hdMVtDSDJdTihbQ0gyXTIpW0NASF0oW0NIMl0zKS9DKD1bQ0hdXFtDSDNdKVtDQEhdNFtDQEBIXTJbQ0BASF0oW0NIM10pW0NASF01W0NIXT1bQ0hdW0NAXTYoW0NIMl1OKFtDSDNdKVtDSDJdTzYpW0NAQF01KE9bQ0gzXSlbQ0BASF0zQzQ3W0NIMl1bQ0gyXVtDSDJdNw==

>  <s_epik_cmdline>  (182) 
J2VwaWtfcHl0aG9uJywgJy1waHQnLCAnMi4wJywgJy1waCcsICc3LjAnLCAnLXRuJywgJzgnLCAnLW1hJywgJzIwMCcsICctaW1hZScsICc8aW5maWxlLm1hZT4nLCAnLW9tYWUnLCAnPG91dGZpbGUubWFlPic=

>  <r_epik_Ionization_Penalty>  (182) 
0.114737

>  <r_epik_Ionization_Penalty_Charging>  (182) 
0.00166316

>  <r_epik_Ionization_Penalty_Neutral>  (182) 
0.113074

>  <r_epik_State_Penalty>  (182) 
0.106538

>  <r_epik_Charging_Adjusted_Penalty>  (182) 
0.108201

>  <i_epik_Tot_Q>  (182) 
1

>  <i_epik_Tot_abs_Q>  (182) 
1

>  <s_epik_Chemistry_Notes>  (182) 
This compound contains an acetal/aminal-like group ( X-CH(R)-Y where X, Y are N, S, or O) that may be acid/base labile, releasing an aldehyde.

>  <s_lp_Force_Field>  (182) 
OPLS3e

>  <r_lp_Energy>  (182) 
99.3739

>  <b_lp_Chiralities_Consistent>  (182) 
1

>  <s_lp_Variant>  (182) 
68:0-1

>  <s_i_glide_gridfile>  (182) 
pfpi4k_grid

>  <i_i_glide_lignum>  (182) 
12

>  <i_i_glide_rotatable_bonds>  (182) 
3

>  <r_i_docking_score>  (182) 
-2.09578

>  <r_i_glide_ligand_efficiency>  (182) 
-0.065493

>  <r_i_glide_ligand_efficiency_sa>  (182) 
-0.207927

>  <r_i_glide_ligand_efficiency_ln>  (182) 
-0.469301

>  <r_i_glide_gscore>  (182) 
-2.09578

>  <r_i_glide_lipo>  (182) 
-0.00253988

>  <r_i_glide_hbond>  (182) 
-0.0637049

>  <r_i_glide_metal>  (182) 
-0

>  <r_i_glide_rewards>  (182) 
-0.911455

>  <r_i_glide_evdw>  (182) 
-12.1137

>  <r_i_glide_ecoul>  (182) 
-4.11275

>  <r_i_glide_erotb>  (182) 
0.206524

>  <r_i_glide_esite>  (182) 
-0.102003

>  <r_i_glide_emodel>  (182) 
-20.8277

>  <r_i_glide_energy>  (182) 
-16.2264

>  <r_i_glide_einternal>  (182) 
0.975639

>  <r_i_glide_intrahb_reward>  (182) 
-0.5

>  <i_i_glide_confnum>  (182) 
2

>  <i_i_glide_posenum>  (182) 
33

>  <r_i_glide_eff_state_penalty>  (182) 
0

>  <ligand_id>  (182) 
68

>  <original_smiles>  (182) 
CC=C1C2CC3C4(CCC4)C1C(CN2CC1CC1)C(C)C1C=CC2(CN(C)CO2)C13OC

>  <smiles>  (182) 
[H]C(=C1C2([H])C3([H])C([H])(C([H])([H])[H])C4([H])C([H])=C([H])C5(OC([H])([H])N(C([H])([H])[H])C5([H])[H])C4(OC([H])([H])[H])C([H])(C([H])([H])C1([H])[N+]([H])(C([H])([H])C1([H])C([H])([H])C1([H])[H])C3([H])[H])C21C([H])([H])C([H])([H])C1([H])[H])C([H])([H])[H]

$$$$
68:0:1
     RDKit          3D

 75 81  0  0  1  0  0  0  0  0999 V2000
    4.6698   -9.4382    0.8859 C   0  0  0  0  0  0  0  0  0  0  0  0
    3.8260   -9.2505    2.1401 C   0  0  0  0  0  0  0  0  0  0  0  0
    3.5625   -8.1043    2.7989 C   0  0  0  0  0  0  0  0  0  0  0  0
    4.0813   -6.7351    2.4468 C   0  0  1  0  0  0  0  0  0  0  0  0
    2.8981   -5.7929    2.1984 C   0  0  0  0  0  0  0  0  0  0  0  0
    1.8314   -5.7530    3.3377 C   0  0  1  0  0  0  0  0  0  0  0  0
    1.4128   -7.1947    3.7022 C   0  0  0  0  0  0  0  0  0  0  0  0
    0.5191   -7.8708    2.6190 C   0  0  0  0  0  0  0  0  0  0  0  0
   -0.7150   -7.5406    3.4478 C   0  0  0  0  0  0  0  0  0  0  0  0
    0.2091   -7.4146    4.6448 C   0  0  0  0  0  0  0  0  0  0  0  0
    2.6954   -8.0101    4.0317 C   0  0  2  0  0  0  0  0  0  0  0  0
    3.5655   -7.4713    5.2059 C   0  0  1  0  0  0  0  0  0  0  0  0
    4.9664   -6.9170    4.7843 C   0  0  0  0  0  0  0  0  0  0  0  0
    4.9566   -6.1561    3.4989 N   0  0  1  0  0  0  0  0  0  0  0  0
    6.3451   -5.8876    3.0017 C   0  0  0  0  0  0  0  0  0  0  0  0
    6.3422   -4.7185    2.0154 C   0  0  0  0  0  0  0  0  0  0  0  0
    6.2218   -4.9371    0.5111 C   0  0  0  0  0  0  0  0  0  0  0  0
    7.5018   -4.3942    1.0999 C   0  0  0  0  0  0  0  0  0  0  0  0
    2.8352   -6.6663    6.3002 C   0  0  1  0  0  0  0  0  0  0  0  0
    3.5361   -6.7777    7.6680 C   0  0  0  0  0  0  0  0  0  0  0  0
    2.3154   -5.2258    5.9848 C   0  0  1  0  0  0  0  0  0  0  0  0
    3.1080   -4.0761    6.5603 C   0  0  0  0  0  0  0  0  0  0  0  0
    3.2941   -3.0891    5.7055 C   0  0  0  0  0  0  0  0  0  0  0  0
    2.8159   -3.3802    4.2914 C   0  0  1  0  0  0  0  0  0  0  0  0
    2.0916   -2.1918    3.5534 C   0  0  0  0  0  0  0  0  0  0  0  0
    3.0567   -1.6888    2.6017 N   0  0  0  0  0  0  0  0  0  0  0  0
    2.7544   -2.1174    1.2222 C   0  0  0  0  0  0  0  0  0  0  0  0
    4.2836   -2.1976    3.0583 C   0  0  0  0  0  0  0  0  0  0  0  0
    3.9983   -3.4872    3.5261 O   0  0  0  0  0  0  0  0  0  0  0  0
    1.9417   -4.6963    4.5335 C   0  0  1  0  0  0  0  0  0  0  0  0
    0.5503   -4.2809    4.6034 O   0  0  0  0  0  0  0  0  0  0  0  0
    0.0494   -3.3201    5.5529 C   0  0  0  0  0  0  0  0  0  0  0  0
    5.4477  -10.1721    1.0944 H   0  0  0  0  0  0  0  0  0  0  0  0
    5.1441   -8.5334    0.5140 H   0  0  0  0  0  0  0  0  0  0  0  0
    4.0415   -9.8450    0.0916 H   0  0  0  0  0  0  0  0  0  0  0  0
    3.3632  -10.1633    2.4951 H   0  0  0  0  0  0  0  0  0  0  0  0
    4.6092   -6.7992    1.5036 H   0  0  0  0  0  0  0  0  0  0  0  0
    3.3067   -4.8537    1.9187 H   0  0  0  0  0  0  0  0  0  0  0  0
    2.4019   -6.1696    1.2934 H   0  0  0  0  0  0  0  0  0  0  0  0
    1.0013   -5.3470    2.7599 H   0  0  0  0  0  0  0  0  0  0  0  0
    0.5257   -7.4064    1.6311 H   0  0  0  0  0  0  0  0  0  0  0  0
    0.6924   -8.9477    2.5311 H   0  0  0  0  0  0  0  0  0  0  0  0
   -1.1707   -6.5894    3.1769 H   0  0  0  0  0  0  0  0  0  0  0  0
   -1.4445   -8.3475    3.5166 H   0  0  0  0  0  0  0  0  0  0  0  0
    0.2862   -8.3577    5.1945 H   0  0  0  0  0  0  0  0  0  0  0  0
   -0.0460   -6.5949    5.3166 H   0  0  0  0  0  0  0  0  0  0  0  0
    2.4143   -9.0390    4.2769 H   0  0  0  0  0  0  0  0  0  0  0  0
    3.8495   -8.3959    5.7139 H   0  0  0  0  0  0  0  0  0  0  0  0
    5.3963   -6.3007    5.5819 H   0  0  0  0  0  0  0  0  0  0  0  0
    5.6398   -7.7689    4.6415 H   0  0  0  0  0  0  0  0  0  0  0  0
    6.9227   -5.5253    3.8458 H   0  0  0  0  0  0  0  0  0  0  0  0
    6.8277   -6.7857    2.6170 H   0  0  0  0  0  0  0  0  0  0  0  0
    6.0118   -3.7968    2.4753 H   0  0  0  0  0  0  0  0  0  0  0  0
    6.2093   -5.9584    0.1207 H   0  0  0  0  0  0  0  0  0  0  0  0
    5.5435   -4.2361    0.0269 H   0  0  0  0  0  0  0  0  0  0  0  0
    7.6612   -3.3290    0.9369 H   0  0  0  0  0  0  0  0  0  0  0  0
    8.4070   -5.0024    1.1370 H   0  0  0  0  0  0  0  0  0  0  0  0
    1.9450   -7.2625    6.4842 H   0  0  0  0  0  0  0  0  0  0  0  0
    4.4966   -6.2661    7.6907 H   0  0  0  0  0  0  0  0  0  0  0  0
    3.7051   -7.8204    7.9376 H   0  0  0  0  0  0  0  0  0  0  0  0
    2.9045   -6.3528    8.4449 H   0  0  0  0  0  0  0  0  0  0  0  0
    1.4163   -5.2178    6.5949 H   0  0  0  0  0  0  0  0  0  0  0  0
    3.4005   -4.0509    7.6105 H   0  0  0  0  0  0  0  0  0  0  0  0
    3.7781   -2.1610    5.9609 H   0  0  0  0  0  0  0  0  0  0  0  0
    1.1708   -2.5114    3.0626 H   0  0  0  0  0  0  0  0  0  0  0  0
    1.8598   -1.3758    4.2425 H   0  0  0  0  0  0  0  0  0  0  0  0
    3.5254   -1.7877    0.5314 H   0  0  0  0  0  0  0  0  0  0  0  0
    1.8131   -1.6764    0.9119 H   0  0  0  0  0  0  0  0  0  0  0  0
    2.6535   -3.1813    1.1100 H   0  0  0  0  0  0  0  0  0  0  0  0
    5.0108   -2.1451    2.2635 H   0  0  0  0  0  0  0  0  0  0  0  0
    4.6769   -1.6195    3.9032 H   0  0  0  0  0  0  0  0  0  0  0  0
   -0.9732   -3.0595    5.2836 H   0  0  0  0  0  0  0  0  0  0  0  0
    0.5871   -2.3788    5.5835 H   0  0  0  0  0  0  0  0  0  0  0  0
    0.0153   -3.6918    6.5724 H   0  0  0  0  0  0  0  0  0  0  0  0
    4.5398   -5.2595    3.7365 H   0  0  0  0  0  0  0  0  0  0  0  0
  1  2  1  0
  1 33  1  0
  1 34  1  0
  1 35  1  0
  2  3  2  3
  2 36  1  0
  3 11  1  0
  3  4  1  0
  4 14  1  0
  4  5  1  0
  4 37  1  6
  5  6  1  0
  5 38  1  0
  5 39  1  0
  6 30  1  0
  6  7  1  0
  6 40  1  6
  7 10  1  0
  7  8  1  0
  7 11  1  0
  8  9  1  0
  8 41  1  0
  8 42  1  0
  9 10  1  0
  9 43  1  0
  9 44  1  0
 10 45  1  0
 10 46  1  0
 11 12  1  0
 11 47  1  1
 12 13  1  0
 12 19  1  0
 12 48  1  1
 13 14  1  0
 13 49  1  0
 13 50  1  0
 14 15  1  0
 14 75  1  1
 15 16  1  0
 15 51  1  0
 15 52  1  0
 16 18  1  0
 16 17  1  0
 16 53  1  0
 17 18  1  0
 17 54  1  0
 17 55  1  0
 18 56  1  0
 18 57  1  0
 19 20  1  0
 19 21  1  0
 19 58  1  1
 20 59  1  0
 20 60  1  0
 20 61  1  0
 21 30  1  0
 21 22  1  0
 21 62  1  1
 22 23  2  0
 22 63  1  0
 23 24  1  0
 23 64  1  0
 24 29  1  6
 24 25  1  0
 24 30  1  0
 25 26  1  0
 25 65  1  0
 25 66  1  0
 26 27  1  0
 26 28  1  0
 27 67  1  0
 27 68  1  0
 27 69  1  0
 28 29  1  0
 28 70  1  0
 28 71  1  0
 30 31  1  1
 31 32  1  0
 32 72  1  0
 32 73  1  0
 32 74  1  0
M  CHG  1  14   1
M  END
>  <i_m_ct_stereo_status>  (183) 
1

>  <s_m_source_file>  (183) 
/var/tmp/pbs.5076255.sched01/tmpc2azvghe/701e6xuegj.sdf

>  <i_m_source_file_index>  (183) 
12

>  <i_lp_mmshare_version>  (183) 
48012

>  <i_f3d_flags>  (183) 
0

>  <s_epik_input>  (183) 
W0NIMl0xW0NIMl1bQ0hdMVtDSDJdTihbQ0gyXTIpW0NASF0oW0NIMl0zKS9DKD1bQ0hdXFtDSDNdKVtDQEhdNFtDQEBIXTJbQ0BASF0oW0NIM10pW0NASF01W0NIXT1bQ0hdW0NAXTYoW0NIMl1OKFtDSDNdKVtDSDJdTzYpW0NAQF01KE9bQ0gzXSlbQ0BASF0zQzQ3W0NIMl1bQ0gyXVtDSDJdNw==

>  <s_epik_cmdline>  (183) 
J2VwaWtfcHl0aG9uJywgJy1waHQnLCAnMi4wJywgJy1waCcsICc3LjAnLCAnLXRuJywgJzgnLCAnLW1hJywgJzIwMCcsICctaW1hZScsICc8aW5maWxlLm1hZT4nLCAnLW9tYWUnLCAnPG91dGZpbGUubWFlPic=

>  <r_epik_Ionization_Penalty>  (183) 
0.114737

>  <r_epik_Ionization_Penalty_Charging>  (183) 
0.00166316

>  <r_epik_Ionization_Penalty_Neutral>  (183) 
0.113074

>  <r_epik_State_Penalty>  (183) 
0.106538

>  <r_epik_Charging_Adjusted_Penalty>  (183) 
0.108201

>  <i_epik_Tot_Q>  (183) 
1

>  <i_epik_Tot_abs_Q>  (183) 
1

>  <s_epik_Chemistry_Notes>  (183) 
This compound contains an acetal/aminal-like group ( X-CH(R)-Y where X, Y are N, S, or O) that may be acid/base labile, releasing an aldehyde.

>  <s_lp_Force_Field>  (183) 
OPLS3e

>  <r_lp_Energy>  (183) 
99.3739

>  <b_lp_Chiralities_Consistent>  (183) 
1

>  <s_lp_Variant>  (183) 
68:0-1

>  <s_i_glide_gridfile>  (183) 
pfpi4k_grid

>  <i_i_glide_lignum>  (183) 
12

>  <i_i_glide_rotatable_bonds>  (183) 
3

>  <r_i_docking_score>  (183) 
-2.03388

>  <r_i_glide_ligand_efficiency>  (183) 
-0.0635588

>  <r_i_glide_ligand_efficiency_sa>  (183) 
-0.201787

>  <r_i_glide_ligand_efficiency_ln>  (183) 
-0.455442

>  <r_i_glide_gscore>  (183) 
-2.03388

>  <r_i_glide_lipo>  (183) 
-0.309055

>  <r_i_glide_hbond>  (183) 
0

>  <r_i_glide_metal>  (183) 
-0

>  <r_i_glide_rewards>  (183) 
-0.927703

>  <r_i_glide_evdw>  (183) 
-17.3863

>  <r_i_glide_ecoul>  (183) 
-0.895557

>  <r_i_glide_erotb>  (183) 
0.206524

>  <r_i_glide_esite>  (183) 
0

>  <r_i_glide_emodel>  (183) 
-23.7695

>  <r_i_glide_energy>  (183) 
-18.2819

>  <r_i_glide_einternal>  (183) 
0.770322

>  <r_i_glide_intrahb_reward>  (183) 
-0.5

>  <i_i_glide_confnum>  (183) 
2

>  <i_i_glide_posenum>  (183) 
13

>  <r_i_glide_eff_state_penalty>  (183) 
0

>  <ligand_id>  (183) 
68

>  <original_smiles>  (183) 
CC=C1C2CC3C4(CCC4)C1C(CN2CC1CC1)C(C)C1C=CC2(CN(C)CO2)C13OC

>  <smiles>  (183) 
[H]C(=C1C2([H])C3([H])C([H])(C([H])([H])[H])C4([H])C([H])=C([H])C5(OC([H])([H])N(C([H])([H])[H])C5([H])[H])C4(OC([H])([H])[H])C([H])(C([H])([H])C1([H])[N+]([H])(C([H])([H])C1([H])C([H])([H])C1([H])[H])C3([H])[H])C21C([H])([H])C([H])([H])C1([H])[H])C([H])([H])[H]

$$$$
68:0:2
     RDKit          3D

 75 81  0  0  1  0  0  0  0  0999 V2000
    5.5383  -11.6141    2.8888 C   0  0  0  0  0  0  0  0  0  0  0  0
    4.0859  -11.2163    3.0927 C   0  0  0  0  0  0  0  0  0  0  0  0
    3.5979  -10.2593    3.9047 C   0  0  0  0  0  0  0  0  0  0  0  0
    4.3960   -9.3553    4.8158 C   0  0  1  0  0  0  0  0  0  0  0  0
    4.1268   -7.9322    4.3901 C   0  0  0  0  0  0  0  0  0  0  0  0
    2.6338   -7.4884    4.3128 C   0  0  1  0  0  0  0  0  0  0  0  0
    1.8485   -8.5064    3.4411 C   0  0  0  0  0  0  0  0  0  0  0  0
    2.1577   -8.3803    1.9183 C   0  0  0  0  0  0  0  0  0  0  0  0
    0.8861   -7.5634    1.7248 C   0  0  0  0  0  0  0  0  0  0  0  0
    0.3842   -8.1858    3.0148 C   0  0  0  0  0  0  0  0  0  0  0  0
    2.1239   -9.9331    4.0192 C   0  0  2  0  0  0  0  0  0  0  0  0
    1.6940  -10.1624    5.4993 C   0  0  1  0  0  0  0  0  0  0  0  0
    2.8621  -10.3832    6.4934 C   0  0  0  0  0  0  0  0  0  0  0  0
    4.0243   -9.5128    6.2433 N   0  0  1  0  0  0  0  0  0  0  0  0
    5.1941   -9.8486    7.0897 C   0  0  0  0  0  0  0  0  0  0  0  0
    4.8964   -9.7263    8.5718 C   0  0  0  0  0  0  0  0  0  0  0  0
    5.8634  -10.3171    9.5878 C   0  0  0  0  0  0  0  0  0  0  0  0
    4.5132  -10.9474    9.3970 C   0  0  0  0  0  0  0  0  0  0  0  0
    0.5280   -9.2927    6.0214 C   0  0  1  0  0  0  0  0  0  0  0  0
   -0.2492   -9.9954    7.1496 C   0  0  0  0  0  0  0  0  0  0  0  0
    0.7576   -7.7730    6.2976 C   0  0  1  0  0  0  0  0  0  0  0  0
    0.8819   -7.3657    7.7429 C   0  0  0  0  0  0  0  0  0  0  0  0
    1.8719   -6.5126    7.9648 C   0  0  0  0  0  0  0  0  0  0  0  0
    2.7325   -6.2679    6.7525 C   0  0  1  0  0  0  0  0  0  0  0  0
    3.2179   -4.7883    6.5592 C   0  0  0  0  0  0  0  0  0  0  0  0
    4.6198   -4.7823    6.9537 N   0  0  0  0  0  0  0  0  0  0  0  0
    5.5150   -4.6002    5.8042 C   0  0  0  0  0  0  0  0  0  0  0  0
    4.7881   -6.0072    7.6560 C   0  0  0  0  0  0  0  0  0  0  0  0
    3.9554   -6.9306    7.0471 O   0  0  0  0  0  0  0  0  0  0  0  0
    1.8585   -6.8917    5.5766 C   0  0  1  0  0  0  0  0  0  0  0  0
    1.1456   -5.7946    4.9339 O   0  0  0  0  0  0  0  0  0  0  0  0
    0.2429   -4.9122    5.6238 C   0  0  0  0  0  0  0  0  0  0  0  0
    5.6555  -12.6766    3.1075 H   0  0  0  0  0  0  0  0  0  0  0  0
    6.2530  -11.0606    3.5000 H   0  0  0  0  0  0  0  0  0  0  0  0
    5.8146  -11.4646    1.8431 H   0  0  0  0  0  0  0  0  0  0  0  0
    3.3892  -11.7839    2.4771 H   0  0  0  0  0  0  0  0  0  0  0  0
    5.4500   -9.5239    4.6637 H   0  0  0  0  0  0  0  0  0  0  0  0
    4.7486   -7.3155    5.0213 H   0  0  0  0  0  0  0  0  0  0  0  0
    4.5565   -7.7946    3.3981 H   0  0  0  0  0  0  0  0  0  0  0  0
    2.7449   -6.6029    3.6896 H   0  0  0  0  0  0  0  0  0  0  0  0
    3.0666   -7.8349    1.6493 H   0  0  0  0  0  0  0  0  0  0  0  0
    2.1252   -9.3424    1.4003 H   0  0  0  0  0  0  0  0  0  0  0  0
    1.0491   -6.4893    1.8047 H   0  0  0  0  0  0  0  0  0  0  0  0
    0.3100   -7.8449    0.8461 H   0  0  0  0  0  0  0  0  0  0  0  0
   -0.1789   -9.0994    2.8292 H   0  0  0  0  0  0  0  0  0  0  0  0
   -0.1824   -7.5015    3.6414 H   0  0  0  0  0  0  0  0  0  0  0  0
    1.5939  -10.6737    3.4052 H   0  0  0  0  0  0  0  0  0  0  0  0
    1.2479  -11.1580    5.4482 H   0  0  0  0  0  0  0  0  0  0  0  0
    2.5035  -10.2534    7.5130 H   0  0  0  0  0  0  0  0  0  0  0  0
    3.1785  -11.4220    6.3988 H   0  0  0  0  0  0  0  0  0  0  0  0
    5.5675  -10.8436    6.8777 H   0  0  0  0  0  0  0  0  0  0  0  0
    5.9966   -9.1458    6.8866 H   0  0  0  0  0  0  0  0  0  0  0  0
    4.4464   -8.7820    8.8811 H   0  0  0  0  0  0  0  0  0  0  0  0
    6.7236  -10.8731    9.2243 H   0  0  0  0  0  0  0  0  0  0  0  0
    6.0135   -9.7672   10.5150 H   0  0  0  0  0  0  0  0  0  0  0  0
    3.7745  -10.7935   10.1821 H   0  0  0  0  0  0  0  0  0  0  0  0
    4.4699  -11.9096    8.8899 H   0  0  0  0  0  0  0  0  0  0  0  0
   -0.2067   -9.3393    5.2153 H   0  0  0  0  0  0  0  0  0  0  0  0
    0.3234  -10.0900    8.0723 H   0  0  0  0  0  0  0  0  0  0  0  0
   -0.5396  -11.0015    6.8469 H   0  0  0  0  0  0  0  0  0  0  0  0
   -1.1724   -9.4556    7.3597 H   0  0  0  0  0  0  0  0  0  0  0  0
   -0.2179   -7.3851    6.0295 H   0  0  0  0  0  0  0  0  0  0  0  0
    0.1698   -7.6717    8.4898 H   0  0  0  0  0  0  0  0  0  0  0  0
    2.0739   -6.0548    8.9155 H   0  0  0  0  0  0  0  0  0  0  0  0
    3.0769   -4.4364    5.5307 H   0  0  0  0  0  0  0  0  0  0  0  0
    2.6620   -4.0920    7.1980 H   0  0  0  0  0  0  0  0  0  0  0  0
    6.5556   -4.6189    6.1098 H   0  0  0  0  0  0  0  0  0  0  0  0
    5.3155   -3.6506    5.3178 H   0  0  0  0  0  0  0  0  0  0  0  0
    5.3860   -5.3702    5.0410 H   0  0  0  0  0  0  0  0  0  0  0  0
    5.8169   -6.3477    7.6875 H   0  0  0  0  0  0  0  0  0  0  0  0
    4.4512   -5.8832    8.6869 H   0  0  0  0  0  0  0  0  0  0  0  0
   -0.0295   -4.1016    4.9474 H   0  0  0  0  0  0  0  0  0  0  0  0
    0.6573   -4.4374    6.5079 H   0  0  0  0  0  0  0  0  0  0  0  0
   -0.6908   -5.3809    5.9243 H   0  0  0  0  0  0  0  0  0  0  0  0
    3.7567   -8.5891    6.5419 H   0  0  0  0  0  0  0  0  0  0  0  0
  1  2  1  0
  1 33  1  0
  1 34  1  0
  1 35  1  0
  2  3  2  3
  2 36  1  0
  3 11  1  0
  3  4  1  0
  4 14  1  0
  4  5  1  0
  4 37  1  1
  5  6  1  0
  5 38  1  0
  5 39  1  0
  6 30  1  0
  6  7  1  0
  6 40  1  6
  7 10  1  0
  7  8  1  0
  7 11  1  0
  8  9  1  0
  8 41  1  0
  8 42  1  0
  9 10  1  0
  9 43  1  0
  9 44  1  0
 10 45  1  0
 10 46  1  0
 11 12  1  0
 11 47  1  6
 12 13  1  0
 12 19  1  0
 12 48  1  6
 13 14  1  0
 13 49  1  0
 13 50  1  0
 14 15  1  0
 14 75  1  1
 15 16  1  0
 15 51  1  0
 15 52  1  0
 16 18  1  0
 16 17  1  0
 16 53  1  0
 17 18  1  0
 17 54  1  0
 17 55  1  0
 18 56  1  0
 18 57  1  0
 19 20  1  0
 19 21  1  0
 19 58  1  6
 20 59  1  0
 20 60  1  0
 20 61  1  0
 21 30  1  0
 21 22  1  0
 21 62  1  6
 22 23  2  0
 22 63  1  0
 23 24  1  0
 23 64  1  0
 24 29  1  1
 24 25  1  0
 24 30  1  0
 25 26  1  0
 25 65  1  0
 25 66  1  0
 26 27  1  0
 26 28  1  0
 27 67  1  0
 27 68  1  0
 27 69  1  0
 28 29  1  0
 28 70  1  0
 28 71  1  0
 30 31  1  6
 31 32  1  0
 32 72  1  0
 32 73  1  0
 32 74  1  0
M  CHG  1  14   1
M  END
>  <i_m_ct_stereo_status>  (184) 
1

>  <s_m_source_file>  (184) 
/var/tmp/pbs.5076255.sched01/tmpc2azvghe/701e6xuegj.sdf

>  <i_m_source_file_index>  (184) 
12

>  <i_lp_mmshare_version>  (184) 
48012

>  <i_f3d_flags>  (184) 
0

>  <s_epik_input>  (184) 
W0NIMl0xW0NIMl1bQ0hdMVtDSDJdTihbQ0gyXTIpW0NASF0oW0NIMl0zKS9DKD1bQ0hdXFtDSDNdKVtDQEhdNFtDQEBIXTJbQ0BASF0oW0NIM10pW0NASF01W0NIXT1bQ0hdW0NAXTYoW0NIMl1OKFtDSDNdKVtDSDJdTzYpW0NAQF01KE9bQ0gzXSlbQ0BASF0zQzQ3W0NIMl1bQ0gyXVtDSDJdNw==

>  <s_epik_cmdline>  (184) 
J2VwaWtfcHl0aG9uJywgJy1waHQnLCAnMi4wJywgJy1waCcsICc3LjAnLCAnLXRuJywgJzgnLCAnLW1hJywgJzIwMCcsICctaW1hZScsICc8aW5maWxlLm1hZT4nLCAnLW9tYWUnLCAnPG91dGZpbGUubWFlPic=

>  <r_epik_Ionization_Penalty>  (184) 
0.114737

>  <r_epik_Ionization_Penalty_Charging>  (184) 
0.00166316

>  <r_epik_Ionization_Penalty_Neutral>  (184) 
0.113074

>  <r_epik_State_Penalty>  (184) 
0.106538

>  <r_epik_Charging_Adjusted_Penalty>  (184) 
0.108201

>  <i_epik_Tot_Q>  (184) 
1

>  <i_epik_Tot_abs_Q>  (184) 
1

>  <s_epik_Chemistry_Notes>  (184) 
This compound contains an acetal/aminal-like group ( X-CH(R)-Y where X, Y are N, S, or O) that may be acid/base labile, releasing an aldehyde.

>  <s_lp_Force_Field>  (184) 
OPLS3e

>  <r_lp_Energy>  (184) 
99.3739

>  <b_lp_Chiralities_Consistent>  (184) 
1

>  <s_lp_Variant>  (184) 
68:0-1

>  <s_i_glide_gridfile>  (184) 
pfpi4k_grid

>  <i_i_glide_lignum>  (184) 
12

>  <i_i_glide_rotatable_bonds>  (184) 
3

>  <r_i_docking_score>  (184) 
-1.90835

>  <r_i_glide_ligand_efficiency>  (184) 
-0.059636

>  <r_i_glide_ligand_efficiency_sa>  (184) 
-0.189333

>  <r_i_glide_ligand_efficiency_ln>  (184) 
-0.427332

>  <r_i_glide_gscore>  (184) 
-1.90835

>  <r_i_glide_lipo>  (184) 
-0.00159503

>  <r_i_glide_hbond>  (184) 
0

>  <r_i_glide_metal>  (184) 
-0

>  <r_i_glide_rewards>  (184) 
-0.911455

>  <r_i_glide_evdw>  (184) 
-16.4415

>  <r_i_glide_ecoul>  (184) 
-2.44313

>  <r_i_glide_erotb>  (184) 
0.206524

>  <r_i_glide_esite>  (184) 
-0.0132831

>  <r_i_glide_emodel>  (184) 
-26.1113

>  <r_i_glide_energy>  (184) 
-18.8846

>  <r_i_glide_einternal>  (184) 
0.0322127

>  <r_i_glide_intrahb_reward>  (184) 
-0.5

>  <i_i_glide_confnum>  (184) 
2

>  <i_i_glide_posenum>  (184) 
37

>  <r_i_glide_eff_state_penalty>  (184) 
0

>  <ligand_id>  (184) 
68

>  <original_smiles>  (184) 
CC=C1C2CC3C4(CCC4)C1C(CN2CC1CC1)C(C)C1C=CC2(CN(C)CO2)C13OC

>  <smiles>  (184) 
[H]C(=C1C2([H])C3([H])C([H])(C([H])([H])[H])C4([H])C([H])=C([H])C5(OC([H])([H])N(C([H])([H])[H])C5([H])[H])C4(OC([H])([H])[H])C([H])(C([H])([H])C1([H])[N+]([H])(C([H])([H])C1([H])C([H])([H])C1([H])[H])C3([H])[H])C21C([H])([H])C([H])([H])C1([H])[H])C([H])([H])[H]

$$$$
68:1:0
     RDKit          3D

 75 81  0  0  1  0  0  0  0  0999 V2000
    4.1575   -9.4475    1.0572 C   0  0  0  0  0  0  0  0  0  0  0  0
    4.6012   -8.0381    0.6982 C   0  0  0  0  0  0  0  0  0  0  0  0
    4.5511   -6.9264    1.4612 C   0  0  0  0  0  0  0  0  0  0  0  0
    5.0331   -5.5590    1.0090 C   0  0  1  0  0  0  0  0  0  0  0  0
    3.8507   -4.5784    1.0460 C   0  0  0  0  0  0  0  0  0  0  0  0
    3.0872   -4.5009    2.3983 C   0  0  1  0  0  0  0  0  0  0  0  0
    2.7605   -5.9696    2.8251 C   0  0  0  0  0  0  0  0  0  0  0  0
    1.6035   -6.5714    1.9970 C   0  0  0  0  0  0  0  0  0  0  0  0
    0.6180   -6.2302    3.0885 C   0  0  0  0  0  0  0  0  0  0  0  0
    1.8528   -6.2715    4.0004 C   0  0  0  0  0  0  0  0  0  0  0  0
    4.0242   -6.8289    2.8670 C   0  0  2  0  0  0  0  0  0  0  0  0
    5.1740   -6.3636    3.8153 C   0  0  1  0  0  0  0  0  0  0  0  0
    6.4475   -5.8623    3.0768 C   0  0  0  0  0  0  0  0  0  0  0  0
    6.1552   -5.0501    1.8595 N   0  0  1  0  0  0  0  0  0  0  0  0
    7.3795   -4.7493    1.0691 C   0  0  0  0  0  0  0  0  0  0  0  0
    7.3052   -3.4398    0.3125 C   0  0  0  0  0  0  0  0  0  0  0  0
    6.5369   -3.3132   -0.9908 C   0  0  0  0  0  0  0  0  0  0  0  0
    8.0345   -3.1269   -0.9728 C   0  0  0  0  0  0  0  0  0  0  0  0
    4.7630   -5.5066    5.0399 C   0  0  1  0  0  0  0  0  0  0  0  0
    5.7502   -5.6617    6.2172 C   0  0  0  0  0  0  0  0  0  0  0  0
    4.2877   -4.0235    4.8383 C   0  0  1  0  0  0  0  0  0  0  0  0
    5.2490   -2.9150    5.2141 C   0  0  0  0  0  0  0  0  0  0  0  0
    5.2624   -1.9156    4.3381 C   0  0  0  0  0  0  0  0  0  0  0  0
    4.4312   -2.2111    3.1131 C   0  0  1  0  0  0  0  0  0  0  0  0
    3.6616   -0.9858    2.5362 C   0  0  0  0  0  0  0  0  0  0  0  0
    4.3970   -0.5508    1.3609 N   0  0  0  0  0  0  0  0  0  0  0  0
    3.6827   -0.9592    0.1590 C   0  0  0  0  0  0  0  0  0  0  0  0
    5.6282   -1.1785    1.5187 C   0  0  0  0  0  0  0  0  0  0  0  0
    5.3826   -2.4258    2.1027 O   0  0  0  0  0  0  0  0  0  0  0  0
    3.5522   -3.4899    3.5393 C   0  0  1  0  0  0  0  0  0  0  0  0
    2.3205   -2.8434    3.9624 O   0  0  0  0  0  0  0  0  0  0  0  0
    1.3090   -3.4862    4.7603 C   0  0  0  0  0  0  0  0  0  0  0  0
    5.0104  -10.1280    1.0039 H   0  0  0  0  0  0  0  0  0  0  0  0
    3.4099   -9.7969    0.3425 H   0  0  0  0  0  0  0  0  0  0  0  0
    3.7252   -9.5432    2.0500 H   0  0  0  0  0  0  0  0  0  0  0  0
    5.0087   -7.9567   -0.2939 H   0  0  0  0  0  0  0  0  0  0  0  0
    5.3662   -5.6453   -0.0259 H   0  0  0  0  0  0  0  0  0  0  0  0
    4.1441   -3.6352    0.6458 H   0  0  0  0  0  0  0  0  0  0  0  0
    3.1328   -4.9067    0.2972 H   0  0  0  0  0  0  0  0  0  0  0  0
    2.1496   -4.0432    2.0576 H   0  0  0  0  0  0  0  0  0  0  0  0
    1.4106   -6.0368    1.0726 H   0  0  0  0  0  0  0  0  0  0  0  0
    1.6835   -7.6405    1.8529 H   0  0  0  0  0  0  0  0  0  0  0  0
    0.1518   -5.2925    2.8103 H   0  0  0  0  0  0  0  0  0  0  0  0
   -0.1346   -6.9419    3.3871 H   0  0  0  0  0  0  0  0  0  0  0  0
    2.0142   -7.1383    4.6169 H   0  0  0  0  0  0  0  0  0  0  0  0
    2.0490   -5.6042    4.7526 H   0  0  0  0  0  0  0  0  0  0  0  0
    3.6804   -7.7994    3.2299 H   0  0  0  0  0  0  0  0  0  0  0  0
    5.4873   -7.3154    4.2582 H   0  0  0  0  0  0  0  0  0  0  0  0
    7.0699   -5.2882    3.7624 H   0  0  0  0  0  0  0  0  0  0  0  0
    7.0610   -6.7191    2.7792 H   0  0  0  0  0  0  0  0  0  0  0  0
    8.2550   -4.7298    1.7263 H   0  0  0  0  0  0  0  0  0  0  0  0
    7.5296   -5.5312    0.3388 H   0  0  0  0  0  0  0  0  0  0  0  0
    7.3455   -2.6330    0.9983 H   0  0  0  0  0  0  0  0  0  0  0  0
    6.1444   -4.2342   -1.3988 H   0  0  0  0  0  0  0  0  0  0  0  0
    5.9096   -2.4403   -1.1725 H   0  0  0  0  0  0  0  0  0  0  0  0
    8.4086   -2.1146   -1.1431 H   0  0  0  0  0  0  0  0  0  0  0  0
    8.6536   -3.9188   -1.3701 H   0  0  0  0  0  0  0  0  0  0  0  0
    3.9034   -6.0323    5.4438 H   0  0  0  0  0  0  0  0  0  0  0  0
    6.7175   -5.2102    6.0077 H   0  0  0  0  0  0  0  0  0  0  0  0
    5.9241   -6.7123    6.4555 H   0  0  0  0  0  0  0  0  0  0  0  0
    5.3592   -5.1984    7.1240 H   0  0  0  0  0  0  0  0  0  0  0  0
    3.6054   -3.9430    5.6691 H   0  0  0  0  0  0  0  0  0  0  0  0
    5.8071   -2.9208    6.1397 H   0  0  0  0  0  0  0  0  0  0  0  0
    5.8552   -1.0106    4.4197 H   0  0  0  0  0  0  0  0  0  0  0  0
    2.6438   -1.2193    2.2532 H   0  0  0  0  0  0  0  0  0  0  0  0
    3.6755   -0.1519    3.2271 H   0  0  0  0  0  0  0  0  0  0  0  0
    3.3989   -1.9974    0.1721 H   0  0  0  0  0  0  0  0  0  0  0  0
    4.2718   -0.7956   -0.7460 H   0  0  0  0  0  0  0  0  0  0  0  0
    2.7426   -0.4261    0.0757 H   0  0  0  0  0  0  0  0  0  0  0  0
    6.1136   -1.2226    0.5429 H   0  0  0  0  0  0  0  0  0  0  0  0
    6.3029   -0.6284    2.1740 H   0  0  0  0  0  0  0  0  0  0  0  0
    0.4622   -2.9313    5.0676 H   0  0  0  0  0  0  0  0  0  0  0  0
    1.6380   -3.9990    5.6753 H   0  0  0  0  0  0  0  0  0  0  0  0
    0.7561   -4.1578    4.1865 H   0  0  0  0  0  0  0  0  0  0  0  0
    5.8114   -4.1572    2.2232 H   0  0  0  0  0  0  0  0  0  0  0  0
  1  2  1  0
  1 33  1  0
  1 34  1  0
  1 35  1  0
  2  3  2  3
  2 36  1  0
  3 11  1  0
  3  4  1  0
  4 14  1  0
  4  5  1  0
  4 37  1  6
  5  6  1  0
  5 38  1  0
  5 39  1  0
  6 30  1  0
  6  7  1  0
  6 40  1  6
  7 10  1  0
  7  8  1  0
  7 11  1  0
  8  9  1  0
  8 41  1  0
  8 42  1  0
  9 10  1  0
  9 43  1  0
  9 44  1  0
 10 45  1  0
 10 46  1  0
 11 12  1  0
 11 47  1  1
 12 13  1  0
 12 19  1  0
 12 48  1  1
 13 14  1  0
 13 49  1  0
 13 50  1  0
 14 15  1  0
 14 75  1  1
 15 16  1  0
 15 51  1  0
 15 52  1  0
 16 18  1  0
 16 17  1  0
 16 53  1  0
 17 18  1  0
 17 54  1  0
 17 55  1  0
 18 56  1  0
 18 57  1  0
 19 20  1  0
 19 21  1  0
 19 58  1  1
 20 59  1  0
 20 60  1  0
 20 61  1  0
 21 30  1  0
 21 22  1  0
 21 62  1  1
 22 23  2  0
 22 63  1  0
 23 24  1  0
 23 64  1  0
 24 29  1  6
 24 25  1  0
 24 30  1  0
 25 26  1  0
 25 65  1  0
 25 66  1  0
 26 27  1  0
 26 28  1  0
 27 67  1  0
 27 68  1  0
 27 69  1  0
 28 29  1  0
 28 70  1  0
 28 71  1  0
 30 31  1  1
 31 32  1  0
 32 72  1  0
 32 73  1  0
 32 74  1  0
M  CHG  1  14   1
M  END
>  <i_m_ct_stereo_status>  (185) 
1

>  <s_m_source_file>  (185) 
/var/tmp/pbs.5076255.sched01/tmpc2azvghe/701e6xuegj.sdf

>  <i_m_source_file_index>  (185) 
13

>  <i_lp_mmshare_version>  (185) 
48012

>  <i_f3d_flags>  (185) 
0

>  <s_epik_input>  (185) 
W0NIMl0xW0NIMl1bQ0hdMVtDSDJdTihbQ0gyXTIpW0NASF0oW0NIMl0zKS9DKD1bQ0hdXFtDSDNdKVtDQEhdNFtDQEBIXTJbQ0BASF0oW0NIM10pW0NASF01W0NIXT1bQ0hdW0NAXTYoW0NIMl1OKFtDSDNdKVtDSDJdTzYpW0NAQF01KE9bQ0gzXSlbQ0BASF0zQzQ3W0NIMl1bQ0gyXVtDSDJdNw==

>  <s_epik_cmdline>  (185) 
J2VwaWtfcHl0aG9uJywgJy1waHQnLCAnMi4wJywgJy1waCcsICc3LjAnLCAnLXRuJywgJzgnLCAnLW1hJywgJzIwMCcsICctaW1hZScsICc8aW5maWxlLm1hZT4nLCAnLW9tYWUnLCAnPG91dGZpbGUubWFlPic=

>  <r_epik_Ionization_Penalty>  (185) 
0.114737

>  <r_epik_Ionization_Penalty_Charging>  (185) 
0.00166316

>  <r_epik_Ionization_Penalty_Neutral>  (185) 
0.113074

>  <r_epik_State_Penalty>  (185) 
0.106538

>  <r_epik_Charging_Adjusted_Penalty>  (185) 
0.108201

>  <i_epik_Tot_Q>  (185) 
1

>  <i_epik_Tot_abs_Q>  (185) 
1

>  <s_epik_Chemistry_Notes>  (185) 
This compound contains an acetal/aminal-like group ( X-CH(R)-Y where X, Y are N, S, or O) that may be acid/base labile, releasing an aldehyde.

>  <s_lp_Force_Field>  (185) 
OPLS3e

>  <r_lp_Energy>  (185) 
100.105

>  <b_lp_Chiralities_Consistent>  (185) 
1

>  <s_lp_Variant>  (185) 
68:0-2

>  <s_i_glide_gridfile>  (185) 
pfpi4k_grid

>  <i_i_glide_lignum>  (185) 
13

>  <i_i_glide_rotatable_bonds>  (185) 
3

>  <r_i_docking_score>  (185) 
-2.81487

>  <r_i_glide_ligand_efficiency>  (185) 
-0.0879648

>  <r_i_glide_ligand_efficiency_sa>  (185) 
-0.279271

>  <r_i_glide_ligand_efficiency_ln>  (185) 
-0.630327

>  <r_i_glide_gscore>  (185) 
-2.81487

>  <r_i_glide_lipo>  (185) 
-0.694636

>  <r_i_glide_hbond>  (185) 
0

>  <r_i_glide_metal>  (185) 
-0

>  <r_i_glide_rewards>  (185) 
-1.09948

>  <r_i_glide_evdw>  (185) 
-20.324

>  <r_i_glide_ecoul>  (185) 
-1.40721

>  <r_i_glide_erotb>  (185) 
0.206524

>  <r_i_glide_esite>  (185) 
0

>  <r_i_glide_emodel>  (185) 
-24.1308

>  <r_i_glide_energy>  (185) 
-21.7312

>  <r_i_glide_einternal>  (185) 
9.51245

>  <r_i_glide_intrahb_reward>  (185) 
-0.5

>  <i_i_glide_confnum>  (185) 
3

>  <i_i_glide_posenum>  (185) 
3

>  <r_i_glide_eff_state_penalty>  (185) 
0

>  <ligand_id>  (185) 
68

>  <original_smiles>  (185) 
CC=C1C2CC3C4(CCC4)C1C(CN2CC1CC1)C(C)C1C=CC2(CN(C)CO2)C13OC

>  <smiles>  (185) 
[H]C(=C1C2([H])C3([H])C([H])(C([H])([H])[H])C4([H])C([H])=C([H])C5(OC([H])([H])N(C([H])([H])[H])C5([H])[H])C4(OC([H])([H])[H])C([H])(C([H])([H])C1([H])[N+]([H])(C([H])([H])C1([H])C([H])([H])C1([H])[H])C3([H])[H])C21C([H])([H])C([H])([H])C1([H])[H])C([H])([H])[H]

$$$$
68:1:1
     RDKit          3D

 75 81  0  0  1  0  0  0  0  0999 V2000
    3.0599   -3.0552    2.9540 C   0  0  0  0  0  0  0  0  0  0  0  0
    2.4490   -1.7010    2.6564 C   0  0  0  0  0  0  0  0  0  0  0  0
    1.9316   -0.8165    3.5416 C   0  0  0  0  0  0  0  0  0  0  0  0
    1.3434    0.5312    3.1313 C   0  0  1  0  0  0  0  0  0  0  0  0
   -0.1295    0.5679    3.5763 C   0  0  0  0  0  0  0  0  0  0  0  0
   -0.3816    0.2718    5.0878 C   0  0  1  0  0  0  0  0  0  0  0  0
    0.3522   -1.0523    5.4575 C   0  0  0  0  0  0  0  0  0  0  0  0
   -0.3577   -2.3086    4.8857 C   0  0  0  0  0  0  0  0  0  0  0  0
   -1.0328   -2.5254    6.2331 C   0  0  0  0  0  0  0  0  0  0  0  0
    0.0752   -1.6727    6.8410 C   0  0  0  0  0  0  0  0  0  0  0  0
    1.8367   -0.9568    5.0488 C   0  0  2  0  0  0  0  0  0  0  0  0
    2.6613    0.1829    5.7109 C   0  0  1  0  0  0  0  0  0  0  0  0
    3.1199    1.3076    4.7388 C   0  0  0  0  0  0  0  0  0  0  0  0
    2.0827    1.6940    3.7374 N   0  0  1  0  0  0  0  0  0  0  0  0
    2.5806    2.6637    2.7155 C   0  0  0  0  0  0  0  0  0  0  0  0
    3.1504    3.9678    3.3042 C   0  0  0  0  0  0  0  0  0  0  0  0
    2.1707    4.9673    3.8527 C   0  0  0  0  0  0  0  0  0  0  0  0
    2.9169    5.2911    2.5732 C   0  0  0  0  0  0  0  0  0  0  0  0
    2.1716    0.6806    7.0897 C   0  0  1  0  0  0  0  0  0  0  0  0
    3.3236    1.2495    7.9427 C   0  0  0  0  0  0  0  0  0  0  0  0
    0.8477    1.5251    7.1929 C   0  0  1  0  0  0  0  0  0  0  0  0
    1.0104    3.0071    7.4142 C   0  0  0  0  0  0  0  0  0  0  0  0
    0.1644    3.7441    6.6600 C   0  0  0  0  0  0  0  0  0  0  0  0
   -0.6360    2.9261    5.6740 C   0  0  1  0  0  0  0  0  0  0  0  0
   -2.1347    3.3566    5.4988 C   0  0  0  0  0  0  0  0  0  0  0  0
   -2.1894    4.0399    4.2163 N   0  0  0  0  0  0  0  0  0  0  0  0
   -2.7967    3.2101    3.1759 C   0  0  0  0  0  0  0  0  0  0  0  0
   -0.8972    4.3081    3.9524 C   0  0  0  0  0  0  0  0  0  0  0  0
   -0.0860    3.2459    4.4264 O   0  0  0  0  0  0  0  0  0  0  0  0
   -0.3765    1.4342    6.1798 C   0  0  1  0  0  0  0  0  0  0  0  0
   -1.5365    1.0288    6.9640 O   0  0  0  0  0  0  0  0  0  0  0  0
   -1.9822    1.7569    8.1202 C   0  0  0  0  0  0  0  0  0  0  0  0
    4.0887   -3.0651    2.6091 H   0  0  0  0  0  0  0  0  0  0  0  0
    2.5238   -3.8323    2.4155 H   0  0  0  0  0  0  0  0  0  0  0  0
    3.0615   -3.3245    4.0048 H   0  0  0  0  0  0  0  0  0  0  0  0
    2.4176   -1.4433    1.6036 H   0  0  0  0  0  0  0  0  0  0  0  0
    1.3575    0.5997    2.0322 H   0  0  0  0  0  0  0  0  0  0  0  0
   -0.5844    1.4664    3.1938 H   0  0  0  0  0  0  0  0  0  0  0  0
   -0.6474   -0.1998    2.9978 H   0  0  0  0  0  0  0  0  0  0  0  0
   -1.4370    0.0176    5.0283 H   0  0  0  0  0  0  0  0  0  0  0  0
   -1.0595   -2.1067    4.0793 H   0  0  0  0  0  0  0  0  0  0  0  0
    0.3275   -3.1107    4.6045 H   0  0  0  0  0  0  0  0  0  0  0  0
   -2.0084   -2.0430    6.2800 H   0  0  0  0  0  0  0  0  0  0  0  0
   -1.0546   -3.5628    6.5729 H   0  0  0  0  0  0  0  0  0  0  0  0
    0.9119   -2.2712    7.2054 H   0  0  0  0  0  0  0  0  0  0  0  0
   -0.2625   -0.9769    7.6059 H   0  0  0  0  0  0  0  0  0  0  0  0
    2.3080   -1.8859    5.3347 H   0  0  0  0  0  0  0  0  0  0  0  0
    3.6060   -0.3182    5.9345 H   0  0  0  0  0  0  0  0  0  0  0  0
    3.4182    2.1927    5.3002 H   0  0  0  0  0  0  0  0  0  0  0  0
    4.0133    0.9767    4.1876 H   0  0  0  0  0  0  0  0  0  0  0  0
    3.3547    2.1604    2.1278 H   0  0  0  0  0  0  0  0  0  0  0  0
    1.7551    2.8795    2.0198 H   0  0  0  0  0  0  0  0  0  0  0  0
    4.0789    3.8463    3.8753 H   0  0  0  0  0  0  0  0  0  0  0  0
    1.1758    4.8505    3.6318 H   0  0  0  0  0  0  0  0  0  0  0  0
    2.4612    5.5047    4.7821 H   0  0  0  0  0  0  0  0  0  0  0  0
    3.6057    6.1370    2.6359 H   0  0  0  0  0  0  0  0  0  0  0  0
    2.2535    5.2897    1.6837 H   0  0  0  0  0  0  0  0  0  0  0  0
    1.9693   -0.2384    7.6256 H   0  0  0  0  0  0  0  0  0  0  0  0
    3.7135    2.1878    7.5506 H   0  0  0  0  0  0  0  0  0  0  0  0
    4.1559    0.5471    8.0062 H   0  0  0  0  0  0  0  0  0  0  0  0
    2.9908    1.4281    8.9653 H   0  0  0  0  0  0  0  0  0  0  0  0
    0.5056    1.1870    8.1694 H   0  0  0  0  0  0  0  0  0  0  0  0
    1.6665    3.4166    8.1719 H   0  0  0  0  0  0  0  0  0  0  0  0
    0.1016    4.8116    6.7309 H   0  0  0  0  0  0  0  0  0  0  0  0
   -2.8159    2.5061    5.4918 H   0  0  0  0  0  0  0  0  0  0  0  0
   -2.4349    4.0627    6.2755 H   0  0  0  0  0  0  0  0  0  0  0  0
   -2.3333    2.2330    3.1487 H   0  0  0  0  0  0  0  0  0  0  0  0
   -2.6576    3.6743    2.1963 H   0  0  0  0  0  0  0  0  0  0  0  0
   -3.8532    3.0763    3.3742 H   0  0  0  0  0  0  0  0  0  0  0  0
   -0.6717    4.4840    2.8719 H   0  0  0  0  0  0  0  0  0  0  0  0
   -0.5442    5.2153    4.5064 H   0  0  0  0  0  0  0  0  0  0  0  0
   -2.9770    1.4031    8.3661 H   0  0  0  0  0  0  0  0  0  0  0  0
   -2.0828    2.8301    7.9875 H   0  0  0  0  0  0  0  0  0  0  0  0
   -1.3664    1.5932    9.0007 H   0  0  0  0  0  0  0  0  0  0  0  0
    1.3622    2.1980    4.2537 H   0  0  0  0  0  0  0  0  0  0  0  0
  1  2  1  0
  1 33  1  0
  1 34  1  0
  1 35  1  0
  2  3  2  3
  2 36  1  0
  3 11  1  0
  3  4  1  0
  4 14  1  0
  4  5  1  0
  4 37  1  6
  5  6  1  0
  5 38  1  0
  5 39  1  0
  6 30  1  0
  6  7  1  0
  6 40  1  6
  7 10  1  0
  7  8  1  0
  7 11  1  0
  8  9  1  0
  8 41  1  0
  8 42  1  0
  9 10  1  0
  9 43  1  0
  9 44  1  0
 10 45  1  0
 10 46  1  0
 11 12  1  0
 11 47  1  6
 12 13  1  0
 12 19  1  0
 12 48  1  1
 13 14  1  0
 13 49  1  0
 13 50  1  0
 14 15  1  0
 14 75  1  1
 15 16  1  0
 15 51  1  0
 15 52  1  0
 16 18  1  0
 16 17  1  0
 16 53  1  0
 17 18  1  0
 17 54  1  0
 17 55  1  0
 18 56  1  0
 18 57  1  0
 19 20  1  0
 19 21  1  0
 19 58  1  1
 20 59  1  0
 20 60  1  0
 20 61  1  0
 21 30  1  0
 21 22  1  0
 21 62  1  1
 22 23  2  0
 22 63  1  0
 23 24  1  0
 23 64  1  0
 24 29  1  6
 24 25  1  0
 24 30  1  0
 25 26  1  0
 25 65  1  0
 25 66  1  0
 26 27  1  0
 26 28  1  0
 27 67  1  0
 27 68  1  0
 27 69  1  0
 28 29  1  0
 28 70  1  0
 28 71  1  0
 30 31  1  1
 31 32  1  0
 32 72  1  0
 32 73  1  0
 32 74  1  0
M  CHG  1  14   1
M  END
>  <i_m_ct_stereo_status>  (186) 
1

>  <s_m_source_file>  (186) 
/var/tmp/pbs.5076255.sched01/tmpc2azvghe/701e6xuegj.sdf

>  <i_m_source_file_index>  (186) 
13

>  <i_lp_mmshare_version>  (186) 
48012

>  <i_f3d_flags>  (186) 
0

>  <s_epik_input>  (186) 
W0NIMl0xW0NIMl1bQ0hdMVtDSDJdTihbQ0gyXTIpW0NASF0oW0NIMl0zKS9DKD1bQ0hdXFtDSDNdKVtDQEhdNFtDQEBIXTJbQ0BASF0oW0NIM10pW0NASF01W0NIXT1bQ0hdW0NAXTYoW0NIMl1OKFtDSDNdKVtDSDJdTzYpW0NAQF01KE9bQ0gzXSlbQ0BASF0zQzQ3W0NIMl1bQ0gyXVtDSDJdNw==

>  <s_epik_cmdline>  (186) 
J2VwaWtfcHl0aG9uJywgJy1waHQnLCAnMi4wJywgJy1waCcsICc3LjAnLCAnLXRuJywgJzgnLCAnLW1hJywgJzIwMCcsICctaW1hZScsICc8aW5maWxlLm1hZT4nLCAnLW9tYWUnLCAnPG91dGZpbGUubWFlPic=

>  <r_epik_Ionization_Penalty>  (186) 
0.114737

>  <r_epik_Ionization_Penalty_Charging>  (186) 
0.00166316

>  <r_epik_Ionization_Penalty_Neutral>  (186) 
0.113074

>  <r_epik_State_Penalty>  (186) 
0.106538

>  <r_epik_Charging_Adjusted_Penalty>  (186) 
0.108201

>  <i_epik_Tot_Q>  (186) 
1

>  <i_epik_Tot_abs_Q>  (186) 
1

>  <s_epik_Chemistry_Notes>  (186) 
This compound contains an acetal/aminal-like group ( X-CH(R)-Y where X, Y are N, S, or O) that may be acid/base labile, releasing an aldehyde.

>  <s_lp_Force_Field>  (186) 
OPLS3e

>  <r_lp_Energy>  (186) 
100.105

>  <b_lp_Chiralities_Consistent>  (186) 
1

>  <s_lp_Variant>  (186) 
68:0-2

>  <s_i_glide_gridfile>  (186) 
pfpi4k_grid

>  <i_i_glide_lignum>  (186) 
13

>  <i_i_glide_rotatable_bonds>  (186) 
3

>  <r_i_docking_score>  (186) 
-2.47092

>  <r_i_glide_ligand_efficiency>  (186) 
-0.0772163

>  <r_i_glide_ligand_efficiency_sa>  (186) 
-0.245147

>  <r_i_glide_ligand_efficiency_ln>  (186) 
-0.553307

>  <r_i_glide_gscore>  (186) 
-2.47092

>  <r_i_glide_lipo>  (186) 
-0.00313325

>  <r_i_glide_hbond>  (186) 
-0.155677

>  <r_i_glide_metal>  (186) 
-0

>  <r_i_glide_rewards>  (186) 
-0.911455

>  <r_i_glide_evdw>  (186) 
-18.5597

>  <r_i_glide_ecoul>  (186) 
-5.88652

>  <r_i_glide_erotb>  (186) 
0.206524

>  <r_i_glide_esite>  (186) 
-0.103076

>  <r_i_glide_emodel>  (186) 
-29.0206

>  <r_i_glide_energy>  (186) 
-24.4462

>  <r_i_glide_einternal>  (186) 
1.03656

>  <r_i_glide_intrahb_reward>  (186) 
-0.5

>  <i_i_glide_confnum>  (186) 
3

>  <i_i_glide_posenum>  (186) 
30

>  <r_i_glide_eff_state_penalty>  (186) 
0

>  <ligand_id>  (186) 
68

>  <original_smiles>  (186) 
CC=C1C2CC3C4(CCC4)C1C(CN2CC1CC1)C(C)C1C=CC2(CN(C)CO2)C13OC

>  <smiles>  (186) 
[H]C(=C1C2([H])C3([H])C([H])(C([H])([H])[H])C4([H])C([H])=C([H])C5(OC([H])([H])N(C([H])([H])[H])C5([H])[H])C4(OC([H])([H])[H])C([H])(C([H])([H])C1([H])[N+]([H])(C([H])([H])C1([H])C([H])([H])C1([H])[H])C3([H])[H])C21C([H])([H])C([H])([H])C1([H])[H])C([H])([H])[H]

$$$$
68:1:2
     RDKit          3D

 75 81  0  0  1  0  0  0  0  0999 V2000
    6.1770   -1.3661    0.2572 C   0  0  0  0  0  0  0  0  0  0  0  0
    5.1070   -0.6818    1.0853 C   0  0  0  0  0  0  0  0  0  0  0  0
    4.4043   -1.1947    2.1164 C   0  0  0  0  0  0  0  0  0  0  0  0
    3.3535   -0.4068    2.8349 C   0  0  1  0  0  0  0  0  0  0  0  0
    2.0157   -1.1162    2.7477 C   0  0  0  0  0  0  0  0  0  0  0  0
    2.0135   -2.6219    3.1779 C   0  0  1  0  0  0  0  0  0  0  0  0
    3.1759   -3.3514    2.4317 C   0  0  0  0  0  0  0  0  0  0  0  0
    2.9016   -3.5699    0.9265 C   0  0  0  0  0  0  0  0  0  0  0  0
    2.4688   -5.0052    1.2241 C   0  0  0  0  0  0  0  0  0  0  0  0
    3.2591   -4.8953    2.5182 C   0  0  0  0  0  0  0  0  0  0  0  0
    4.4927   -2.5902    2.7125 C   0  0  2  0  0  0  0  0  0  0  0  0
    4.8978   -2.4405    4.2129 C   0  0  1  0  0  0  0  0  0  0  0  0
    4.8742   -1.0057    4.7795 C   0  0  0  0  0  0  0  0  0  0  0  0
    3.6968   -0.2046    4.2985 N   0  0  1  0  0  0  0  0  0  0  0  0
    3.8174    1.2545    4.6585 C   0  0  0  0  0  0  0  0  0  0  0  0
    2.4594    1.9451    4.5343 C   0  0  0  0  0  0  0  0  0  0  0  0
    2.0531    2.6576    3.2573 C   0  0  0  0  0  0  0  0  0  0  0  0
    2.3311    3.4544    4.5122 C   0  0  0  0  0  0  0  0  0  0  0  0
    4.4199   -3.5562    5.1630 C   0  0  1  0  0  0  0  0  0  0  0  0
    5.3882   -3.7632    6.3526 C   0  0  0  0  0  0  0  0  0  0  0  0
    2.9138   -3.6226    5.5652 C   0  0  1  0  0  0  0  0  0  0  0  0
    2.5697   -3.1324    6.9526 C   0  0  0  0  0  0  0  0  0  0  0  0
    1.4876   -2.3751    6.9820 C   0  0  0  0  0  0  0  0  0  0  0  0
    0.9099   -2.0528    5.6112 C   0  0  1  0  0  0  0  0  0  0  0  0
   -0.6604   -2.0709    5.4966 C   0  0  0  0  0  0  0  0  0  0  0  0
   -1.0782   -0.7206    5.4854 N   0  0  0  0  0  0  0  0  0  0  0  0
   -1.4366   -0.2885    4.1293 C   0  0  0  0  0  0  0  0  0  0  0  0
    0.0446    0.0014    5.9723 C   0  0  0  0  0  0  0  0  0  0  0  0
    1.1533   -0.6544    5.4521 O   0  0  0  0  0  0  0  0  0  0  0  0
    1.7252   -3.0606    4.6840 C   0  0  1  0  0  0  0  0  0  0  0  0
    0.8357   -4.1858    4.4222 O   0  0  0  0  0  0  0  0  0  0  0  0
    0.2790   -5.0166    5.4582 C   0  0  0  0  0  0  0  0  0  0  0  0
    7.1113   -0.8148    0.3593 H   0  0  0  0  0  0  0  0  0  0  0  0
    5.8837   -1.3652   -0.7934 H   0  0  0  0  0  0  0  0  0  0  0  0
    6.3628   -2.3969    0.5483 H   0  0  0  0  0  0  0  0  0  0  0  0
    4.8917    0.3315    0.7733 H   0  0  0  0  0  0  0  0  0  0  0  0
    3.2708    0.5355    2.3344 H   0  0  0  0  0  0  0  0  0  0  0  0
    1.2604   -0.5073    3.2282 H   0  0  0  0  0  0  0  0  0  0  0  0
    1.7320   -1.0760    1.6925 H   0  0  0  0  0  0  0  0  0  0  0  0
    1.1091   -2.9309    2.6667 H   0  0  0  0  0  0  0  0  0  0  0  0
    2.1169   -2.9546    0.4838 H   0  0  0  0  0  0  0  0  0  0  0  0
    3.8001   -3.5283    0.3158 H   0  0  0  0  0  0  0  0  0  0  0  0
    1.4087   -5.1111    1.4162 H   0  0  0  0  0  0  0  0  0  0  0  0
    2.8432   -5.7499    0.5185 H   0  0  0  0  0  0  0  0  0  0  0  0
    4.2735   -5.2578    2.3957 H   0  0  0  0  0  0  0  0  0  0  0  0
    2.7692   -5.3722    3.3682 H   0  0  0  0  0  0  0  0  0  0  0  0
    5.3102   -3.1028    2.2121 H   0  0  0  0  0  0  0  0  0  0  0  0
    5.9628   -2.6279    4.1584 H   0  0  0  0  0  0  0  0  0  0  0  0
    4.8846   -1.0065    5.8624 H   0  0  0  0  0  0  0  0  0  0  0  0
    5.7612   -0.4806    4.4450 H   0  0  0  0  0  0  0  0  0  0  0  0
    4.0776    1.2917    5.7001 H   0  0  0  0  0  0  0  0  0  0  0  0
    4.6116    1.7283    4.0942 H   0  0  0  0  0  0  0  0  0  0  0  0
    1.6990    1.5415    5.1677 H   0  0  0  0  0  0  0  0  0  0  0  0
    2.7519    2.7322    2.4283 H   0  0  0  0  0  0  0  0  0  0  0  0
    1.0123    2.4767    2.9852 H   0  0  0  0  0  0  0  0  0  0  0  0
    1.4453    3.8394    5.0166 H   0  0  0  0  0  0  0  0  0  0  0  0
    3.2132    4.0853    4.5684 H   0  0  0  0  0  0  0  0  0  0  0  0
    4.6145   -4.4729    4.6027 H   0  0  0  0  0  0  0  0  0  0  0  0
    5.3907   -2.9205    7.0417 H   0  0  0  0  0  0  0  0  0  0  0  0
    6.4112   -3.9174    6.0075 H   0  0  0  0  0  0  0  0  0  0  0  0
    5.1093   -4.6566    6.9081 H   0  0  0  0  0  0  0  0  0  0  0  0
    2.7977   -4.6980    5.6674 H   0  0  0  0  0  0  0  0  0  0  0  0
    3.1137   -3.4574    7.8296 H   0  0  0  0  0  0  0  0  0  0  0  0
    1.0514   -1.9914    7.8880 H   0  0  0  0  0  0  0  0  0  0  0  0
   -0.9788   -2.6206    4.6083 H   0  0  0  0  0  0  0  0  0  0  0  0
   -1.1010   -2.5679    6.3699 H   0  0  0  0  0  0  0  0  0  0  0  0
   -0.6886   -0.5705    3.3772 H   0  0  0  0  0  0  0  0  0  0  0  0
   -1.5754    0.7947    4.0446 H   0  0  0  0  0  0  0  0  0  0  0  0
   -2.3662   -0.7679    3.8508 H   0  0  0  0  0  0  0  0  0  0  0  0
   -0.0024    1.0483    5.6894 H   0  0  0  0  0  0  0  0  0  0  0  0
    0.0984   -0.0490    7.0666 H   0  0  0  0  0  0  0  0  0  0  0  0
   -0.4973   -5.6405    5.0210 H   0  0  0  0  0  0  0  0  0  0  0  0
   -0.1953   -4.4767    6.2722 H   0  0  0  0  0  0  0  0  0  0  0  0
    0.9995   -5.6937    5.9094 H   0  0  0  0  0  0  0  0  0  0  0  0
    2.9019   -0.5698    4.8121 H   0  0  0  0  0  0  0  0  0  0  0  0
  1  2  1  0
  1 33  1  0
  1 34  1  0
  1 35  1  0
  2  3  2  3
  2 36  1  0
  3 11  1  0
  3  4  1  0
  4 14  1  0
  4  5  1  0
  4 37  1  6
  5  6  1  0
  5 38  1  0
  5 39  1  0
  6 30  1  0
  6  7  1  0
  6 40  1  6
  7 10  1  0
  7  8  1  0
  7 11  1  0
  8  9  1  0
  8 41  1  0
  8 42  1  0
  9 10  1  0
  9 43  1  0
  9 44  1  0
 10 45  1  0
 10 46  1  0
 11 12  1  0
 11 47  1  6
 12 13  1  0
 12 19  1  0
 12 48  1  6
 13 14  1  0
 13 49  1  0
 13 50  1  0
 14 15  1  0
 14 75  1  1
 15 16  1  0
 15 51  1  0
 15 52  1  0
 16 18  1  0
 16 17  1  0
 16 53  1  0
 17 18  1  0
 17 54  1  0
 17 55  1  0
 18 56  1  0
 18 57  1  0
 19 20  1  0
 19 21  1  0
 19 58  1  6
 20 59  1  0
 20 60  1  0
 20 61  1  0
 21 30  1  0
 21 22  1  0
 21 62  1  1
 22 23  2  0
 22 63  1  0
 23 24  1  0
 23 64  1  0
 24 29  1  6
 24 25  1  0
 24 30  1  0
 25 26  1  0
 25 65  1  0
 25 66  1  0
 26 27  1  0
 26 28  1  0
 27 67  1  0
 27 68  1  0
 27 69  1  0
 28 29  1  0
 28 70  1  0
 28 71  1  0
 30 31  1  6
 31 32  1  0
 32 72  1  0
 32 73  1  0
 32 74  1  0
M  CHG  1  14   1
M  END
>  <i_m_ct_stereo_status>  (187) 
1

>  <s_m_source_file>  (187) 
/var/tmp/pbs.5076255.sched01/tmpc2azvghe/701e6xuegj.sdf

>  <i_m_source_file_index>  (187) 
13

>  <i_lp_mmshare_version>  (187) 
48012

>  <i_f3d_flags>  (187) 
0

>  <s_epik_input>  (187) 
W0NIMl0xW0NIMl1bQ0hdMVtDSDJdTihbQ0gyXTIpW0NASF0oW0NIMl0zKS9DKD1bQ0hdXFtDSDNdKVtDQEhdNFtDQEBIXTJbQ0BASF0oW0NIM10pW0NASF01W0NIXT1bQ0hdW0NAXTYoW0NIMl1OKFtDSDNdKVtDSDJdTzYpW0NAQF01KE9bQ0gzXSlbQ0BASF0zQzQ3W0NIMl1bQ0gyXVtDSDJdNw==

>  <s_epik_cmdline>  (187) 
J2VwaWtfcHl0aG9uJywgJy1waHQnLCAnMi4wJywgJy1waCcsICc3LjAnLCAnLXRuJywgJzgnLCAnLW1hJywgJzIwMCcsICctaW1hZScsICc8aW5maWxlLm1hZT4nLCAnLW9tYWUnLCAnPG91dGZpbGUubWFlPic=

>  <r_epik_Ionization_Penalty>  (187) 
0.114737

>  <r_epik_Ionization_Penalty_Charging>  (187) 
0.00166316

>  <r_epik_Ionization_Penalty_Neutral>  (187) 
0.113074

>  <r_epik_State_Penalty>  (187) 
0.106538

>  <r_epik_Charging_Adjusted_Penalty>  (187) 
0.108201

>  <i_epik_Tot_Q>  (187) 
1

>  <i_epik_Tot_abs_Q>  (187) 
1

>  <s_epik_Chemistry_Notes>  (187) 
This compound contains an acetal/aminal-like group ( X-CH(R)-Y where X, Y are N, S, or O) that may be acid/base labile, releasing an aldehyde.

>  <s_lp_Force_Field>  (187) 
OPLS3e

>  <r_lp_Energy>  (187) 
100.105

>  <b_lp_Chiralities_Consistent>  (187) 
1

>  <s_lp_Variant>  (187) 
68:0-2

>  <s_i_glide_gridfile>  (187) 
pfpi4k_grid

>  <i_i_glide_lignum>  (187) 
13

>  <i_i_glide_rotatable_bonds>  (187) 
3

>  <r_i_docking_score>  (187) 
-2.29034

>  <r_i_glide_ligand_efficiency>  (187) 
-0.0715732

>  <r_i_glide_ligand_efficiency_sa>  (187) 
-0.227231

>  <r_i_glide_ligand_efficiency_ln>  (187) 
-0.51287

>  <r_i_glide_gscore>  (187) 
-2.29034

>  <r_i_glide_lipo>  (187) 
-0.353027

>  <r_i_glide_hbond>  (187) 
0

>  <r_i_glide_metal>  (187) 
-0

>  <r_i_glide_rewards>  (187) 
-0.911455

>  <r_i_glide_evdw>  (187) 
-18.157

>  <r_i_glide_ecoul>  (187) 
-2.04438

>  <r_i_glide_erotb>  (187) 
0.206524

>  <r_i_glide_esite>  (187) 
-0.0178754

>  <r_i_glide_emodel>  (187) 
-27.2556

>  <r_i_glide_energy>  (187) 
-20.2014

>  <r_i_glide_einternal>  (187) 
0.836855

>  <r_i_glide_intrahb_reward>  (187) 
-0.5

>  <i_i_glide_confnum>  (187) 
3

>  <i_i_glide_posenum>  (187) 
25

>  <r_i_glide_eff_state_penalty>  (187) 
0

>  <ligand_id>  (187) 
68

>  <original_smiles>  (187) 
CC=C1C2CC3C4(CCC4)C1C(CN2CC1CC1)C(C)C1C=CC2(CN(C)CO2)C13OC

>  <smiles>  (187) 
[H]C(=C1C2([H])C3([H])C([H])(C([H])([H])[H])C4([H])C([H])=C([H])C5(OC([H])([H])N(C([H])([H])[H])C5([H])[H])C4(OC([H])([H])[H])C([H])(C([H])([H])C1([H])[N+]([H])(C([H])([H])C1([H])C([H])([H])C1([H])[H])C3([H])[H])C21C([H])([H])C([H])([H])C1([H])[H])C([H])([H])[H]

$$$$
68:2:0
     RDKit          3D

 76 82  0  0  1  0  0  0  0  0999 V2000
    2.2220   -7.1728    1.5860 C   0  0  0  0  0  0  0  0  0  0  0  0
    3.3243   -6.3099    2.1736 C   0  0  0  0  0  0  0  0  0  0  0  0
    3.4423   -4.9639    2.1461 C   0  0  0  0  0  0  0  0  0  0  0  0
    2.5126   -3.9698    1.4877 C   0  0  1  0  0  0  0  0  0  0  0  0
    2.0238   -2.9047    2.5033 C   0  0  0  0  0  0  0  0  0  0  0  0
    3.1101   -2.2931    3.4692 C   0  0  1  0  0  0  0  0  0  0  0  0
    4.0637   -3.4224    3.9642 C   0  0  0  0  0  0  0  0  0  0  0  0
    3.3705   -4.3203    5.0317 C   0  0  0  0  0  0  0  0  0  0  0  0
    4.0481   -3.5126    6.1281 C   0  0  0  0  0  0  0  0  0  0  0  0
    5.1040   -3.1680    5.0897 C   0  0  0  0  0  0  0  0  0  0  0  0
    4.5997   -4.2137    2.7447 C   0  0  2  0  0  0  0  0  0  0  0  0
    5.3285   -3.4193    1.6136 C   0  0  1  0  0  0  0  0  0  0  0  0
    4.6314   -3.5515    0.2370 C   0  0  0  0  0  0  0  0  0  0  0  0
    3.1669   -3.2974    0.3237 N   0  0  1  0  0  0  0  0  0  0  0  0
    2.4591   -3.5543   -0.9559 C   0  0  0  0  0  0  0  0  0  0  0  0
    3.0089   -2.7450   -2.1252 C   0  0  0  0  0  0  0  0  0  0  0  0
    2.7448   -3.1770   -3.5508 C   0  0  0  0  0  0  0  0  0  0  0  0
    4.1375   -3.2702   -2.9848 C   0  0  0  0  0  0  0  0  0  0  0  0
    5.8227   -1.9901    1.9382 C   0  0  1  0  0  0  0  0  0  0  0  0
    6.9996   -1.5836    1.0184 C   0  0  0  0  0  0  0  0  0  0  0  0
    4.7994   -0.8320    2.0509 C   0  0  1  0  0  0  0  0  0  0  0  0
    3.9911   -0.4911    0.8299 C   0  0  0  0  0  0  0  0  0  0  0  0
    2.7981    0.0196    1.1788 C   0  0  0  0  0  0  0  0  0  0  0  0
    2.6560    0.1744    2.6663 C   0  0  1  0  0  0  0  0  0  0  0  0
    2.8919    1.6833    2.9942 C   0  0  0  0  0  0  0  0  0  0  0  0
    1.7041    2.1009    3.7188 N   0  0  1  0  0  0  0  0  0  0  0  0
    0.8322    2.9697    2.9158 C   0  0  0  0  0  0  0  0  0  0  0  0
    1.0012    0.7734    4.1719 C   0  0  0  0  0  0  0  0  0  0  0  0
    1.3220   -0.0952    3.1215 O   0  0  0  0  0  0  0  0  0  0  0  0
    3.7286   -0.8534    3.1928 C   0  0  1  0  0  0  0  0  0  0  0  0
    4.1488   -0.3593    4.4790 O   0  0  0  0  0  0  0  0  0  0  0  0
    5.3980    0.3054    4.6848 C   0  0  0  0  0  0  0  0  0  0  0  0
    1.7336   -7.7399    2.3798 H   0  0  0  0  0  0  0  0  0  0  0  0
    2.6582   -7.8981    0.8980 H   0  0  0  0  0  0  0  0  0  0  0  0
    1.4596   -6.6169    1.0489 H   0  0  0  0  0  0  0  0  0  0  0  0
    4.0933   -6.8764    2.6766 H   0  0  0  0  0  0  0  0  0  0  0  0
    1.6550   -4.5376    1.1498 H   0  0  0  0  0  0  0  0  0  0  0  0
    1.4286   -2.1613    1.9828 H   0  0  0  0  0  0  0  0  0  0  0  0
    1.2993   -3.4158    3.1339 H   0  0  0  0  0  0  0  0  0  0  0  0
    2.4796   -2.0385    4.3237 H   0  0  0  0  0  0  0  0  0  0  0  0
    2.2821   -4.2600    5.0612 H   0  0  0  0  0  0  0  0  0  0  0  0
    3.6925   -5.3626    5.0130 H   0  0  0  0  0  0  0  0  0  0  0  0
    3.4660   -2.6411    6.4478 H   0  0  0  0  0  0  0  0  0  0  0  0
    4.4024   -4.0994    6.9744 H   0  0  0  0  0  0  0  0  0  0  0  0
    5.9189   -3.8968    5.0809 H   0  0  0  0  0  0  0  0  0  0  0  0
    5.5151   -2.1794    5.1895 H   0  0  0  0  0  0  0  0  0  0  0  0
    5.3032   -4.9655    3.1099 H   0  0  0  0  0  0  0  0  0  0  0  0
    6.2480   -3.9844    1.4699 H   0  0  0  0  0  0  0  0  0  0  0  0
    5.0885   -2.8643   -0.4787 H   0  0  0  0  0  0  0  0  0  0  0  0
    4.7970   -4.5557   -0.1612 H   0  0  0  0  0  0  0  0  0  0  0  0
    2.4655   -4.6235   -1.1481 H   0  0  0  0  0  0  0  0  0  0  0  0
    1.4116   -3.2646   -0.8420 H   0  0  0  0  0  0  0  0  0  0  0  0
    2.9704   -1.6686   -1.9651 H   0  0  0  0  0  0  0  0  0  0  0  0
    2.2138   -4.1131   -3.7306 H   0  0  0  0  0  0  0  0  0  0  0  0
    2.5740   -2.4013   -4.2932 H   0  0  0  0  0  0  0  0  0  0  0  0
    4.8728   -2.5462   -3.3271 H   0  0  0  0  0  0  0  0  0  0  0  0
    4.5278   -4.2619   -2.7564 H   0  0  0  0  0  0  0  0  0  0  0  0
    6.2408   -2.0735    2.9304 H   0  0  0  0  0  0  0  0  0  0  0  0
    6.6853   -1.3859   -0.0060 H   0  0  0  0  0  0  0  0  0  0  0  0
    7.7779   -2.3475    0.9763 H   0  0  0  0  0  0  0  0  0  0  0  0
    7.4676   -0.6738    1.3856 H   0  0  0  0  0  0  0  0  0  0  0  0
    5.3929    0.0684    2.1725 H   0  0  0  0  0  0  0  0  0  0  0  0
    4.3593   -0.6060   -0.1770 H   0  0  0  0  0  0  0  0  0  0  0  0
    2.0448    0.3599    0.5083 H   0  0  0  0  0  0  0  0  0  0  0  0
    3.6953    1.9155    3.6509 H   0  0  0  0  0  0  0  0  0  0  0  0
    3.1108    2.2672    2.0941 H   0  0  0  0  0  0  0  0  0  0  0  0
    0.5271    2.4427    2.0094 H   0  0  0  0  0  0  0  0  0  0  0  0
    1.3788    3.8691    2.6065 H   0  0  0  0  0  0  0  0  0  0  0  0
   -0.0528    3.2793    3.4486 H   0  0  0  0  0  0  0  0  0  0  0  0
    1.4705    0.3939    5.0816 H   0  0  0  0  0  0  0  0  0  0  0  0
   -0.0642    0.8766    4.3457 H   0  0  0  0  0  0  0  0  0  0  0  0
    5.4869    0.5493    5.7473 H   0  0  0  0  0  0  0  0  0  0  0  0
    5.5278    1.2349    4.1441 H   0  0  0  0  0  0  0  0  0  0  0  0
    6.2534   -0.3011    4.4052 H   0  0  0  0  0  0  0  0  0  0  0  0
    3.0642   -2.3067    0.4938 H   0  0  0  0  0  0  0  0  0  0  0  0
    2.0140    2.6122    4.5204 H   0  0  0  0  0  0  0  0  0  0  0  0
  1  2  1  0
  1 33  1  0
  1 34  1  0
  1 35  1  0
  2  3  2  3
  2 36  1  0
  3 11  1  0
  3  4  1  0
  4 14  1  0
  4  5  1  0
  4 37  1  6
  5  6  1  0
  5 38  1  0
  5 39  1  0
  6 30  1  0
  6  7  1  0
  6 40  1  1
  7 10  1  0
  7  8  1  0
  7 11  1  0
  8  9  1  0
  8 41  1  0
  8 42  1  0
  9 10  1  0
  9 43  1  0
  9 44  1  0
 10 45  1  0
 10 46  1  0
 11 12  1  0
 11 47  1  1
 12 13  1  0
 12 19  1  0
 12 48  1  6
 13 14  1  0
 13 49  1  0
 13 50  1  0
 14 15  1  0
 14 75  1  1
 15 16  1  0
 15 51  1  0
 15 52  1  0
 16 18  1  0
 16 17  1  0
 16 53  1  0
 17 18  1  0
 17 54  1  0
 17 55  1  0
 18 56  1  0
 18 57  1  0
 19 20  1  0
 19 21  1  0
 19 58  1  1
 20 59  1  0
 20 60  1  0
 20 61  1  0
 21 30  1  0
 21 22  1  0
 21 62  1  1
 22 23  2  0
 22 63  1  0
 23 24  1  0
 23 64  1  0
 24 29  1  1
 24 25  1  0
 24 30  1  0
 25 26  1  0
 25 65  1  0
 25 66  1  0
 26 27  1  0
 26 28  1  0
 26 76  1  1
 27 67  1  0
 27 68  1  0
 27 69  1  0
 28 29  1  0
 28 70  1  0
 28 71  1  0
 30 31  1  1
 31 32  1  0
 32 72  1  0
 32 73  1  0
 32 74  1  0
M  CHG  2  14   1  26   1
M  END
>  <i_m_ct_stereo_status>  (188) 
1

>  <s_m_source_file>  (188) 
/var/tmp/pbs.5076255.sched01/tmpc2azvghe/701e6xuegj.sdf

>  <i_m_source_file_index>  (188) 
14

>  <i_lp_mmshare_version>  (188) 
48012

>  <i_f3d_flags>  (188) 
0

>  <s_epik_input>  (188) 
W0NIMl0xW0NIMl1bQ0hdMVtDSDJdTihbQ0gyXTIpW0NASF0oW0NIMl0zKS9DKD1bQ0hdXFtDSDNdKVtDQEhdNFtDQEBIXTJbQ0BASF0oW0NIM10pW0NASF01W0NIXT1bQ0hdW0NAXTYoW0NIMl1OKFtDSDNdKVtDSDJdTzYpW0NAQF01KE9bQ0gzXSlbQ0BASF0zQzQ3W0NIMl1bQ0gyXVtDSDJdNw==

>  <s_epik_cmdline>  (188) 
J2VwaWtfcHl0aG9uJywgJy1waHQnLCAnMi4wJywgJy1waCcsICc3LjAnLCAnLXRuJywgJzgnLCAnLW1hJywgJzIwMCcsICctaW1hZScsICc8aW5maWxlLm1hZT4nLCAnLW9tYWUnLCAnPG91dGZpbGUubWFlPic=

>  <r_epik_Ionization_Penalty>  (188) 
1.03909

>  <r_epik_Ionization_Penalty_Charging>  (188) 
1.03909

>  <r_epik_Ionization_Penalty_Neutral>  (188) 
5.90697e-14

>  <r_epik_State_Penalty>  (188) 
1.07614

>  <r_epik_Charging_Adjusted_Penalty>  (188) 
2.11523

>  <i_epik_Tot_Q>  (188) 
2

>  <i_epik_Tot_abs_Q>  (188) 
2

>  <s_epik_Chemistry_Notes>  (188) 
This compound contains an acetal/aminal-like group ( X-CH(R)-Y where X, Y are N, S, or O) that may be acid/base labile, releasing an aldehyde.

>  <s_lp_Force_Field>  (188) 
OPLS3e

>  <r_lp_Energy>  (188) 
91.7016

>  <b_lp_Chiralities_Consistent>  (188) 
1

>  <s_lp_Variant>  (188) 
68:0-3

>  <s_i_glide_gridfile>  (188) 
pfpi4k_grid

>  <i_i_glide_lignum>  (188) 
14

>  <i_i_glide_rotatable_bonds>  (188) 
3

>  <r_i_docking_score>  (188) 
-2.85673

>  <r_i_glide_ligand_efficiency>  (188) 
-0.0892728

>  <r_i_glide_ligand_efficiency_sa>  (188) 
-0.283424

>  <r_i_glide_ligand_efficiency_ln>  (188) 
-0.6397

>  <r_i_glide_gscore>  (188) 
-2.85673

>  <r_i_glide_lipo>  (188) 
-0.723306

>  <r_i_glide_hbond>  (188) 
0

>  <r_i_glide_metal>  (188) 
-0

>  <r_i_glide_rewards>  (188) 
-0.404583

>  <r_i_glide_evdw>  (188) 
-19.7128

>  <r_i_glide_ecoul>  (188) 
-6.0882

>  <r_i_glide_erotb>  (188) 
0.205668

>  <r_i_glide_esite>  (188) 
-0.0356371

>  <r_i_glide_emodel>  (188) 
-31.4548

>  <r_i_glide_energy>  (188) 
-25.801

>  <r_i_glide_einternal>  (188) 
0.529511

>  <r_i_glide_intrahb_reward>  (188) 
-0

>  <i_i_glide_confnum>  (188) 
3

>  <i_i_glide_posenum>  (188) 
6

>  <r_i_glide_eff_state_penalty>  (188) 
0

>  <ligand_id>  (188) 
68

>  <original_smiles>  (188) 
CC=C1C2CC3C4(CCC4)C1C(CN2CC1CC1)C(C)C1C=CC2(CN(C)CO2)C13OC

>  <smiles>  (188) 
[H]C(=C1C2([H])C3([H])C([H])(C([H])([H])[H])C4([H])C([H])=C([H])C5(OC([H])([H])[N+]([H])(C([H])([H])[H])C5([H])[H])C4(OC([H])([H])[H])C([H])(C([H])([H])C1([H])[N+]([H])(C([H])([H])C1([H])C([H])([H])C1([H])[H])C3([H])[H])C21C([H])([H])C([H])([H])C1([H])[H])C([H])([H])[H]

$$$$
68:2:1
     RDKit          3D

 76 82  0  0  1  0  0  0  0  0999 V2000
    5.0484   -2.7191   -0.7498 C   0  0  0  0  0  0  0  0  0  0  0  0
    5.4477   -3.7063    0.3309 C   0  0  0  0  0  0  0  0  0  0  0  0
    4.6575   -4.3173    1.2355 C   0  0  0  0  0  0  0  0  0  0  0  0
    3.1599   -4.1632    1.4004 C   0  0  1  0  0  0  0  0  0  0  0  0
    2.4516   -5.5336    1.3505 C   0  0  0  0  0  0  0  0  0  0  0  0
    3.1090   -6.7384    2.1213 C   0  0  1  0  0  0  0  0  0  0  0  0
    4.6615   -6.6859    1.9299 C   0  0  0  0  0  0  0  0  0  0  0  0
    5.0500   -7.1558    0.5041 C   0  0  0  0  0  0  0  0  0  0  0  0
    5.3523   -8.5486    1.0557 C   0  0  0  0  0  0  0  0  0  0  0  0
    5.5806   -7.8504    2.3868 C   0  0  0  0  0  0  0  0  0  0  0  0
    5.1730   -5.2700    2.2860 C   0  0  2  0  0  0  0  0  0  0  0  0
    4.8396   -4.6902    3.7024 C   0  0  1  0  0  0  0  0  0  0  0  0
    4.0179   -3.3783    3.6460 C   0  0  0  0  0  0  0  0  0  0  0  0
    2.8552   -3.4807    2.7021 N   0  0  1  0  0  0  0  0  0  0  0  0
    2.1125   -2.1920    2.5350 C   0  0  0  0  0  0  0  0  0  0  0  0
    1.3233   -1.8085    3.7678 C   0  0  0  0  0  0  0  0  0  0  0  0
    0.5976   -0.4866    3.7956 C   0  0  0  0  0  0  0  0  0  0  0  0
    1.7934   -0.7120    4.6879 C   0  0  0  0  0  0  0  0  0  0  0  0
    4.3998   -5.6988    4.7957 C   0  0  1  0  0  0  0  0  0  0  0  0
    4.6840   -5.1567    6.2157 C   0  0  0  0  0  0  0  0  0  0  0  0
    2.9585   -6.2802    4.7258 C   0  0  1  0  0  0  0  0  0  0  0  0
    1.8076   -5.3171    4.8237 C   0  0  0  0  0  0  0  0  0  0  0  0
    0.7313   -5.7880    4.1765 C   0  0  0  0  0  0  0  0  0  0  0  0
    0.9792   -7.1695    3.6064 C   0  0  1  0  0  0  0  0  0  0  0  0
    0.2931   -8.1971    4.5566 C   0  0  0  0  0  0  0  0  0  0  0  0
   -0.5834   -8.9710    3.7103 N   0  0  1  0  0  0  0  0  0  0  0  0
   -1.9775   -8.6086    3.9155 C   0  0  0  0  0  0  0  0  0  0  0  0
   -0.1143   -8.6842    2.2623 C   0  0  0  0  0  0  0  0  0  0  0  0
    0.3218   -7.3500    2.3352 O   0  0  0  0  0  0  0  0  0  0  0  0
    2.5584   -7.2043    3.5380 C   0  0  1  0  0  0  0  0  0  0  0  0
    2.9271   -8.5944    3.6515 O   0  0  0  0  0  0  0  0  0  0  0  0
    3.4928   -9.1405    4.8530 C   0  0  0  0  0  0  0  0  0  0  0  0
    5.3022   -3.1248   -1.7300 H   0  0  0  0  0  0  0  0  0  0  0  0
    5.6022   -1.7875   -0.6228 H   0  0  0  0  0  0  0  0  0  0  0  0
    3.9882   -2.4775   -0.7495 H   0  0  0  0  0  0  0  0  0  0  0  0
    6.5072   -3.9259    0.3484 H   0  0  0  0  0  0  0  0  0  0  0  0
    2.7714   -3.5739    0.5825 H   0  0  0  0  0  0  0  0  0  0  0  0
    1.3989   -5.4048    1.5782 H   0  0  0  0  0  0  0  0  0  0  0  0
    2.4537   -5.8124    0.2934 H   0  0  0  0  0  0  0  0  0  0  0  0
    2.7631   -7.5721    1.5227 H   0  0  0  0  0  0  0  0  0  0  0  0
    4.2594   -7.1505   -0.2431 H   0  0  0  0  0  0  0  0  0  0  0  0
    5.9301   -6.6422    0.1239 H   0  0  0  0  0  0  0  0  0  0  0  0
    4.4834   -9.2096    1.0674 H   0  0  0  0  0  0  0  0  0  0  0  0
    6.2329   -9.0457    0.6457 H   0  0  0  0  0  0  0  0  0  0  0  0
    6.6184   -7.5432    2.5247 H   0  0  0  0  0  0  0  0  0  0  0  0
    5.2745   -8.4497    3.2310 H   0  0  0  0  0  0  0  0  0  0  0  0
    6.2605   -5.2742    2.1952 H   0  0  0  0  0  0  0  0  0  0  0  0
    5.8071   -4.3486    4.0613 H   0  0  0  0  0  0  0  0  0  0  0  0
    3.6703   -3.0812    4.6267 H   0  0  0  0  0  0  0  0  0  0  0  0
    4.6602   -2.5711    3.3015 H   0  0  0  0  0  0  0  0  0  0  0  0
    2.8021   -1.3984    2.2483 H   0  0  0  0  0  0  0  0  0  0  0  0
    1.4007   -2.2874    1.7220 H   0  0  0  0  0  0  0  0  0  0  0  0
    0.7554   -2.6274    4.2099 H   0  0  0  0  0  0  0  0  0  0  0  0
    0.7228    0.1996    2.9582 H   0  0  0  0  0  0  0  0  0  0  0  0
   -0.3723   -0.4486    4.2829 H   0  0  0  0  0  0  0  0  0  0  0  0
    1.5994   -0.8306    5.7491 H   0  0  0  0  0  0  0  0  0  0  0  0
    2.7068   -0.1783    4.4343 H   0  0  0  0  0  0  0  0  0  0  0  0
    5.0834   -6.5448    4.7079 H   0  0  0  0  0  0  0  0  0  0  0  0
    4.0354   -4.3233    6.4884 H   0  0  0  0  0  0  0  0  0  0  0  0
    5.7167   -4.8181    6.3184 H   0  0  0  0  0  0  0  0  0  0  0  0
    4.5376   -5.9342    6.9680 H   0  0  0  0  0  0  0  0  0  0  0  0
    2.8249   -6.8419    5.6479 H   0  0  0  0  0  0  0  0  0  0  0  0
    1.8380   -4.4050    5.3844 H   0  0  0  0  0  0  0  0  0  0  0  0
   -0.2239   -5.2934    4.1360 H   0  0  0  0  0  0  0  0  0  0  0  0
    0.9469   -8.9099    5.0399 H   0  0  0  0  0  0  0  0  0  0  0  0
   -0.1981   -7.7090    5.4071 H   0  0  0  0  0  0  0  0  0  0  0  0
   -2.1734   -7.5469    3.7041 H   0  0  0  0  0  0  0  0  0  0  0  0
   -2.2349   -8.7985    4.9593 H   0  0  0  0  0  0  0  0  0  0  0  0
   -2.6233   -9.2142    3.2611 H   0  0  0  0  0  0  0  0  0  0  0  0
    0.7325   -9.3396    1.9969 H   0  0  0  0  0  0  0  0  0  0  0  0
   -0.9235   -8.8318    1.5026 H   0  0  0  0  0  0  0  0  0  0  0  0
    3.7084  -10.1934    4.6697 H   0  0  0  0  0  0  0  0  0  0  0  0
    2.8541   -9.0941    5.7312 H   0  0  0  0  0  0  0  0  0  0  0  0
    4.4220   -8.6615    5.1453 H   0  0  0  0  0  0  0  0  0  0  0  0
    2.2068   -4.1156    3.1693 H   0  0  0  0  0  0  0  0  0  0  0  0
   -0.5025   -9.9444    3.9392 H   0  0  0  0  0  0  0  0  0  0  0  0
  1  2  1  0
  1 33  1  0
  1 34  1  0
  1 35  1  0
  2  3  2  3
  2 36  1  0
  3 11  1  0
  3  4  1  0
  4 14  1  0
  4  5  1  0
  4 37  1  6
  5  6  1  0
  5 38  1  0
  5 39  1  0
  6 30  1  0
  6  7  1  0
  6 40  1  6
  7 10  1  0
  7  8  1  0
  7 11  1  0
  8  9  1  0
  8 41  1  0
  8 42  1  0
  9 10  1  0
  9 43  1  0
  9 44  1  0
 10 45  1  0
 10 46  1  0
 11 12  1  0
 11 47  1  1
 12 13  1  0
 12 19  1  0
 12 48  1  1
 13 14  1  0
 13 49  1  0
 13 50  1  0
 14 15  1  0
 14 75  1  1
 15 16  1  0
 15 51  1  0
 15 52  1  0
 16 18  1  0
 16 17  1  0
 16 53  1  0
 17 18  1  0
 17 54  1  0
 17 55  1  0
 18 56  1  0
 18 57  1  0
 19 20  1  0
 19 21  1  0
 19 58  1  6
 20 59  1  0
 20 60  1  0
 20 61  1  0
 21 30  1  0
 21 22  1  0
 21 62  1  1
 22 23  2  0
 22 63  1  0
 23 24  1  0
 23 64  1  0
 24 29  1  6
 24 25  1  0
 24 30  1  0
 25 26  1  0
 25 65  1  0
 25 66  1  0
 26 27  1  0
 26 28  1  0
 26 76  1  1
 27 67  1  0
 27 68  1  0
 27 69  1  0
 28 29  1  0
 28 70  1  0
 28 71  1  0
 30 31  1  1
 31 32  1  0
 32 72  1  0
 32 73  1  0
 32 74  1  0
M  CHG  2  14   1  26   1
M  END
>  <i_m_ct_stereo_status>  (189) 
1

>  <s_m_source_file>  (189) 
/var/tmp/pbs.5076255.sched01/tmpc2azvghe/701e6xuegj.sdf

>  <i_m_source_file_index>  (189) 
14

>  <i_lp_mmshare_version>  (189) 
48012

>  <i_f3d_flags>  (189) 
0

>  <s_epik_input>  (189) 
W0NIMl0xW0NIMl1bQ0hdMVtDSDJdTihbQ0gyXTIpW0NASF0oW0NIMl0zKS9DKD1bQ0hdXFtDSDNdKVtDQEhdNFtDQEBIXTJbQ0BASF0oW0NIM10pW0NASF01W0NIXT1bQ0hdW0NAXTYoW0NIMl1OKFtDSDNdKVtDSDJdTzYpW0NAQF01KE9bQ0gzXSlbQ0BASF0zQzQ3W0NIMl1bQ0gyXVtDSDJdNw==

>  <s_epik_cmdline>  (189) 
J2VwaWtfcHl0aG9uJywgJy1waHQnLCAnMi4wJywgJy1waCcsICc3LjAnLCAnLXRuJywgJzgnLCAnLW1hJywgJzIwMCcsICctaW1hZScsICc8aW5maWxlLm1hZT4nLCAnLW9tYWUnLCAnPG91dGZpbGUubWFlPic=

>  <r_epik_Ionization_Penalty>  (189) 
1.03909

>  <r_epik_Ionization_Penalty_Charging>  (189) 
1.03909

>  <r_epik_Ionization_Penalty_Neutral>  (189) 
5.90697e-14

>  <r_epik_State_Penalty>  (189) 
1.07614

>  <r_epik_Charging_Adjusted_Penalty>  (189) 
2.11523

>  <i_epik_Tot_Q>  (189) 
2

>  <i_epik_Tot_abs_Q>  (189) 
2

>  <s_epik_Chemistry_Notes>  (189) 
This compound contains an acetal/aminal-like group ( X-CH(R)-Y where X, Y are N, S, or O) that may be acid/base labile, releasing an aldehyde.

>  <s_lp_Force_Field>  (189) 
OPLS3e

>  <r_lp_Energy>  (189) 
91.7016

>  <b_lp_Chiralities_Consistent>  (189) 
1

>  <s_lp_Variant>  (189) 
68:0-3

>  <s_i_glide_gridfile>  (189) 
pfpi4k_grid

>  <i_i_glide_lignum>  (189) 
14

>  <i_i_glide_rotatable_bonds>  (189) 
3

>  <r_i_docking_score>  (189) 
-2.38008

>  <r_i_glide_ligand_efficiency>  (189) 
-0.0743776

>  <r_i_glide_ligand_efficiency_sa>  (189) 
-0.236134

>  <r_i_glide_ligand_efficiency_ln>  (189) 
-0.532966

>  <r_i_glide_gscore>  (189) 
-2.38008

>  <r_i_glide_lipo>  (189) 
-0.231416

>  <r_i_glide_hbond>  (189) 
-0.0197568

>  <r_i_glide_metal>  (189) 
-0

>  <r_i_glide_rewards>  (189) 
-0.404583

>  <r_i_glide_evdw>  (189) 
-17.3708

>  <r_i_glide_ecoul>  (189) 
-6.33591

>  <r_i_glide_erotb>  (189) 
0.205668

>  <r_i_glide_esite>  (189) 
-0.111072

>  <r_i_glide_emodel>  (189) 
-28.359

>  <r_i_glide_energy>  (189) 
-23.7067

>  <r_i_glide_einternal>  (189) 
0.291205

>  <r_i_glide_intrahb_reward>  (189) 
-0

>  <i_i_glide_confnum>  (189) 
3

>  <i_i_glide_posenum>  (189) 
36

>  <r_i_glide_eff_state_penalty>  (189) 
0

>  <ligand_id>  (189) 
68

>  <original_smiles>  (189) 
CC=C1C2CC3C4(CCC4)C1C(CN2CC1CC1)C(C)C1C=CC2(CN(C)CO2)C13OC

>  <smiles>  (189) 
[H]C(=C1C2([H])C3([H])C([H])(C([H])([H])[H])C4([H])C([H])=C([H])C5(OC([H])([H])[N+]([H])(C([H])([H])[H])C5([H])[H])C4(OC([H])([H])[H])C([H])(C([H])([H])C1([H])[N+]([H])(C([H])([H])C1([H])C([H])([H])C1([H])[H])C3([H])[H])C21C([H])([H])C([H])([H])C1([H])[H])C([H])([H])[H]

$$$$
68:2:2
     RDKit          3D

 76 82  0  0  1  0  0  0  0  0999 V2000
    5.5784   -1.8358   -1.4885 C   0  0  0  0  0  0  0  0  0  0  0  0
    6.0790   -2.5004   -0.2221 C   0  0  0  0  0  0  0  0  0  0  0  0
    5.3719   -3.2151    0.6782 C   0  0  0  0  0  0  0  0  0  0  0  0
    3.8909   -3.5260    0.6615 C   0  0  1  0  0  0  0  0  0  0  0  0
    3.6482   -5.0466    0.7635 C   0  0  0  0  0  0  0  0  0  0  0  0
    4.5145   -5.8716    1.7942 C   0  0  1  0  0  0  0  0  0  0  0  0
    5.9936   -5.3458    1.7641 C   0  0  0  0  0  0  0  0  0  0  0  0
    6.7308   -5.8369    0.4910 C   0  0  0  0  0  0  0  0  0  0  0  0
    7.3448   -6.9783    1.2939 C   0  0  0  0  0  0  0  0  0  0  0  0
    7.1434   -6.0829    2.5029 C   0  0  0  0  0  0  0  0  0  0  0  0
    5.9845   -3.8116    1.9223 C   0  0  2  0  0  0  0  0  0  0  0  0
    5.2770   -3.1982    3.1761 C   0  0  1  0  0  0  0  0  0  0  0  0
    4.1322   -2.2356    2.8187 C   0  0  0  0  0  0  0  0  0  0  0  0
    3.2107   -2.8220    1.7960 N   0  0  1  0  0  0  0  0  0  0  0  0
    2.1778   -1.8614    1.3371 C   0  0  0  0  0  0  0  0  0  0  0  0
    1.3439   -1.2805    2.4631 C   0  0  0  0  0  0  0  0  0  0  0  0
    0.5326   -0.0265    2.2402 C   0  0  0  0  0  0  0  0  0  0  0  0
    1.7443    0.0133    3.1275 C   0  0  0  0  0  0  0  0  0  0  0  0
    5.0003   -4.1428    4.3776 C   0  0  1  0  0  0  0  0  0  0  0  0
    4.8846   -3.3614    5.7075 C   0  0  0  0  0  0  0  0  0  0  0  0
    3.8294   -5.1576    4.2522 C   0  0  1  0  0  0  0  0  0  0  0  0
    2.4357   -4.6150    4.0527 C   0  0  0  0  0  0  0  0  0  0  0  0
    1.6717   -5.4806    3.3897 C   0  0  0  0  0  0  0  0  0  0  0  0
    2.4141   -6.7695    3.0961 C   0  0  1  0  0  0  0  0  0  0  0  0
    1.9256   -7.8342    4.1236 C   0  0  0  0  0  0  0  0  0  0  0  0
    1.4587   -8.9576    3.3399 N   0  0  1  0  0  0  0  0  0  0  0  0
   -0.0208   -9.0589    3.3243 C   0  0  0  0  0  0  0  0  0  0  0  0
    2.0625   -8.7177    1.9219 C   0  0  0  0  0  0  0  0  0  0  0  0
    2.0556   -7.3236    1.8126 O   0  0  0  0  0  0  0  0  0  0  0  0
    3.9179   -6.3029    3.2010 C   0  0  1  0  0  0  0  0  0  0  0  0
    4.6738   -7.4726    3.5898 O   0  0  0  0  0  0  0  0  0  0  0  0
    5.1969   -7.6389    4.9139 C   0  0  0  0  0  0  0  0  0  0  0  0
    6.0929   -2.2612   -2.3512 H   0  0  0  0  0  0  0  0  0  0  0  0
    5.7919   -0.7662   -1.4592 H   0  0  0  0  0  0  0  0  0  0  0  0
    4.5084   -1.9542   -1.6412 H   0  0  0  0  0  0  0  0  0  0  0  0
    7.1403   -2.3662   -0.0462 H   0  0  0  0  0  0  0  0  0  0  0  0
    3.4629   -3.1973   -0.2754 H   0  0  0  0  0  0  0  0  0  0  0  0
    2.5826   -5.2393    0.8427 H   0  0  0  0  0  0  0  0  0  0  0  0
    3.8992   -5.4431   -0.2259 H   0  0  0  0  0  0  0  0  0  0  0  0
    4.5355   -6.8392    1.3108 H   0  0  0  0  0  0  0  0  0  0  0  0
    6.0766   -6.1618   -0.3132 H   0  0  0  0  0  0  0  0  0  0  0  0
    7.4879   -5.1369    0.1285 H   0  0  0  0  0  0  0  0  0  0  0  0
    6.7215   -7.8719    1.3258 H   0  0  0  0  0  0  0  0  0  0  0  0
    8.3844   -7.2088    1.0641 H   0  0  0  0  0  0  0  0  0  0  0  0
    8.0071   -5.4444    2.6979 H   0  0  0  0  0  0  0  0  0  0  0  0
    6.9093   -6.6443    3.3926 H   0  0  0  0  0  0  0  0  0  0  0  0
    7.0181   -3.4723    1.9402 H   0  0  0  0  0  0  0  0  0  0  0  0
    6.0118   -2.5046    3.5693 H   0  0  0  0  0  0  0  0  0  0  0  0
    3.5819   -1.9564    3.7045 H   0  0  0  0  0  0  0  0  0  0  0  0
    4.5436   -1.3144    2.4128 H   0  0  0  0  0  0  0  0  0  0  0  0
    2.6194   -1.0635    0.7426 H   0  0  0  0  0  0  0  0  0  0  0  0
    1.5184   -2.4161    0.6891 H   0  0  0  0  0  0  0  0  0  0  0  0
    0.8549   -2.0278    3.0907 H   0  0  0  0  0  0  0  0  0  0  0  0
    0.6030    0.4785    1.2784 H   0  0  0  0  0  0  0  0  0  0  0  0
   -0.4315    0.0634    2.7371 H   0  0  0  0  0  0  0  0  0  0  0  0
    1.5799    0.0948    4.1997 H   0  0  0  0  0  0  0  0  0  0  0  0
    2.6260    0.5291    2.7490 H   0  0  0  0  0  0  0  0  0  0  0  0
    5.9131   -4.7257    4.5072 H   0  0  0  0  0  0  0  0  0  0  0  0
    3.9809   -2.7539    5.7653 H   0  0  0  0  0  0  0  0  0  0  0  0
    5.7380   -2.6992    5.8617 H   0  0  0  0  0  0  0  0  0  0  0  0
    4.8634   -4.0427    6.5599 H   0  0  0  0  0  0  0  0  0  0  0  0
    3.7279   -5.6111    5.2354 H   0  0  0  0  0  0  0  0  0  0  0  0
    2.1047   -3.6723    4.4526 H   0  0  0  0  0  0  0  0  0  0  0  0
    0.6292   -5.3343    3.1505 H   0  0  0  0  0  0  0  0  0  0  0  0
    2.6946   -8.2198    4.7929 H   0  0  0  0  0  0  0  0  0  0  0  0
    1.1846   -7.4285    4.8260 H   0  0  0  0  0  0  0  0  0  0  0  0
   -0.4626   -8.1413    2.9231 H   0  0  0  0  0  0  0  0  0  0  0  0
   -0.4148   -9.2085    4.3332 H   0  0  0  0  0  0  0  0  0  0  0  0
   -0.3771   -9.8976    2.7039 H   0  0  0  0  0  0  0  0  0  0  0  0
    3.0969   -9.0928    1.8658 H   0  0  0  0  0  0  0  0  0  0  0  0
    1.4921   -9.2202    1.1168 H   0  0  0  0  0  0  0  0  0  0  0  0
    5.7465   -8.5803    4.9353 H   0  0  0  0  0  0  0  0  0  0  0  0
    4.4495   -7.6832    5.7026 H   0  0  0  0  0  0  0  0  0  0  0  0
    5.8883   -6.8556    5.2095 H   0  0  0  0  0  0  0  0  0  0  0  0
    2.7172   -3.5559    2.2936 H   0  0  0  0  0  0  0  0  0  0  0  0
    1.8185   -9.8136    3.7237 H   0  0  0  0  0  0  0  0  0  0  0  0
  1  2  1  0
  1 33  1  0
  1 34  1  0
  1 35  1  0
  2  3  2  3
  2 36  1  0
  3 11  1  0
  3  4  1  0
  4 14  1  0
  4  5  1  0
  4 37  1  6
  5  6  1  0
  5 38  1  0
  5 39  1  0
  6 30  1  0
  6  7  1  0
  6 40  1  6
  7 10  1  0
  7  8  1  0
  7 11  1  0
  8  9  1  0
  8 41  1  0
  8 42  1  0
  9 10  1  0
  9 43  1  0
  9 44  1  0
 10 45  1  0
 10 46  1  0
 11 12  1  0
 11 47  1  1
 12 13  1  0
 12 19  1  0
 12 48  1  1
 13 14  1  0
 13 49  1  0
 13 50  1  0
 14 15  1  0
 14 75  1  1
 15 16  1  0
 15 51  1  0
 15 52  1  0
 16 18  1  0
 16 17  1  0
 16 53  1  0
 17 18  1  0
 17 54  1  0
 17 55  1  0
 18 56  1  0
 18 57  1  0
 19 20  1  0
 19 21  1  0
 19 58  1  1
 20 59  1  0
 20 60  1  0
 20 61  1  0
 21 30  1  0
 21 22  1  0
 21 62  1  1
 22 23  2  0
 22 63  1  0
 23 24  1  0
 23 64  1  0
 24 29  1  6
 24 25  1  0
 24 30  1  0
 25 26  1  0
 25 65  1  0
 25 66  1  0
 26 27  1  0
 26 28  1  0
 26 76  1  1
 27 67  1  0
 27 68  1  0
 27 69  1  0
 28 29  1  0
 28 70  1  0
 28 71  1  0
 30 31  1  1
 31 32  1  0
 32 72  1  0
 32 73  1  0
 32 74  1  0
M  CHG  2  14   1  26   1
M  END
>  <i_m_ct_stereo_status>  (190) 
1

>  <s_m_source_file>  (190) 
/var/tmp/pbs.5076255.sched01/tmpc2azvghe/701e6xuegj.sdf

>  <i_m_source_file_index>  (190) 
14

>  <i_lp_mmshare_version>  (190) 
48012

>  <i_f3d_flags>  (190) 
0

>  <s_epik_input>  (190) 
W0NIMl0xW0NIMl1bQ0hdMVtDSDJdTihbQ0gyXTIpW0NASF0oW0NIMl0zKS9DKD1bQ0hdXFtDSDNdKVtDQEhdNFtDQEBIXTJbQ0BASF0oW0NIM10pW0NASF01W0NIXT1bQ0hdW0NAXTYoW0NIMl1OKFtDSDNdKVtDSDJdTzYpW0NAQF01KE9bQ0gzXSlbQ0BASF0zQzQ3W0NIMl1bQ0gyXVtDSDJdNw==

>  <s_epik_cmdline>  (190) 
J2VwaWtfcHl0aG9uJywgJy1waHQnLCAnMi4wJywgJy1waCcsICc3LjAnLCAnLXRuJywgJzgnLCAnLW1hJywgJzIwMCcsICctaW1hZScsICc8aW5maWxlLm1hZT4nLCAnLW9tYWUnLCAnPG91dGZpbGUubWFlPic=

>  <r_epik_Ionization_Penalty>  (190) 
1.03909

>  <r_epik_Ionization_Penalty_Charging>  (190) 
1.03909

>  <r_epik_Ionization_Penalty_Neutral>  (190) 
5.90697e-14

>  <r_epik_State_Penalty>  (190) 
1.07614

>  <r_epik_Charging_Adjusted_Penalty>  (190) 
2.11523

>  <i_epik_Tot_Q>  (190) 
2

>  <i_epik_Tot_abs_Q>  (190) 
2

>  <s_epik_Chemistry_Notes>  (190) 
This compound contains an acetal/aminal-like group ( X-CH(R)-Y where X, Y are N, S, or O) that may be acid/base labile, releasing an aldehyde.

>  <s_lp_Force_Field>  (190) 
OPLS3e

>  <r_lp_Energy>  (190) 
91.7016

>  <b_lp_Chiralities_Consistent>  (190) 
1

>  <s_lp_Variant>  (190) 
68:0-3

>  <s_i_glide_gridfile>  (190) 
pfpi4k_grid

>  <i_i_glide_lignum>  (190) 
14

>  <i_i_glide_rotatable_bonds>  (190) 
3

>  <r_i_docking_score>  (190) 
-2.3759

>  <r_i_glide_ligand_efficiency>  (190) 
-0.074247

>  <r_i_glide_ligand_efficiency_sa>  (190) 
-0.235719

>  <r_i_glide_ligand_efficiency_ln>  (190) 
-0.532029

>  <r_i_glide_gscore>  (190) 
-2.3759

>  <r_i_glide_lipo>  (190) 
-0.344719

>  <r_i_glide_hbond>  (190) 
0

>  <r_i_glide_metal>  (190) 
-0

>  <r_i_glide_rewards>  (190) 
-0.404583

>  <r_i_glide_evdw>  (190) 
-17.2281

>  <r_i_glide_ecoul>  (190) 
-6.357

>  <r_i_glide_erotb>  (190) 
0.205668

>  <r_i_glide_esite>  (190) 
-0.0173115

>  <r_i_glide_emodel>  (190) 
-28.3845

>  <r_i_glide_energy>  (190) 
-23.5851

>  <r_i_glide_einternal>  (190) 
0.301028

>  <r_i_glide_intrahb_reward>  (190) 
-0

>  <i_i_glide_confnum>  (190) 
3

>  <i_i_glide_posenum>  (190) 
38

>  <r_i_glide_eff_state_penalty>  (190) 
0

>  <ligand_id>  (190) 
68

>  <original_smiles>  (190) 
CC=C1C2CC3C4(CCC4)C1C(CN2CC1CC1)C(C)C1C=CC2(CN(C)CO2)C13OC

>  <smiles>  (190) 
[H]C(=C1C2([H])C3([H])C([H])(C([H])([H])[H])C4([H])C([H])=C([H])C5(OC([H])([H])[N+]([H])(C([H])([H])[H])C5([H])[H])C4(OC([H])([H])[H])C([H])(C([H])([H])C1([H])[N+]([H])(C([H])([H])C1([H])C([H])([H])C1([H])[H])C3([H])[H])C21C([H])([H])C([H])([H])C1([H])[H])C([H])([H])[H]

$$$$
68:3:0
     RDKit          3D

 76 82  0  0  1  0  0  0  0  0999 V2000
    6.3223   -1.3300   -0.1408 C   0  0  0  0  0  0  0  0  0  0  0  0
    4.8923   -1.7436    0.1713 C   0  0  0  0  0  0  0  0  0  0  0  0
    4.4698   -2.6329    1.0829 C   0  0  0  0  0  0  0  0  0  0  0  0
    3.0104   -2.9497    1.3250 C   0  0  1  0  0  0  0  0  0  0  0  0
    2.7577   -4.4649    1.1861 C   0  0  0  0  0  0  0  0  0  0  0  0
    3.7969   -5.4676    1.7929 C   0  0  1  0  0  0  0  0  0  0  0  0
    5.2576   -4.9355    1.5753 C   0  0  0  0  0  0  0  0  0  0  0  0
    5.7190   -5.1580    0.1021 C   0  0  0  0  0  0  0  0  0  0  0  0
    7.1196   -5.4771    0.5903 C   0  0  0  0  0  0  0  0  0  0  0  0
    6.5120   -5.7890    1.9505 C   0  0  0  0  0  0  0  0  0  0  0  0
    5.3348   -3.4489    2.0365 C   0  0  2  0  0  0  0  0  0  0  0  0
    4.9132   -3.1202    3.5117 C   0  0  1  0  0  0  0  0  0  0  0  0
    3.7294   -2.1180    3.5976 C   0  0  0  0  0  0  0  0  0  0  0  0
    2.6035   -2.5040    2.6937 N   0  0  1  0  0  0  0  0  0  0  0  0
    1.5344   -1.4695    2.6653 C   0  0  0  0  0  0  0  0  0  0  0  0
    1.9503   -0.1885    1.9603 C   0  0  0  0  0  0  0  0  0  0  0  0
    2.5532    0.9501    2.7551 C   0  0  0  0  0  0  0  0  0  0  0  0
    1.1856    1.1044    2.1506 C   0  0  0  0  0  0  0  0  0  0  0  0
    4.8613   -4.3025    4.5324 C   0  0  1  0  0  0  0  0  0  0  0  0
    5.0447   -3.7788    5.9795 C   0  0  0  0  0  0  0  0  0  0  0  0
    3.6719   -5.3123    4.4261 C   0  0  1  0  0  0  0  0  0  0  0  0
    2.2972   -4.7415    4.6706 C   0  0  0  0  0  0  0  0  0  0  0  0
    1.3613   -5.4752    4.0532 C   0  0  0  0  0  0  0  0  0  0  0  0
    1.9826   -6.6497    3.3672 C   0  0  1  0  0  0  0  0  0  0  0  0
    1.7475   -7.9058    4.2501 C   0  0  0  0  0  0  0  0  0  0  0  0
    1.1871   -8.8843    3.3859 N   0  0  1  0  0  0  0  0  0  0  0  0
    0.3582   -9.9633    4.0326 C   0  0  0  0  0  0  0  0  0  0  0  0
    0.4365   -8.0567    2.2934 C   0  0  0  0  0  0  0  0  0  0  0  0
    1.3165   -6.9602    2.1369 O   0  0  0  0  0  0  0  0  0  0  0  0
    3.4730   -6.2196    3.1464 C   0  0  1  0  0  0  0  0  0  0  0  0
    4.3379   -7.3890    3.2419 O   0  0  0  0  0  0  0  0  0  0  0  0
    4.2410   -8.4642    2.2939 C   0  0  0  0  0  0  0  0  0  0  0  0
    6.4955   -1.4819   -1.2067 H   0  0  0  0  0  0  0  0  0  0  0  0
    7.0809   -1.8981    0.4018 H   0  0  0  0  0  0  0  0  0  0  0  0
    6.4595   -0.2688    0.0820 H   0  0  0  0  0  0  0  0  0  0  0  0
    4.1458   -1.2297   -0.4243 H   0  0  0  0  0  0  0  0  0  0  0  0
    2.4028   -2.4706    0.5463 H   0  0  0  0  0  0  0  0  0  0  0  0
    1.7431   -4.6902    1.4709 H   0  0  0  0  0  0  0  0  0  0  0  0
    2.7833   -4.6463    0.1159 H   0  0  0  0  0  0  0  0  0  0  0  0
    3.6444   -6.2712    1.0883 H   0  0  0  0  0  0  0  0  0  0  0  0
    5.2550   -6.0207   -0.3630 H   0  0  0  0  0  0  0  0  0  0  0  0
    5.6831   -4.2885   -0.5662 H   0  0  0  0  0  0  0  0  0  0  0  0
    7.5593   -6.3412    0.0998 H   0  0  0  0  0  0  0  0  0  0  0  0
    7.7815   -4.6173    0.5816 H   0  0  0  0  0  0  0  0  0  0  0  0
    7.1266   -5.3991    2.7697 H   0  0  0  0  0  0  0  0  0  0  0  0
    6.3353   -6.8441    2.0608 H   0  0  0  0  0  0  0  0  0  0  0  0
    6.3750   -3.1029    1.9457 H   0  0  0  0  0  0  0  0  0  0  0  0
    5.7479   -2.5188    3.8792 H   0  0  0  0  0  0  0  0  0  0  0  0
    3.3589   -2.0111    4.6269 H   0  0  0  0  0  0  0  0  0  0  0  0
    4.1350   -1.1480    3.3110 H   0  0  0  0  0  0  0  0  0  0  0  0
    0.6644   -1.8694    2.1403 H   0  0  0  0  0  0  0  0  0  0  0  0
    1.2146   -1.2532    3.6900 H   0  0  0  0  0  0  0  0  0  0  0  0
    2.3201   -0.3225    0.9411 H   0  0  0  0  0  0  0  0  0  0  0  0
    2.6183    0.8201    3.8339 H   0  0  0  0  0  0  0  0  0  0  0  0
    3.3965    1.4518    2.2801 H   0  0  0  0  0  0  0  0  0  0  0  0
    1.1016    1.7563    1.2768 H   0  0  0  0  0  0  0  0  0  0  0  0
    0.3289    1.0992    2.8216 H   0  0  0  0  0  0  0  0  0  0  0  0
    5.7631   -4.8929    4.3745 H   0  0  0  0  0  0  0  0  0  0  0  0
    4.1937   -3.1971    6.3385 H   0  0  0  0  0  0  0  0  0  0  0  0
    5.9310   -3.1404    6.0671 H   0  0  0  0  0  0  0  0  0  0  0  0
    5.1917   -4.6061    6.6789 H   0  0  0  0  0  0  0  0  0  0  0  0
    3.8213   -5.9985    5.2628 H   0  0  0  0  0  0  0  0  0  0  0  0
    2.0888   -3.8947    5.3034 H   0  0  0  0  0  0  0  0  0  0  0  0
    0.3051   -5.2854    4.0830 H   0  0  0  0  0  0  0  0  0  0  0  0
    2.6211   -8.2442    4.8079 H   0  0  0  0  0  0  0  0  0  0  0  0
    1.0873   -7.6448    5.0705 H   0  0  0  0  0  0  0  0  0  0  0  0
   -0.5075   -9.5500    4.5514 H   0  0  0  0  0  0  0  0  0  0  0  0
    0.9679  -10.4790    4.7794 H   0  0  0  0  0  0  0  0  0  0  0  0
    0.0242  -10.6953    3.3369 H   0  0  0  0  0  0  0  0  0  0  0  0
    0.3046   -8.5466    1.3524 H   0  0  0  0  0  0  0  0  0  0  0  0
   -0.5406   -7.7012    2.6091 H   0  0  0  0  0  0  0  0  0  0  0  0
    5.0319   -9.1973    2.5161 H   0  0  0  0  0  0  0  0  0  0  0  0
    4.4221   -8.1284    1.2693 H   0  0  0  0  0  0  0  0  0  0  0  0
    3.2971   -8.9958    2.3340 H   0  0  0  0  0  0  0  0  0  0  0  0
    2.2020   -3.3010    3.1211 H   0  0  0  0  0  0  0  0  0  0  0  0
    1.9673   -9.3508    2.9230 H   0  0  0  0  0  0  0  0  0  0  0  0
  1  2  1  0
  1 33  1  0
  1 34  1  0
  1 35  1  0
  2  3  2  3
  2 36  1  0
  3 11  1  0
  3  4  1  0
  4 14  1  0
  4  5  1  0
  4 37  1  6
  5  6  1  0
  5 38  1  0
  5 39  1  0
  6 30  1  0
  6  7  1  0
  6 40  1  6
  7 10  1  0
  7  8  1  0
  7 11  1  0
  8  9  1  0
  8 41  1  0
  8 42  1  0
  9 10  1  0
  9 43  1  0
  9 44  1  0
 10 45  1  0
 10 46  1  0
 11 12  1  0
 11 47  1  1
 12 13  1  0
 12 19  1  0
 12 48  1  1
 13 14  1  0
 13 49  1  0
 13 50  1  0
 14 15  1  0
 14 75  1  1
 15 16  1  0
 15 51  1  0
 15 52  1  0
 16 18  1  0
 16 17  1  0
 16 53  1  0
 17 18  1  0
 17 54  1  0
 17 55  1  0
 18 56  1  0
 18 57  1  0
 19 20  1  0
 19 21  1  0
 19 58  1  6
 20 59  1  0
 20 60  1  0
 20 61  1  0
 21 30  1  0
 21 22  1  0
 21 62  1  1
 22 23  2  0
 22 63  1  0
 23 24  1  0
 23 64  1  0
 24 29  1  6
 24 25  1  0
 24 30  1  0
 25 26  1  0
 25 65  1  0
 25 66  1  0
 26 27  1  0
 26 28  1  0
 26 76  1  6
 27 67  1  0
 27 68  1  0
 27 69  1  0
 28 29  1  0
 28 70  1  0
 28 71  1  0
 30 31  1  1
 31 32  1  0
 32 72  1  0
 32 73  1  0
 32 74  1  0
M  CHG  2  14   1  26   1
M  END
>  <i_m_ct_stereo_status>  (191) 
1

>  <s_m_source_file>  (191) 
/var/tmp/pbs.5076255.sched01/tmpc2azvghe/701e6xuegj.sdf

>  <i_m_source_file_index>  (191) 
15

>  <i_lp_mmshare_version>  (191) 
48012

>  <i_f3d_flags>  (191) 
0

>  <s_epik_input>  (191) 
W0NIMl0xW0NIMl1bQ0hdMVtDSDJdTihbQ0gyXTIpW0NASF0oW0NIMl0zKS9DKD1bQ0hdXFtDSDNdKVtDQEhdNFtDQEBIXTJbQ0BASF0oW0NIM10pW0NASF01W0NIXT1bQ0hdW0NAXTYoW0NIMl1OKFtDSDNdKVtDSDJdTzYpW0NAQF01KE9bQ0gzXSlbQ0BASF0zQzQ3W0NIMl1bQ0gyXVtDSDJdNw==

>  <s_epik_cmdline>  (191) 
J2VwaWtfcHl0aG9uJywgJy1waHQnLCAnMi4wJywgJy1waCcsICc3LjAnLCAnLXRuJywgJzgnLCAnLW1hJywgJzIwMCcsICctaW1hZScsICc8aW5maWxlLm1hZT4nLCAnLW9tYWUnLCAnPG91dGZpbGUubWFlPic=

>  <r_epik_Ionization_Penalty>  (191) 
1.03909

>  <r_epik_Ionization_Penalty_Charging>  (191) 
1.03909

>  <r_epik_Ionization_Penalty_Neutral>  (191) 
5.90697e-14

>  <r_epik_State_Penalty>  (191) 
1.07614

>  <r_epik_Charging_Adjusted_Penalty>  (191) 
2.11523

>  <i_epik_Tot_Q>  (191) 
2

>  <i_epik_Tot_abs_Q>  (191) 
2

>  <s_epik_Chemistry_Notes>  (191) 
This compound contains an acetal/aminal-like group ( X-CH(R)-Y where X, Y are N, S, or O) that may be acid/base labile, releasing an aldehyde.

>  <s_lp_Force_Field>  (191) 
OPLS3e

>  <r_lp_Energy>  (191) 
91.5515

>  <b_lp_Chiralities_Consistent>  (191) 
1

>  <s_lp_Variant>  (191) 
68:0-4

>  <s_i_glide_gridfile>  (191) 
pfpi4k_grid

>  <i_i_glide_lignum>  (191) 
15

>  <i_i_glide_rotatable_bonds>  (191) 
3

>  <r_i_docking_score>  (191) 
-2.67849

>  <r_i_glide_ligand_efficiency>  (191) 
-0.0837029

>  <r_i_glide_ligand_efficiency_sa>  (191) 
-0.26574

>  <r_i_glide_ligand_efficiency_ln>  (191) 
-0.599788

>  <r_i_glide_gscore>  (191) 
-2.67849

>  <r_i_glide_lipo>  (191) 
-0.372816

>  <r_i_glide_hbond>  (191) 
0

>  <r_i_glide_metal>  (191) 
-0

>  <r_i_glide_rewards>  (191) 
-0.404583

>  <r_i_glide_evdw>  (191) 
-20.0646

>  <r_i_glide_ecoul>  (191) 
-6.94033

>  <r_i_glide_erotb>  (191) 
0.205668

>  <r_i_glide_esite>  (191) 
-0.0624848

>  <r_i_glide_emodel>  (191) 
-28.2169

>  <r_i_glide_energy>  (191) 
-27.0049

>  <r_i_glide_einternal>  (191) 
5.42974

>  <r_i_glide_intrahb_reward>  (191) 
-0

>  <i_i_glide_confnum>  (191) 
2

>  <i_i_glide_posenum>  (191) 
37

>  <r_i_glide_eff_state_penalty>  (191) 
0

>  <ligand_id>  (191) 
68

>  <original_smiles>  (191) 
CC=C1C2CC3C4(CCC4)C1C(CN2CC1CC1)C(C)C1C=CC2(CN(C)CO2)C13OC

>  <smiles>  (191) 
[H]C(=C1C2([H])C3([H])C([H])(C([H])([H])[H])C4([H])C([H])=C([H])C5(OC([H])([H])[N+]([H])(C([H])([H])[H])C5([H])[H])C4(OC([H])([H])[H])C([H])(C([H])([H])C1([H])[N+]([H])(C([H])([H])C1([H])C([H])([H])C1([H])[H])C3([H])[H])C21C([H])([H])C([H])([H])C1([H])[H])C([H])([H])[H]

$$$$
68:3:1
     RDKit          3D

 76 82  0  0  1  0  0  0  0  0999 V2000
    6.6617   -1.5232    0.4034 C   0  0  0  0  0  0  0  0  0  0  0  0
    5.1882   -1.8103    0.6286 C   0  0  0  0  0  0  0  0  0  0  0  0
    4.6275   -2.7043    1.4744 C   0  0  0  0  0  0  0  0  0  0  0  0
    3.1370   -2.9032    1.6391 C   0  0  1  0  0  0  0  0  0  0  0  0
    2.7477   -4.3737    1.3865 C   0  0  0  0  0  0  0  0  0  0  0  0
    3.6484   -5.4945    2.0028 C   0  0  1  0  0  0  0  0  0  0  0  0
    5.1491   -5.0879    1.8524 C   0  0  0  0  0  0  0  0  0  0  0  0
    5.6412   -5.2616    0.3816 C   0  0  0  0  0  0  0  0  0  0  0  0
    6.9832   -5.7585    0.8893 C   0  0  0  0  0  0  0  0  0  0  0  0
    6.2863   -6.0814    2.2034 C   0  0  0  0  0  0  0  0  0  0  0  0
    5.3439   -3.6531    2.4088 C   0  0  2  0  0  0  0  0  0  0  0  0
    4.8981   -3.3626    3.8847 C   0  0  1  0  0  0  0  0  0  0  0  0
    3.8180   -2.2607    3.9835 C   0  0  0  0  0  0  0  0  0  0  0  0
    2.7116   -2.4605    3.0000 N   0  0  1  0  0  0  0  0  0  0  0  0
    1.7306   -1.3472    2.9786 C   0  0  0  0  0  0  0  0  0  0  0  0
    2.3537    0.0140    2.6726 C   0  0  0  0  0  0  0  0  0  0  0  0
    1.5937    1.0632    1.8967 C   0  0  0  0  0  0  0  0  0  0  0  0
    2.7818    0.4005    1.2797 C   0  0  0  0  0  0  0  0  0  0  0  0
    4.6815   -4.5713    4.8314 C   0  0  1  0  0  0  0  0  0  0  0  0
    4.8511   -4.1728    6.3117 C   0  0  0  0  0  0  0  0  0  0  0  0
    3.3992   -5.4257    4.6391 C   0  0  1  0  0  0  0  0  0  0  0  0
    2.0620   -4.7554    4.8238 C   0  0  0  0  0  0  0  0  0  0  0  0
    1.1168   -5.3621    4.1119 C   0  0  0  0  0  0  0  0  0  0  0  0
    1.6602   -6.5593    3.3650 C   0  0  1  0  0  0  0  0  0  0  0  0
    1.2643   -7.8376    4.1429 C   0  0  0  0  0  0  0  0  0  0  0  0
    0.6946   -8.7204    3.1393 N   0  0  1  0  0  0  0  0  0  0  0  0
   -0.2560   -9.7059    3.7073 C   0  0  0  0  0  0  0  0  0  0  0  0
    0.0714   -7.7252    2.1084 C   0  0  0  0  0  0  0  0  0  0  0  0
    1.0319   -6.7137    2.0692 O   0  0  0  0  0  0  0  0  0  0  0  0
    3.2036   -6.2441    3.3244 C   0  0  1  0  0  0  0  0  0  0  0  0
    3.8545   -7.5327    3.2635 O   0  0  0  0  0  0  0  0  0  0  0  0
    4.6027   -8.0588    4.3605 C   0  0  0  0  0  0  0  0  0  0  0  0
    6.8809   -1.6169   -0.6595 H   0  0  0  0  0  0  0  0  0  0  0  0
    7.3408   -2.1852    0.9365 H   0  0  0  0  0  0  0  0  0  0  0  0
    6.8846   -0.4973    0.6968 H   0  0  0  0  0  0  0  0  0  0  0  0
    4.5440   -1.2041    0.0150 H   0  0  0  0  0  0  0  0  0  0  0  0
    2.6084   -2.3467    0.8697 H   0  0  0  0  0  0  0  0  0  0  0  0
    1.6978   -4.5028    1.6147 H   0  0  0  0  0  0  0  0  0  0  0  0
    2.8105   -4.5031    0.3024 H   0  0  0  0  0  0  0  0  0  0  0  0
    3.4804   -6.3002    1.2964 H   0  0  0  0  0  0  0  0  0  0  0  0
    5.1089   -6.0275   -0.1769 H   0  0  0  0  0  0  0  0  0  0  0  0
    5.7160   -4.3593   -0.2297 H   0  0  0  0  0  0  0  0  0  0  0  0
    7.3642   -6.6348    0.3705 H   0  0  0  0  0  0  0  0  0  0  0  0
    7.7232   -4.9649    0.9640 H   0  0  0  0  0  0  0  0  0  0  0  0
    6.8967   -5.8114    3.0682 H   0  0  0  0  0  0  0  0  0  0  0  0
    5.9975   -7.1261    2.2225 H   0  0  0  0  0  0  0  0  0  0  0  0
    6.4032   -3.4167    2.3622 H   0  0  0  0  0  0  0  0  0  0  0  0
    5.7697   -2.8680    4.3144 H   0  0  0  0  0  0  0  0  0  0  0  0
    3.4100   -2.1701    4.9899 H   0  0  0  0  0  0  0  0  0  0  0  0
    4.3343   -1.3208    3.7881 H   0  0  0  0  0  0  0  0  0  0  0  0
    0.9375   -1.5601    2.2640 H   0  0  0  0  0  0  0  0  0  0  0  0
    1.2495   -1.2895    3.9553 H   0  0  0  0  0  0  0  0  0  0  0  0
    2.9531    0.4174    3.4872 H   0  0  0  0  0  0  0  0  0  0  0  0
    0.6186    0.8080    1.4818 H   0  0  0  0  0  0  0  0  0  0  0  0
    1.7293    2.1097    2.1740 H   0  0  0  0  0  0  0  0  0  0  0  0
    3.7184    0.9535    1.2016 H   0  0  0  0  0  0  0  0  0  0  0  0
    2.5619   -0.2480    0.4359 H   0  0  0  0  0  0  0  0  0  0  0  0
    5.5279   -5.2293    4.6593 H   0  0  0  0  0  0  0  0  0  0  0  0
    4.0428   -3.5381    6.6751 H   0  0  0  0  0  0  0  0  0  0  0  0
    5.7914   -3.6436    6.4790 H   0  0  0  0  0  0  0  0  0  0  0  0
    4.8771   -5.0594    6.9469 H   0  0  0  0  0  0  0  0  0  0  0  0
    3.3942   -6.1244    5.4721 H   0  0  0  0  0  0  0  0  0  0  0  0
    1.8982   -3.9357    5.5055 H   0  0  0  0  0  0  0  0  0  0  0  0
    0.0761   -5.0851    4.1027 H   0  0  0  0  0  0  0  0  0  0  0  0
    2.0249   -8.3605    4.7268 H   0  0  0  0  0  0  0  0  0  0  0  0
    0.5336   -7.5743    4.9044 H   0  0  0  0  0  0  0  0  0  0  0  0
   -1.0851   -9.1950    4.1967 H   0  0  0  0  0  0  0  0  0  0  0  0
    0.2227  -10.3312    4.4613 H   0  0  0  0  0  0  0  0  0  0  0  0
   -0.6740  -10.3504    2.9421 H   0  0  0  0  0  0  0  0  0  0  0  0
   -0.1245   -8.1696    1.1246 H   0  0  0  0  0  0  0  0  0  0  0  0
   -0.8715   -7.3363    2.4941 H   0  0  0  0  0  0  0  0  0  0  0  0
    5.0183   -9.0222    4.0609 H   0  0  0  0  0  0  0  0  0  0  0  0
    4.0197   -8.2480    5.2588 H   0  0  0  0  0  0  0  0  0  0  0  0
    5.4322   -7.4214    4.6496 H   0  0  0  0  0  0  0  0  0  0  0  0
    2.2040   -3.2513    3.3640 H   0  0  0  0  0  0  0  0  0  0  0  0
    1.4623   -9.2018    2.6904 H   0  0  0  0  0  0  0  0  0  0  0  0
  1  2  1  0
  1 33  1  0
  1 34  1  0
  1 35  1  0
  2  3  2  3
  2 36  1  0
  3 11  1  0
  3  4  1  0
  4 14  1  0
  4  5  1  0
  4 37  1  6
  5  6  1  0
  5 38  1  0
  5 39  1  0
  6 30  1  0
  6  7  1  0
  6 40  1  6
  7 10  1  0
  7  8  1  0
  7 11  1  0
  8  9  1  0
  8 41  1  0
  8 42  1  0
  9 10  1  0
  9 43  1  0
  9 44  1  0
 10 45  1  0
 10 46  1  0
 11 12  1  0
 11 47  1  1
 12 13  1  0
 12 19  1  0
 12 48  1  1
 13 14  1  0
 13 49  1  0
 13 50  1  0
 14 15  1  0
 14 75  1  1
 15 16  1  0
 15 51  1  0
 15 52  1  0
 16 18  1  0
 16 17  1  0
 16 53  1  0
 17 18  1  0
 17 54  1  0
 17 55  1  0
 18 56  1  0
 18 57  1  0
 19 20  1  0
 19 21  1  0
 19 58  1  6
 20 59  1  0
 20 60  1  0
 20 61  1  0
 21 30  1  0
 21 22  1  0
 21 62  1  1
 22 23  2  0
 22 63  1  0
 23 24  1  0
 23 64  1  0
 24 29  1  6
 24 25  1  0
 24 30  1  0
 25 26  1  0
 25 65  1  0
 25 66  1  0
 26 27  1  0
 26 28  1  0
 26 76  1  6
 27 67  1  0
 27 68  1  0
 27 69  1  0
 28 29  1  0
 28 70  1  0
 28 71  1  0
 30 31  1  1
 31 32  1  0
 32 72  1  0
 32 73  1  0
 32 74  1  0
M  CHG  2  14   1  26   1
M  END
>  <i_m_ct_stereo_status>  (192) 
1

>  <s_m_source_file>  (192) 
/var/tmp/pbs.5076255.sched01/tmpc2azvghe/701e6xuegj.sdf

>  <i_m_source_file_index>  (192) 
15

>  <i_lp_mmshare_version>  (192) 
48012

>  <i_f3d_flags>  (192) 
0

>  <s_epik_input>  (192) 
W0NIMl0xW0NIMl1bQ0hdMVtDSDJdTihbQ0gyXTIpW0NASF0oW0NIMl0zKS9DKD1bQ0hdXFtDSDNdKVtDQEhdNFtDQEBIXTJbQ0BASF0oW0NIM10pW0NASF01W0NIXT1bQ0hdW0NAXTYoW0NIMl1OKFtDSDNdKVtDSDJdTzYpW0NAQF01KE9bQ0gzXSlbQ0BASF0zQzQ3W0NIMl1bQ0gyXVtDSDJdNw==

>  <s_epik_cmdline>  (192) 
J2VwaWtfcHl0aG9uJywgJy1waHQnLCAnMi4wJywgJy1waCcsICc3LjAnLCAnLXRuJywgJzgnLCAnLW1hJywgJzIwMCcsICctaW1hZScsICc8aW5maWxlLm1hZT4nLCAnLW9tYWUnLCAnPG91dGZpbGUubWFlPic=

>  <r_epik_Ionization_Penalty>  (192) 
1.03909

>  <r_epik_Ionization_Penalty_Charging>  (192) 
1.03909

>  <r_epik_Ionization_Penalty_Neutral>  (192) 
5.90697e-14

>  <r_epik_State_Penalty>  (192) 
1.07614

>  <r_epik_Charging_Adjusted_Penalty>  (192) 
2.11523

>  <i_epik_Tot_Q>  (192) 
2

>  <i_epik_Tot_abs_Q>  (192) 
2

>  <s_epik_Chemistry_Notes>  (192) 
This compound contains an acetal/aminal-like group ( X-CH(R)-Y where X, Y are N, S, or O) that may be acid/base labile, releasing an aldehyde.

>  <s_lp_Force_Field>  (192) 
OPLS3e

>  <r_lp_Energy>  (192) 
91.5515

>  <b_lp_Chiralities_Consistent>  (192) 
1

>  <s_lp_Variant>  (192) 
68:0-4

>  <s_i_glide_gridfile>  (192) 
pfpi4k_grid

>  <i_i_glide_lignum>  (192) 
15

>  <i_i_glide_rotatable_bonds>  (192) 
3

>  <r_i_docking_score>  (192) 
-2.62895

>  <r_i_glide_ligand_efficiency>  (192) 
-0.0821547

>  <r_i_glide_ligand_efficiency_sa>  (192) 
-0.260825

>  <r_i_glide_ligand_efficiency_ln>  (192) 
-0.588693

>  <r_i_glide_gscore>  (192) 
-2.62895

>  <r_i_glide_lipo>  (192) 
-0.418769

>  <r_i_glide_hbond>  (192) 
0

>  <r_i_glide_metal>  (192) 
-0

>  <r_i_glide_rewards>  (192) 
-0.404583

>  <r_i_glide_evdw>  (192) 
-19.0927

>  <r_i_glide_ecoul>  (192) 
-6.45489

>  <r_i_glide_erotb>  (192) 
0.205668

>  <r_i_glide_esite>  (192) 
-0.0883934

>  <r_i_glide_emodel>  (192) 
-27.932

>  <r_i_glide_energy>  (192) 
-25.5476

>  <r_i_glide_einternal>  (192) 
3.56232

>  <r_i_glide_intrahb_reward>  (192) 
-0

>  <i_i_glide_confnum>  (192) 
1

>  <i_i_glide_posenum>  (192) 
10

>  <r_i_glide_eff_state_penalty>  (192) 
0

>  <ligand_id>  (192) 
68

>  <original_smiles>  (192) 
CC=C1C2CC3C4(CCC4)C1C(CN2CC1CC1)C(C)C1C=CC2(CN(C)CO2)C13OC

>  <smiles>  (192) 
[H]C(=C1C2([H])C3([H])C([H])(C([H])([H])[H])C4([H])C([H])=C([H])C5(OC([H])([H])[N+]([H])(C([H])([H])[H])C5([H])[H])C4(OC([H])([H])[H])C([H])(C([H])([H])C1([H])[N+]([H])(C([H])([H])C1([H])C([H])([H])C1([H])[H])C3([H])[H])C21C([H])([H])C([H])([H])C1([H])[H])C([H])([H])[H]

$$$$
68:3:2
     RDKit          3D

 76 82  0  0  1  0  0  0  0  0999 V2000
    0.7784    4.7148    6.8803 C   0  0  0  0  0  0  0  0  0  0  0  0
    0.8714    4.2019    5.4508 C   0  0  0  0  0  0  0  0  0  0  0  0
    1.2795    2.9836    5.0267 C   0  0  0  0  0  0  0  0  0  0  0  0
    1.3266    2.5709    3.5702 C   0  0  1  0  0  0  0  0  0  0  0  0
    2.7370    2.0686    3.1874 C   0  0  0  0  0  0  0  0  0  0  0  0
    3.4808    1.1165    4.1949 C   0  0  1  0  0  0  0  0  0  0  0  0
    3.2435    1.6223    5.6582 C   0  0  0  0  0  0  0  0  0  0  0  0
    4.0856    2.8964    5.9660 C   0  0  0  0  0  0  0  0  0  0  0  0
    4.3499    2.3872    7.3698 C   0  0  0  0  0  0  0  0  0  0  0  0
    4.0084    0.9943    6.8526 C   0  0  0  0  0  0  0  0  0  0  0  0
    1.7293    1.8118    5.8845 C   0  0  2  0  0  0  0  0  0  0  0  0
    0.7954    0.5811    5.6213 C   0  0  1  0  0  0  0  0  0  0  0  0
   -0.2615    0.8594    4.5387 C   0  0  0  0  0  0  0  0  0  0  0  0
    0.3138    1.4978    3.3146 N   0  0  1  0  0  0  0  0  0  0  0  0
   -0.7375    1.8892    2.3369 C   0  0  0  0  0  0  0  0  0  0  0  0
   -1.5921    3.0639    2.8158 C   0  0  0  0  0  0  0  0  0  0  0  0
   -2.7333    2.8356    3.7800 C   0  0  0  0  0  0  0  0  0  0  0  0
   -3.0285    3.2403    2.3687 C   0  0  0  0  0  0  0  0  0  0  0  0
    1.4195   -0.8338    5.5587 C   0  0  1  0  0  0  0  0  0  0  0  0
    0.3839   -1.9268    5.8992 C   0  0  0  0  0  0  0  0  0  0  0  0
    2.2140   -1.2093    4.2820 C   0  0  1  0  0  0  0  0  0  0  0  0
    1.4913   -1.2255    2.9544 C   0  0  0  0  0  0  0  0  0  0  0  0
    2.3198   -0.9910    1.9532 C   0  0  0  0  0  0  0  0  0  0  0  0
    3.7451   -0.8324    2.4279 C   0  0  1  0  0  0  0  0  0  0  0  0
    4.5193   -2.1397    2.1534 C   0  0  0  0  0  0  0  0  0  0  0  0
    5.7210   -1.7347    1.4867 N   0  0  1  0  0  0  0  0  0  0  0  0
    6.3179   -2.8008    0.6383 C   0  0  0  0  0  0  0  0  0  0  0  0
    5.3112   -0.4508    0.7214 C   0  0  0  0  0  0  0  0  0  0  0  0
    4.4678    0.1588    1.6523 O   0  0  0  0  0  0  0  0  0  0  0  0
    3.5329   -0.4474    3.9381 C   0  0  1  0  0  0  0  0  0  0  0  0
    4.7291   -0.9023    4.6132 O   0  0  0  0  0  0  0  0  0  0  0  0
    4.7241   -2.0187    5.5032 C   0  0  0  0  0  0  0  0  0  0  0  0
    1.3500    5.6377    6.9766 H   0  0  0  0  0  0  0  0  0  0  0  0
    1.1564    4.0248    7.6313 H   0  0  0  0  0  0  0  0  0  0  0  0
   -0.2561    4.9484    7.1296 H   0  0  0  0  0  0  0  0  0  0  0  0
    0.5786    4.9251    4.7041 H   0  0  0  0  0  0  0  0  0  0  0  0
    1.1298    3.4432    2.9478 H   0  0  0  0  0  0  0  0  0  0  0  0
    2.7222    1.6995    2.1652 H   0  0  0  0  0  0  0  0  0  0  0  0
    3.3500    2.9748    3.1311 H   0  0  0  0  0  0  0  0  0  0  0  0
    4.5132    1.3464    3.9660 H   0  0  0  0  0  0  0  0  0  0  0  0
    5.0014    2.9712    5.3884 H   0  0  0  0  0  0  0  0  0  0  0  0
    3.5624    3.8555    5.9430 H   0  0  0  0  0  0  0  0  0  0  0  0
    5.3847    2.5058    7.6880 H   0  0  0  0  0  0  0  0  0  0  0  0
    3.6409    2.7750    8.0971 H   0  0  0  0  0  0  0  0  0  0  0  0
    3.3938    0.4337    7.5615 H   0  0  0  0  0  0  0  0  0  0  0  0
    4.9162    0.4613    6.5971 H   0  0  0  0  0  0  0  0  0  0  0  0
    1.5720    2.0806    6.9265 H   0  0  0  0  0  0  0  0  0  0  0  0
    0.1856    0.5433    6.5255 H   0  0  0  0  0  0  0  0  0  0  0  0
   -0.8346   -0.0253    4.2569 H   0  0  0  0  0  0  0  0  0  0  0  0
   -0.9528    1.5367    5.0328 H   0  0  0  0  0  0  0  0  0  0  0  0
   -0.2473    2.1505    1.4012 H   0  0  0  0  0  0  0  0  0  0  0  0
   -1.3705    1.0312    2.1060 H   0  0  0  0  0  0  0  0  0  0  0  0
   -1.0467    4.0006    2.9190 H   0  0  0  0  0  0  0  0  0  0  0  0
   -2.9756    1.8105    4.0508 H   0  0  0  0  0  0  0  0  0  0  0  0
   -2.8286    3.5715    4.5788 H   0  0  0  0  0  0  0  0  0  0  0  0
   -3.4089    4.2524    2.2313 H   0  0  0  0  0  0  0  0  0  0  0  0
   -3.4610    2.4856    1.7141 H   0  0  0  0  0  0  0  0  0  0  0  0
    2.1091   -0.8769    6.3948 H   0  0  0  0  0  0  0  0  0  0  0  0
   -0.3727   -2.0540    5.1244 H   0  0  0  0  0  0  0  0  0  0  0  0
   -0.1291   -1.7159    6.8386 H   0  0  0  0  0  0  0  0  0  0  0  0
    0.8813   -2.8884    6.0260 H   0  0  0  0  0  0  0  0  0  0  0  0
    2.4539   -2.2614    4.3992 H   0  0  0  0  0  0  0  0  0  0  0  0
    0.4359   -1.4673    2.8643 H   0  0  0  0  0  0  0  0  0  0  0  0
    2.0556   -0.9661    0.9048 H   0  0  0  0  0  0  0  0  0  0  0  0
    4.7335   -2.7960    3.0019 H   0  0  0  0  0  0  0  0  0  0  0  0
    3.8966   -2.7754    1.5249 H   0  0  0  0  0  0  0  0  0  0  0  0
    5.6152   -3.1022   -0.1313 H   0  0  0  0  0  0  0  0  0  0  0  0
    6.5351   -3.6792    1.2369 H   0  0  0  0  0  0  0  0  0  0  0  0
    7.2263   -2.4816    0.1543 H   0  0  0  0  0  0  0  0  0  0  0  0
    6.1530    0.1821    0.4361 H   0  0  0  0  0  0  0  0  0  0  0  0
    4.7439   -0.6944   -0.1686 H   0  0  0  0  0  0  0  0  0  0  0  0
    5.7311   -2.1461    5.9046 H   0  0  0  0  0  0  0  0  0  0  0  0
    4.4624   -2.9676    5.0418 H   0  0  0  0  0  0  0  0  0  0  0  0
    4.0515   -1.8844    6.3445 H   0  0  0  0  0  0  0  0  0  0  0  0
    0.8319    0.7736    2.8522 H   0  0  0  0  0  0  0  0  0  0  0  0
    6.3810   -1.4558    2.2103 H   0  0  0  0  0  0  0  0  0  0  0  0
  1  2  1  0
  1 33  1  0
  1 34  1  0
  1 35  1  0
  2  3  2  3
  2 36  1  0
  3 11  1  0
  3  4  1  0
  4 14  1  0
  4  5  1  0
  4 37  1  6
  5  6  1  0
  5 38  1  0
  5 39  1  0
  6 30  1  0
  6  7  1  0
  6 40  1  6
  7 10  1  0
  7  8  1  0
  7 11  1  0
  8  9  1  0
  8 41  1  0
  8 42  1  0
  9 10  1  0
  9 43  1  0
  9 44  1  0
 10 45  1  0
 10 46  1  0
 11 12  1  0
 11 47  1  1
 12 13  1  0
 12 19  1  0
 12 48  1  1
 13 14  1  0
 13 49  1  0
 13 50  1  0
 14 15  1  0
 14 75  1  6
 15 16  1  0
 15 51  1  0
 15 52  1  0
 16 18  1  0
 16 17  1  0
 16 53  1  0
 17 18  1  0
 17 54  1  0
 17 55  1  0
 18 56  1  0
 18 57  1  0
 19 20  1  0
 19 21  1  0
 19 58  1  1
 20 59  1  0
 20 60  1  0
 20 61  1  0
 21 30  1  0
 21 22  1  0
 21 62  1  1
 22 23  2  0
 22 63  1  0
 23 24  1  0
 23 64  1  0
 24 29  1  6
 24 25  1  0
 24 30  1  0
 25 26  1  0
 25 65  1  0
 25 66  1  0
 26 27  1  0
 26 28  1  0
 26 76  1  1
 27 67  1  0
 27 68  1  0
 27 69  1  0
 28 29  1  0
 28 70  1  0
 28 71  1  0
 30 31  1  1
 31 32  1  0
 32 72  1  0
 32 73  1  0
 32 74  1  0
M  CHG  2  14   1  26   1
M  END
>  <i_m_ct_stereo_status>  (193) 
1

>  <s_m_source_file>  (193) 
/var/tmp/pbs.5076255.sched01/tmpc2azvghe/701e6xuegj.sdf

>  <i_m_source_file_index>  (193) 
15

>  <i_lp_mmshare_version>  (193) 
48012

>  <i_f3d_flags>  (193) 
0

>  <s_epik_input>  (193) 
W0NIMl0xW0NIMl1bQ0hdMVtDSDJdTihbQ0gyXTIpW0NASF0oW0NIMl0zKS9DKD1bQ0hdXFtDSDNdKVtDQEhdNFtDQEBIXTJbQ0BASF0oW0NIM10pW0NASF01W0NIXT1bQ0hdW0NAXTYoW0NIMl1OKFtDSDNdKVtDSDJdTzYpW0NAQF01KE9bQ0gzXSlbQ0BASF0zQzQ3W0NIMl1bQ0gyXVtDSDJdNw==

>  <s_epik_cmdline>  (193) 
J2VwaWtfcHl0aG9uJywgJy1waHQnLCAnMi4wJywgJy1waCcsICc3LjAnLCAnLXRuJywgJzgnLCAnLW1hJywgJzIwMCcsICctaW1hZScsICc8aW5maWxlLm1hZT4nLCAnLW9tYWUnLCAnPG91dGZpbGUubWFlPic=

>  <r_epik_Ionization_Penalty>  (193) 
1.03909

>  <r_epik_Ionization_Penalty_Charging>  (193) 
1.03909

>  <r_epik_Ionization_Penalty_Neutral>  (193) 
5.90697e-14

>  <r_epik_State_Penalty>  (193) 
1.07614

>  <r_epik_Charging_Adjusted_Penalty>  (193) 
2.11523

>  <i_epik_Tot_Q>  (193) 
2

>  <i_epik_Tot_abs_Q>  (193) 
2

>  <s_epik_Chemistry_Notes>  (193) 
This compound contains an acetal/aminal-like group ( X-CH(R)-Y where X, Y are N, S, or O) that may be acid/base labile, releasing an aldehyde.

>  <s_lp_Force_Field>  (193) 
OPLS3e

>  <r_lp_Energy>  (193) 
91.5515

>  <b_lp_Chiralities_Consistent>  (193) 
1

>  <s_lp_Variant>  (193) 
68:0-4

>  <s_i_glide_gridfile>  (193) 
pfpi4k_grid

>  <i_i_glide_lignum>  (193) 
15

>  <i_i_glide_rotatable_bonds>  (193) 
3

>  <r_i_docking_score>  (193) 
-2.5447

>  <r_i_glide_ligand_efficiency>  (193) 
-0.0795219

>  <r_i_glide_ligand_efficiency_sa>  (193) 
-0.252466

>  <r_i_glide_ligand_efficiency_ln>  (193) 
-0.569828

>  <r_i_glide_gscore>  (193) 
-2.5447

>  <r_i_glide_lipo>  (193) 
-0.144513

>  <r_i_glide_hbond>  (193) 
-0.0556751

>  <r_i_glide_metal>  (193) 
-0

>  <r_i_glide_rewards>  (193) 
-0.618926

>  <r_i_glide_evdw>  (193) 
-19.3803

>  <r_i_glide_ecoul>  (193) 
-6.19954

>  <r_i_glide_erotb>  (193) 
0.205668

>  <r_i_glide_esite>  (193) 
-0.0323097

>  <r_i_glide_emodel>  (193) 
-28.2668

>  <r_i_glide_energy>  (193) 
-25.5798

>  <r_i_glide_einternal>  (193) 
2.39991

>  <r_i_glide_intrahb_reward>  (193) 
-0

>  <i_i_glide_confnum>  (193) 
2

>  <i_i_glide_posenum>  (193) 
11

>  <r_i_glide_eff_state_penalty>  (193) 
0

>  <ligand_id>  (193) 
68

>  <original_smiles>  (193) 
CC=C1C2CC3C4(CCC4)C1C(CN2CC1CC1)C(C)C1C=CC2(CN(C)CO2)C13OC

>  <smiles>  (193) 
[H]C(=C1C2([H])C3([H])C([H])(C([H])([H])[H])C4([H])C([H])=C([H])C5(OC([H])([H])[N+]([H])(C([H])([H])[H])C5([H])[H])C4(OC([H])([H])[H])C([H])(C([H])([H])C1([H])[N+]([H])(C([H])([H])C1([H])C([H])([H])C1([H])[H])C3([H])[H])C21C([H])([H])C([H])([H])C1([H])[H])C([H])([H])[H]

$$$$
69:0:0
     RDKit          3D

 77 84  0  0  1  0  0  0  0  0999 V2000
   -0.6775   -1.7112    5.3933 C   0  0  0  0  0  0  0  0  0  0  0  0
   -0.0778   -0.3732    4.9329 C   0  0  2  0  0  0  0  0  0  0  0  0
    1.3271   -0.3967    5.4127 O   0  0  0  0  0  0  0  0  0  0  0  0
    2.4553    0.4471    4.9992 C   0  0  1  0  0  0  0  0  0  0  0  0
    2.9610    0.1672    3.7122 O   0  0  0  0  0  0  0  0  0  0  0  0
    4.1499   -0.5854    3.6336 C   0  0  1  0  0  0  0  0  0  0  0  0
    5.3020    0.2681    4.2049 C   0  0  0  0  0  0  0  0  0  0  0  0
    4.0960   -1.7275    4.4573 O   0  0  0  0  0  0  0  0  0  0  0  0
    3.9986   -2.9948    3.9440 C   0  0  0  0  0  0  0  0  0  0  0  0
    3.8887   -3.3267    2.6581 C   0  0  0  0  0  0  0  0  0  0  0  0
    3.8424   -2.2552    1.5562 C   0  0  1  0  0  0  0  0  0  0  0  0
    4.3789   -0.9216    2.1140 C   0  0  0  0  0  0  0  0  0  0  0  0
    4.9289   -0.0569    1.3973 O   0  0  0  0  0  0  0  0  0  0  0  0
    4.4520   -2.7957    0.2033 C   0  0  1  0  0  0  0  0  0  0  0  0
    4.6781   -1.7096   -0.8718 C   0  0  0  0  0  0  0  0  0  0  0  0
    5.5670   -3.8512    0.5056 C   0  0  0  0  0  0  0  0  0  0  0  0
    6.1977   -4.2151   -0.6890 O   0  0  0  0  0  0  0  0  0  0  0  0
    7.1312   -3.1903   -1.0030 C   0  0  0  0  0  0  0  0  0  0  0  0
    7.5113   -2.7010    0.4170 C   0  0  0  0  0  0  0  0  0  0  0  0
    6.5377   -3.2393    1.2930 O   0  0  0  0  0  0  0  0  0  0  0  0
    5.0399   -5.1477    1.2431 C   0  0  2  0  0  0  0  0  0  0  0  0
    6.2118   -5.8664    1.9715 C   0  0  0  0  0  0  0  0  0  0  0  0
    4.3640   -6.1478    0.2793 C   0  0  0  0  0  0  0  0  0  0  0  0
    3.0522   -5.6561    0.0906 O   0  0  0  0  0  0  0  0  0  0  0  0
    2.5853   -5.1208    1.3168 C   0  0  0  0  0  0  0  0  0  0  0  0
    3.8359   -4.7891    2.1714 C   0  0  2  0  0  0  0  0  0  0  0  0
    3.7634   -5.6800    3.2762 O   0  0  0  0  0  0  0  0  0  0  0  0
    2.3558    2.0387    5.3181 C   0  0  1  0  0  0  0  0  0  0  0  0
    1.9371    3.2267    4.4013 O   0  0  0  0  0  0  0  0  0  0  0  0
    0.4720    3.3816    3.8453 C   0  0  1  0  0  0  0  0  0  0  0  0
    0.7863    2.0392    3.7004 C   0  0  0  0  0  0  0  0  0  0  0  0
    0.9780    2.0205    5.3326 C   0  0  1  0  0  0  0  0  0  0  0  0
   -0.2245    1.8248    6.2519 C   0  0  2  0  0  0  0  0  0  0  0  0
   -1.0146    0.8492    5.4213 C   0  0  1  0  0  0  0  0  0  0  0  0
   -1.5799    1.8225    4.4464 O   0  0  0  0  0  0  0  0  0  0  0  0
   -1.0424    3.1652    4.6215 C   0  0  2  0  0  0  0  0  0  0  0  0
   -1.9488    4.1553    4.1474 O   0  0  0  0  0  0  0  0  0  0  0  0
   -1.0354    3.1590    6.1506 C   0  0  1  0  0  0  0  0  0  0  0  0
   -2.4312    3.1292    6.8251 C   0  0  0  0  0  0  0  0  0  0  0  0
   -1.7212   -1.8086    5.0926 H   0  0  0  0  0  0  0  0  0  0  0  0
   -0.6306   -1.8186    6.4760 H   0  0  0  0  0  0  0  0  0  0  0  0
   -0.1387   -2.5519    4.9565 H   0  0  0  0  0  0  0  0  0  0  0  0
   -0.0844   -0.4544    3.8495 H   0  0  0  0  0  0  0  0  0  0  0  0
    3.1673    0.0830    5.7381 H   0  0  0  0  0  0  0  0  0  0  0  0
    5.1717    0.4546    5.2683 H   0  0  0  0  0  0  0  0  0  0  0  0
    5.3409    1.2304    3.6921 H   0  0  0  0  0  0  0  0  0  0  0  0
    6.2543   -0.2503    4.0709 H   0  0  0  0  0  0  0  0  0  0  0  0
    4.0438   -3.7121    4.7582 H   0  0  0  0  0  0  0  0  0  0  0  0
    2.7988   -2.0611    1.3363 H   0  0  0  0  0  0  0  0  0  0  0  0
    3.6617   -3.3603   -0.2791 H   0  0  0  0  0  0  0  0  0  0  0  0
    5.6191   -1.1323   -0.6946 H   0  0  0  0  0  0  0  0  0  0  0  0
    3.8985   -1.0196   -0.9927 H   0  0  0  0  0  0  0  0  0  0  0  0
    4.8407   -2.2015   -1.8656 H   0  0  0  0  0  0  0  0  0  0  0  0
    7.9710   -3.5107   -1.6027 H   0  0  0  0  0  0  0  0  0  0  0  0
    6.6717   -2.4184   -1.5681 H   0  0  0  0  0  0  0  0  0  0  0  0
    8.5044   -3.0687    0.6985 H   0  0  0  0  0  0  0  0  0  0  0  0
    7.5057   -1.6008    0.4981 H   0  0  0  0  0  0  0  0  0  0  0  0
    5.9178   -6.8268    2.3941 H   0  0  0  0  0  0  0  0  0  0  0  0
    6.6093   -5.2684    2.7933 H   0  0  0  0  0  0  0  0  0  0  0  0
    7.0351   -6.0718    1.2862 H   0  0  0  0  0  0  0  0  0  0  0  0
    4.8841   -6.2813   -0.6685 H   0  0  0  0  0  0  0  0  0  0  0  0
    4.2815   -7.1428    0.7199 H   0  0  0  0  0  0  0  0  0  0  0  0
    1.9806   -4.2425    1.0952 H   0  0  0  0  0  0  0  0  0  0  0  0
    1.9191   -5.8461    1.7845 H   0  0  0  0  0  0  0  0  0  0  0  0
    4.6003   -5.6871    3.7179 H   0  0  0  0  0  0  0  0  0  0  0  0
    2.9208    2.3119    6.2163 H   0  0  0  0  0  0  0  0  0  0  0  0
    0.3967    3.8858    2.8916 H   0  0  0  0  0  0  0  0  0  0  0  0
    0.0545    1.4651    3.1435 H   0  0  0  0  0  0  0  0  0  0  0  0
    1.6071    1.8551    2.9829 H   0  0  0  0  0  0  0  0  0  0  0  0
    1.0952    2.8604    6.0746 H   0  0  0  0  0  0  0  0  0  0  0  0
    0.0127    1.4845    7.2645 H   0  0  0  0  0  0  0  0  0  0  0  0
   -1.8410    0.4676    6.0199 H   0  0  0  0  0  0  0  0  0  0  0  0
   -1.9462    4.1075    3.2124 H   0  0  0  0  0  0  0  0  0  0  0  0
   -0.5044    4.0428    6.5158 H   0  0  0  0  0  0  0  0  0  0  0  0
   -3.1022    2.3716    6.4229 H   0  0  0  0  0  0  0  0  0  0  0  0
   -2.9418    4.0845    6.7151 H   0  0  0  0  0  0  0  0  0  0  0  0
   -2.3427    2.9457    7.8947 H   0  0  0  0  0  0  0  0  0  0  0  0
  1  2  1  0
  1 40  1  0
  1 41  1  0
  1 42  1  0
  2 34  1  0
  2  3  1  0
  2 43  1  6
  3  4  1  0
  4  5  1  0
  4 28  1  0
  4 44  1  1
  6  5  1  6
  6 12  1  0
  6  7  1  0
  6  8  1  0
  7 45  1  0
  7 46  1  0
  7 47  1  0
  8  9  1  0
  9 10  2  0
  9 48  1  0
 10 26  1  0
 10 11  1  0
 11 12  1  0
 11 14  1  0
 11 49  1  6
 12 13  2  0
 14 15  1  0
 14 16  1  0
 14 50  1  6
 15 51  1  0
 15 52  1  0
 15 53  1  0
 16 20  1  0
 16 17  1  0
 16 21  1  0
 17 18  1  0
 18 19  1  0
 18 54  1  0
 18 55  1  0
 19 20  1  0
 19 56  1  0
 19 57  1  0
 21 26  1  0
 21 22  1  1
 21 23  1  0
 22 58  1  0
 22 59  1  0
 22 60  1  0
 23 24  1  0
 23 61  1  0
 23 62  1  0
 24 25  1  0
 25 26  1  0
 25 63  1  0
 25 64  1  0
 26 27  1  1
 27 65  1  0
 28 32  1  0
 28 29  1  0
 28 66  1  1
 29 30  1  0
 30 36  1  0
 30 31  1  0
 30 67  1  6
 31 32  1  0
 31 68  1  0
 31 69  1  0
 32 33  1  0
 32 70  1  1
 33 38  1  0
 33 34  1  0
 33 71  1  1
 34 35  1  0
 34 72  1  1
 35 36  1  0
 36 37  1  1
 36 38  1  0
 37 73  1  0
 38 39  1  0
 38 74  1  1
 39 75  1  0
 39 76  1  0
 39 77  1  0
M  END
>  <i_m_ct_stereo_status>  (194) 
1

>  <s_m_source_file>  (194) 
/var/tmp/pbs.5076255.sched01/tmpc2azvghe/701e6xuegj.sdf

>  <i_m_source_file_index>  (194) 
16

>  <i_lp_mmshare_version>  (194) 
48012

>  <i_f3d_flags>  (194) 
0

>  <s_epik_input>  (194) 
W09IXVtDQF0xMltDQEhdM09bQ0BIXTRbQ0BASF0oW0NIMl0zKVtDQEBIXShbQ0BASF0yW0NIM10pW0NAQEhdKE8xKVtDQEhdKFtDSDNdKU9bQ0BIXTRPW0NAQF0oW0NIM10pKE9bQ0hdPTUpQyg9TylbQ0BASF0oW0NASF02W0NIM10pQzVbQ0BAXShbT0hdKShbQ0gyXU9bQ0gyXTcpW0NAXTcoW0NIM10pQzY4T1tDSDJdW0NIMl1POA==

>  <s_epik_cmdline>  (194) 
J2VwaWtfcHl0aG9uJywgJy1waHQnLCAnMi4wJywgJy1waCcsICc3LjAnLCAnLXRuJywgJzgnLCAnLW1hJywgJzIwMCcsICctaW1hZScsICc8aW5maWxlLm1hZT4nLCAnLW9tYWUnLCAnPG91dGZpbGUubWFlPic=

>  <r_lp_tautomer_probability>  (194) 
1

>  <r_epik_Ionization_Penalty>  (194) 
0.000125651

>  <r_epik_Ionization_Penalty_Charging>  (194) 
0

>  <r_epik_Ionization_Penalty_Neutral>  (194) 
0.000125651

>  <r_epik_State_Penalty>  (194) 
-0

>  <r_epik_Charging_Adjusted_Penalty>  (194) 
0

>  <i_epik_Tot_Q>  (194) 
0

>  <i_epik_Tot_abs_Q>  (194) 
0

>  <s_epik_Chemistry_Notes>  (194) 
This compound contains an acetal/aminal-like group ( X-CH(R)-Y where X, Y are N, S, or O) that may be acid/base labile, releasing an aldehyde.

>  <s_lp_Force_Field>  (194) 
OPLS3e

>  <r_lp_Energy>  (194) 
316.45

>  <b_lp_Chiralities_Consistent>  (194) 
1

>  <s_lp_Variant>  (194) 
69:0-1

>  <s_i_glide_gridfile>  (194) 
pfpi4k_grid

>  <i_i_glide_lignum>  (194) 
16

>  <i_i_glide_rotatable_bonds>  (194) 
4

>  <r_i_docking_score>  (194) 
-2.63269

>  <r_i_glide_ligand_efficiency>  (194) 
-0.0675048

>  <r_i_glide_ligand_efficiency_sa>  (194) 
-0.228923

>  <r_i_glide_ligand_efficiency_ln>  (194) 
-0.564523

>  <r_i_glide_gscore>  (194) 
-2.63269

>  <r_i_glide_lipo>  (194) 
-0.699829

>  <r_i_glide_hbond>  (194) 
-0.126805

>  <r_i_glide_metal>  (194) 
-0

>  <r_i_glide_rewards>  (194) 
-0.186298

>  <r_i_glide_evdw>  (194) 
-33.468

>  <r_i_glide_ecoul>  (194) 
0.023677

>  <r_i_glide_erotb>  (194) 
0.0675814

>  <r_i_glide_esite>  (194) 
-0.0259338

>  <r_i_glide_emodel>  (194) 
-34.9199

>  <r_i_glide_energy>  (194) 
-33.4443

>  <r_i_glide_einternal>  (194) 
2.14508

>  <r_i_glide_intrahb_reward>  (194) 
-0

>  <i_i_glide_confnum>  (194) 
1

>  <i_i_glide_posenum>  (194) 
3

>  <r_i_glide_eff_state_penalty>  (194) 
0

>  <ligand_id>  (194) 
69

>  <original_smiles>  (194) 
CC1OC(OC2(C)OC=C3C(C2=O)C(C)C2(OCCO2)C2(C)COCC32O)C2OC3CC2C2C1OC3(O)C2C

>  <smiles>  (194) 
[H]OC12OC3([H])C([H])(C([H])([H])[H])OC([H])(OC4(C([H])([H])[H])OC([H])=C5C([H])(C4=O)C([H])(C([H])([H])[H])C4(OC([H])([H])C([H])([H])O4)C4(C([H])([H])[H])C([H])([H])OC([H])([H])C54O[H])C4([H])OC1([H])C([H])([H])C4([H])C3([H])C2([H])C([H])([H])[H]

$$$$
69:0:1
     RDKit          3D

 77 84  0  0  1  0  0  0  0  0999 V2000
    5.6696    0.1163    4.2356 C   0  0  0  0  0  0  0  0  0  0  0  0
    4.8291   -0.6301    3.1903 C   0  0  2  0  0  0  0  0  0  0  0  0
    4.1375   -1.7075    3.9397 O   0  0  0  0  0  0  0  0  0  0  0  0
    2.9623   -2.4991    3.5503 C   0  0  1  0  0  0  0  0  0  0  0  0
    1.7455   -1.7965    3.4986 O   0  0  0  0  0  0  0  0  0  0  0  0
    1.3267   -1.1256    4.6717 C   0  0  1  0  0  0  0  0  0  0  0  0
    0.7464   -2.1647    5.6512 C   0  0  0  0  0  0  0  0  0  0  0  0
    2.3790   -0.5283    5.3561 O   0  0  0  0  0  0  0  0  0  0  0  0
    2.6037    0.8136    5.3876 C   0  0  0  0  0  0  0  0  0  0  0  0
    1.8599    1.7491    4.7079 C   0  0  0  0  0  0  0  0  0  0  0  0
    0.6715    1.3595    3.8618 C   0  0  1  0  0  0  0  0  0  0  0  0
    0.2035   -0.1085    4.2126 C   0  0  0  0  0  0  0  0  0  0  0  0
   -0.9409   -0.4897    4.1056 O   0  0  0  0  0  0  0  0  0  0  0  0
   -0.4041    2.4782    3.8608 C   0  0  1  0  0  0  0  0  0  0  0  0
   -1.7808    2.0913    3.2630 C   0  0  0  0  0  0  0  0  0  0  0  0
   -0.4011    3.2575    5.2368 C   0  0  0  0  0  0  0  0  0  0  0  0
   -1.4452    4.1581    5.2844 O   0  0  0  0  0  0  0  0  0  0  0  0
   -2.5844    3.4090    5.6571 C   0  0  0  0  0  0  0  0  0  0  0  0
   -1.9946    2.2879    6.5006 C   0  0  0  0  0  0  0  0  0  0  0  0
   -0.5962    2.3299    6.2501 O   0  0  0  0  0  0  0  0  0  0  0  0
    0.9858    4.0222    5.4980 C   0  0  2  0  0  0  0  0  0  0  0  0
    1.1469    4.2816    7.0246 C   0  0  0  0  0  0  0  0  0  0  0  0
    1.0569    5.3673    4.7487 C   0  0  0  0  0  0  0  0  0  0  0  0
    1.4457    5.0432    3.4308 O   0  0  0  0  0  0  0  0  0  0  0  0
    2.3712    3.9649    3.4697 C   0  0  0  0  0  0  0  0  0  0  0  0
    2.1646    3.2511    4.8388 C   0  0  2  0  0  0  0  0  0  0  0  0
    3.3740    3.4792    5.5578 O   0  0  0  0  0  0  0  0  0  0  0  0
    3.1548   -3.5010    2.2755 C   0  0  1  0  0  0  0  0  0  0  0  0
    2.7649   -3.3083    0.7728 O   0  0  0  0  0  0  0  0  0  0  0  0
    3.4545   -2.2403   -0.1337 C   0  0  1  0  0  0  0  0  0  0  0  0
    3.2053   -1.5949    1.0602 C   0  0  0  0  0  0  0  0  0  0  0  0
    4.1681   -2.7496    1.7399 C   0  0  1  0  0  0  0  0  0  0  0  0
    5.6860   -2.5660    1.7467 C   0  0  2  0  0  0  0  0  0  0  0  0
    5.7677   -1.0795    1.9579 C   0  0  1  0  0  0  0  0  0  0  0  0
    5.4562   -0.6586    0.5669 O   0  0  0  0  0  0  0  0  0  0  0  0
    5.1111   -1.7766   -0.3058 C   0  0  2  0  0  0  0  0  0  0  0  0
    5.4019   -1.5173   -1.6459 O   0  0  0  0  0  0  0  0  0  0  0  0
    6.1311   -2.7722    0.2741 C   0  0  1  0  0  0  0  0  0  0  0  0
    7.6176   -2.4160   -0.0290 C   0  0  0  0  0  0  0  0  0  0  0  0
    6.2476    0.9442    3.7862 H   0  0  0  0  0  0  0  0  0  0  0  0
    6.3516   -0.5441    4.7516 H   0  0  0  0  0  0  0  0  0  0  0  0
    5.0672    0.5615    5.0100 H   0  0  0  0  0  0  0  0  0  0  0  0
    4.0979    0.1106    2.8749 H   0  0  0  0  0  0  0  0  0  0  0  0
    2.9123   -3.1839    4.3979 H   0  0  0  0  0  0  0  0  0  0  0  0
    1.5319   -2.8360    5.9966 H   0  0  0  0  0  0  0  0  0  0  0  0
   -0.0450   -2.7499    5.1860 H   0  0  0  0  0  0  0  0  0  0  0  0
    0.3486   -1.6489    6.5286 H   0  0  0  0  0  0  0  0  0  0  0  0
    3.4149    1.0572    6.0175 H   0  0  0  0  0  0  0  0  0  0  0  0
    1.0089    1.2899    2.8294 H   0  0  0  0  0  0  0  0  0  0  0  0
   -0.1018    3.2177    3.1325 H   0  0  0  0  0  0  0  0  0  0  0  0
   -2.3756    1.4678    3.9422 H   0  0  0  0  0  0  0  0  0  0  0  0
   -1.7106    1.5281    2.3401 H   0  0  0  0  0  0  0  0  0  0  0  0
   -2.3614    2.9859    3.0107 H   0  0  0  0  0  0  0  0  0  0  0  0
   -3.3571    3.9893    6.1481 H   0  0  0  0  0  0  0  0  0  0  0  0
   -3.1130    3.0438    4.7992 H   0  0  0  0  0  0  0  0  0  0  0  0
   -2.1863    2.4759    7.5553 H   0  0  0  0  0  0  0  0  0  0  0  0
   -2.3863    1.3022    6.2366 H   0  0  0  0  0  0  0  0  0  0  0  0
    2.0177    4.9061    7.2399 H   0  0  0  0  0  0  0  0  0  0  0  0
    1.2822    3.3578    7.5854 H   0  0  0  0  0  0  0  0  0  0  0  0
    0.2864    4.8014    7.4380 H   0  0  0  0  0  0  0  0  0  0  0  0
    0.1407    5.9506    4.7681 H   0  0  0  0  0  0  0  0  0  0  0  0
    1.8348    6.0133    5.1665 H   0  0  0  0  0  0  0  0  0  0  0  0
    2.1832    3.3097    2.6180 H   0  0  0  0  0  0  0  0  0  0  0  0
    3.3785    4.3622    3.3412 H   0  0  0  0  0  0  0  0  0  0  0  0
    4.0987    3.1661    5.0371 H   0  0  0  0  0  0  0  0  0  0  0  0
    3.3272   -4.5324    2.5919 H   0  0  0  0  0  0  0  0  0  0  0  0
    2.8366   -1.8534   -0.9475 H   0  0  0  0  0  0  0  0  0  0  0  0
    3.4001   -0.5318    1.0589 H   0  0  0  0  0  0  0  0  0  0  0  0
    2.1271   -1.4803    1.2893 H   0  0  0  0  0  0  0  0  0  0  0  0
    4.5366   -3.7376    1.3435 H   0  0  0  0  0  0  0  0  0  0  0  0
    6.2212   -3.1649    2.4923 H   0  0  0  0  0  0  0  0  0  0  0  0
    6.8034   -0.8065    2.1660 H   0  0  0  0  0  0  0  0  0  0  0  0
    4.7064   -0.9641   -1.9853 H   0  0  0  0  0  0  0  0  0  0  0  0
    5.9379   -3.7633   -0.1341 H   0  0  0  0  0  0  0  0  0  0  0  0
    7.8815   -1.3846    0.2026 H   0  0  0  0  0  0  0  0  0  0  0  0
    7.8589   -2.5818   -1.0787 H   0  0  0  0  0  0  0  0  0  0  0  0
    8.2860   -3.0560    0.5499 H   0  0  0  0  0  0  0  0  0  0  0  0
  1  2  1  0
  1 40  1  0
  1 41  1  0
  1 42  1  0
  2 34  1  0
  2  3  1  0
  2 43  1  6
  3  4  1  0
  4  5  1  0
  4 28  1  0
  4 44  1  1
  6  5  1  6
  6 12  1  0
  6  7  1  0
  6  8  1  0
  7 45  1  0
  7 46  1  0
  7 47  1  0
  8  9  1  0
  9 10  2  0
  9 48  1  0
 10 26  1  0
 10 11  1  0
 11 12  1  0
 11 14  1  0
 11 49  1  6
 12 13  2  0
 14 15  1  0
 14 16  1  0
 14 50  1  6
 15 51  1  0
 15 52  1  0
 15 53  1  0
 16 20  1  0
 16 17  1  0
 16 21  1  0
 17 18  1  0
 18 19  1  0
 18 54  1  0
 18 55  1  0
 19 20  1  0
 19 56  1  0
 19 57  1  0
 21 26  1  0
 21 22  1  1
 21 23  1  0
 22 58  1  0
 22 59  1  0
 22 60  1  0
 23 24  1  0
 23 61  1  0
 23 62  1  0
 24 25  1  0
 25 26  1  0
 25 63  1  0
 25 64  1  0
 26 27  1  1
 27 65  1  0
 28 32  1  0
 28 29  1  0
 28 66  1  1
 29 30  1  0
 30 36  1  0
 30 31  1  0
 30 67  1  6
 31 32  1  0
 31 68  1  0
 31 69  1  0
 32 33  1  0
 32 70  1  6
 33 38  1  0
 33 34  1  0
 33 71  1  1
 34 35  1  0
 34 72  1  1
 35 36  1  0
 36 37  1  6
 36 38  1  0
 37 73  1  0
 38 39  1  0
 38 74  1  6
 39 75  1  0
 39 76  1  0
 39 77  1  0
M  END
>  <i_m_ct_stereo_status>  (195) 
1

>  <s_m_source_file>  (195) 
/var/tmp/pbs.5076255.sched01/tmpc2azvghe/701e6xuegj.sdf

>  <i_m_source_file_index>  (195) 
16

>  <i_lp_mmshare_version>  (195) 
48012

>  <i_f3d_flags>  (195) 
0

>  <s_epik_input>  (195) 
W09IXVtDQF0xMltDQEhdM09bQ0BIXTRbQ0BASF0oW0NIMl0zKVtDQEBIXShbQ0BASF0yW0NIM10pW0NAQEhdKE8xKVtDQEhdKFtDSDNdKU9bQ0BIXTRPW0NAQF0oW0NIM10pKE9bQ0hdPTUpQyg9TylbQ0BASF0oW0NASF02W0NIM10pQzVbQ0BAXShbT0hdKShbQ0gyXU9bQ0gyXTcpW0NAXTcoW0NIM10pQzY4T1tDSDJdW0NIMl1POA==

>  <s_epik_cmdline>  (195) 
J2VwaWtfcHl0aG9uJywgJy1waHQnLCAnMi4wJywgJy1waCcsICc3LjAnLCAnLXRuJywgJzgnLCAnLW1hJywgJzIwMCcsICctaW1hZScsICc8aW5maWxlLm1hZT4nLCAnLW9tYWUnLCAnPG91dGZpbGUubWFlPic=

>  <r_lp_tautomer_probability>  (195) 
1

>  <r_epik_Ionization_Penalty>  (195) 
0.000125651

>  <r_epik_Ionization_Penalty_Charging>  (195) 
0

>  <r_epik_Ionization_Penalty_Neutral>  (195) 
0.000125651

>  <r_epik_State_Penalty>  (195) 
-0

>  <r_epik_Charging_Adjusted_Penalty>  (195) 
0

>  <i_epik_Tot_Q>  (195) 
0

>  <i_epik_Tot_abs_Q>  (195) 
0

>  <s_epik_Chemistry_Notes>  (195) 
This compound contains an acetal/aminal-like group ( X-CH(R)-Y where X, Y are N, S, or O) that may be acid/base labile, releasing an aldehyde.

>  <s_lp_Force_Field>  (195) 
OPLS3e

>  <r_lp_Energy>  (195) 
316.45

>  <b_lp_Chiralities_Consistent>  (195) 
1

>  <s_lp_Variant>  (195) 
69:0-1

>  <s_i_glide_gridfile>  (195) 
pfpi4k_grid

>  <i_i_glide_lignum>  (195) 
16

>  <i_i_glide_rotatable_bonds>  (195) 
4

>  <r_i_docking_score>  (195) 
-2.26277

>  <r_i_glide_ligand_efficiency>  (195) 
-0.0580199

>  <r_i_glide_ligand_efficiency_sa>  (195) 
-0.196758

>  <r_i_glide_ligand_efficiency_ln>  (195) 
-0.485203

>  <r_i_glide_gscore>  (195) 
-2.26277

>  <r_i_glide_lipo>  (195) 
-0.509621

>  <r_i_glide_hbond>  (195) 
0

>  <r_i_glide_metal>  (195) 
-0

>  <r_i_glide_rewards>  (195) 
-0.000103334

>  <r_i_glide_evdw>  (195) 
-35.3287

>  <r_i_glide_ecoul>  (195) 
-0.134038

>  <r_i_glide_erotb>  (195) 
0.0675814

>  <r_i_glide_esite>  (195) 
-0.0340891

>  <r_i_glide_emodel>  (195) 
-35.8388

>  <r_i_glide_energy>  (195) 
-35.4628

>  <r_i_glide_einternal>  (195) 
3.14248

>  <r_i_glide_intrahb_reward>  (195) 
-0

>  <i_i_glide_confnum>  (195) 
4

>  <i_i_glide_posenum>  (195) 
38

>  <r_i_glide_eff_state_penalty>  (195) 
0

>  <ligand_id>  (195) 
69

>  <original_smiles>  (195) 
CC1OC(OC2(C)OC=C3C(C2=O)C(C)C2(OCCO2)C2(C)COCC32O)C2OC3CC2C2C1OC3(O)C2C

>  <smiles>  (195) 
[H]OC12OC3([H])C([H])(C([H])([H])[H])OC([H])(OC4(C([H])([H])[H])OC([H])=C5C([H])(C4=O)C([H])(C([H])([H])[H])C4(OC([H])([H])C([H])([H])O4)C4(C([H])([H])[H])C([H])([H])OC([H])([H])C54O[H])C4([H])OC1([H])C([H])([H])C4([H])C3([H])C2([H])C([H])([H])[H]

$$$$
69:0:2
     RDKit          3D

 77 84  0  0  1  0  0  0  0  0999 V2000
    5.7171    0.1261    4.5534 C   0  0  0  0  0  0  0  0  0  0  0  0
    4.8605   -0.5132    3.4535 C   0  0  2  0  0  0  0  0  0  0  0  0
    4.1192   -1.6240    4.1105 O   0  0  0  0  0  0  0  0  0  0  0  0
    2.8922   -2.2886    3.6370 C   0  0  1  0  0  0  0  0  0  0  0  0
    1.7108   -1.5002    3.6505 O   0  0  0  0  0  0  0  0  0  0  0  0
    1.2613   -1.0625    4.9238 C   0  0  1  0  0  0  0  0  0  0  0  0
    0.6830   -2.2631    5.7375 C   0  0  0  0  0  0  0  0  0  0  0  0
    2.3122   -0.5374    5.6925 O   0  0  0  0  0  0  0  0  0  0  0  0
    2.4972    0.7963    5.9240 C   0  0  0  0  0  0  0  0  0  0  0  0
    1.7302    1.7794    5.3941 C   0  0  0  0  0  0  0  0  0  0  0  0
    0.5583    1.4822    4.4722 C   0  0  1  0  0  0  0  0  0  0  0  0
    0.1511   -0.0099    4.6241 C   0  0  0  0  0  0  0  0  0  0  0  0
   -0.9906   -0.3886    4.4514 O   0  0  0  0  0  0  0  0  0  0  0  0
   -0.5713    2.5794    4.6556 C   0  0  1  0  0  0  0  0  0  0  0  0
   -1.9837    2.2788    4.0934 C   0  0  0  0  0  0  0  0  0  0  0  0
   -0.5909    3.1096    6.1400 C   0  0  0  0  0  0  0  0  0  0  0  0
   -1.6767    3.9730    6.3066 O   0  0  0  0  0  0  0  0  0  0  0  0
   -2.3625    3.5504    7.4770 C   0  0  0  0  0  0  0  0  0  0  0  0
   -2.0872    2.0620    7.4930 C   0  0  0  0  0  0  0  0  0  0  0  0
   -0.7730    2.0082    6.9866 O   0  0  0  0  0  0  0  0  0  0  0  0
    0.7525    3.8734    6.5253 C   0  0  2  0  0  0  0  0  0  0  0  0
    0.9335    3.9101    8.0730 C   0  0  0  0  0  0  0  0  0  0  0  0
    0.7804    5.3128    5.9733 C   0  0  0  0  0  0  0  0  0  0  0  0
    1.2023    5.2049    4.6270 O   0  0  0  0  0  0  0  0  0  0  0  0
    2.1759    4.1716    4.5431 C   0  0  0  0  0  0  0  0  0  0  0  0
    1.9613    3.2501    5.7710 C   0  0  2  0  0  0  0  0  0  0  0  0
    3.1456    3.3939    6.5502 O   0  0  0  0  0  0  0  0  0  0  0  0
    3.0828   -3.2194    2.3051 C   0  0  1  0  0  0  0  0  0  0  0  0
    2.7015   -2.9152    0.8214 O   0  0  0  0  0  0  0  0  0  0  0  0
    3.4407   -1.7968    0.0245 C   0  0  1  0  0  0  0  0  0  0  0  0
    3.2236   -1.2033    1.2565 C   0  0  0  0  0  0  0  0  0  0  0  0
    4.1149   -2.4271    1.8839 C   0  0  0  0  0  0  0  0  0  0  0  0
    5.6360   -2.3690    1.8763 C   0  0  2  0  0  0  0  0  0  0  0  0
    5.7822   -0.9072    2.1827 C   0  0  1  0  0  0  0  0  0  0  0  0
    5.4982   -0.3845    0.8187 O   0  0  0  0  0  0  0  0  0  0  0  0
    5.0980   -1.4305   -0.1182 C   0  0  2  0  0  0  0  0  0  0  0  0
    5.3811   -1.0838   -1.4508 O   0  0  0  0  0  0  0  0  0  0  0  0
    6.0654   -2.5105    0.3876 C   0  0  1  0  0  0  0  0  0  0  0  0
    7.5551   -2.1931    0.1075 C   0  0  0  0  0  0  0  0  0  0  0  0
    6.3381    0.9350    4.1671 H   0  0  0  0  0  0  0  0  0  0  0  0
    6.3493   -0.6110    5.0361 H   0  0  0  0  0  0  0  0  0  0  0  0
    5.1049    0.5331    5.3515 H   0  0  0  0  0  0  0  0  0  0  0  0
    4.1499    0.2750    3.2054 H   0  0  0  0  0  0  0  0  0  0  0  0
    2.7859   -3.0024    4.4361 H   0  0  0  0  0  0  0  0  0  0  0  0
    1.4535   -2.9677    6.0512 H   0  0  0  0  0  0  0  0  0  0  0  0
   -0.0782   -2.7947    5.1681 H   0  0  0  0  0  0  0  0  0  0  0  0
    0.2434   -1.8953    6.6602 H   0  0  0  0  0  0  0  0  0  0  0  0
    3.2986    0.9566    6.6238 H   0  0  0  0  0  0  0  0  0  0  0  0
    0.9199    1.5793    3.4471 H   0  0  0  0  0  0  0  0  0  0  0  0
   -0.2776    3.4254    4.0225 H   0  0  0  0  0  0  0  0  0  0  0  0
   -2.5505    1.5434    4.6551 H   0  0  0  0  0  0  0  0  0  0  0  0
   -1.9000    1.8868    3.0842 H   0  0  0  0  0  0  0  0  0  0  0  0
   -2.5926    3.1816    4.0320 H   0  0  0  0  0  0  0  0  0  0  0  0
   -1.9966    4.0357    8.3853 H   0  0  0  0  0  0  0  0  0  0  0  0
   -3.4150    3.7849    7.4271 H   0  0  0  0  0  0  0  0  0  0  0  0
   -2.1888    1.6037    8.4753 H   0  0  0  0  0  0  0  0  0  0  0  0
   -2.7562    1.5596    6.8079 H   0  0  0  0  0  0  0  0  0  0  0  0
    1.8002    4.5006    8.3864 H   0  0  0  0  0  0  0  0  0  0  0  0
    1.0568    2.9084    8.4881 H   0  0  0  0  0  0  0  0  0  0  0  0
    0.1034    4.3933    8.5804 H   0  0  0  0  0  0  0  0  0  0  0  0
   -0.1554    5.8646    6.0684 H   0  0  0  0  0  0  0  0  0  0  0  0
    1.5419    5.8977    6.4982 H   0  0  0  0  0  0  0  0  0  0  0  0
    2.0322    3.6524    3.5977 H   0  0  0  0  0  0  0  0  0  0  0  0
    3.1739    4.6113    4.5107 H   0  0  0  0  0  0  0  0  0  0  0  0
    3.8817    3.1615    6.0040 H   0  0  0  0  0  0  0  0  0  0  0  0
    3.2643   -4.2800    2.5437 H   0  0  0  0  0  0  0  0  0  0  0  0
    2.8657   -1.3255   -0.7630 H   0  0  0  0  0  0  0  0  0  0  0  0
    3.4552   -0.1415    1.3191 H   0  0  0  0  0  0  0  0  0  0  0  0
    2.1535   -1.0997    1.4761 H   0  0  0  0  0  0  0  0  0  0  0  0
    4.4275   -3.3818    1.4002 H   0  0  0  0  0  0  0  0  0  0  0  0
    6.1306   -3.0485    2.5761 H   0  0  0  0  0  0  0  0  0  0  0  0
    6.8177   -0.6756    2.4138 H   0  0  0  0  0  0  0  0  0  0  0  0
    4.7632   -0.4016   -1.6923 H   0  0  0  0  0  0  0  0  0  0  0  0
    5.8147   -3.4644   -0.0855 H   0  0  0  0  0  0  0  0  0  0  0  0
    7.8510   -1.1920    0.4228 H   0  0  0  0  0  0  0  0  0  0  0  0
    7.7785   -2.2831   -0.9534 H   0  0  0  0  0  0  0  0  0  0  0  0
    8.1958   -2.8961    0.6339 H   0  0  0  0  0  0  0  0  0  0  0  0
  1  2  1  0
  1 40  1  0
  1 41  1  0
  1 42  1  0
  2 34  1  0
  2  3  1  0
  2 43  1  6
  3  4  1  0
  4  5  1  0
  4 28  1  0
  4 44  1  1
  6  5  1  6
  6 12  1  0
  6  7  1  0
  6  8  1  0
  7 45  1  0
  7 46  1  0
  7 47  1  0
  8  9  1  0
  9 10  2  0
  9 48  1  0
 10 26  1  0
 10 11  1  0
 11 12  1  0
 11 14  1  0
 11 49  1  6
 12 13  2  0
 14 15  1  0
 14 16  1  0
 14 50  1  6
 15 51  1  0
 15 52  1  0
 15 53  1  0
 16 20  1  0
 16 17  1  0
 16 21  1  0
 17 18  1  0
 18 19  1  0
 18 54  1  0
 18 55  1  0
 19 20  1  0
 19 56  1  0
 19 57  1  0
 21 26  1  0
 21 22  1  1
 21 23  1  0
 22 58  1  0
 22 59  1  0
 22 60  1  0
 23 24  1  0
 23 61  1  0
 23 62  1  0
 24 25  1  0
 25 26  1  0
 25 63  1  0
 25 64  1  0
 26 27  1  1
 27 65  1  0
 28 32  1  0
 28 29  1  0
 28 66  1  1
 29 30  1  0
 30 36  1  0
 30 31  1  0
 30 67  1  6
 31 32  1  0
 31 68  1  0
 31 69  1  0
 32 33  1  0
 32 70  1  0
 33 38  1  0
 33 34  1  0
 33 71  1  1
 34 35  1  0
 34 72  1  1
 35 36  1  0
 36 37  1  6
 36 38  1  0
 37 73  1  0
 38 39  1  0
 38 74  1  6
 39 75  1  0
 39 76  1  0
 39 77  1  0
M  END
>  <i_m_ct_stereo_status>  (196) 
1

>  <s_m_source_file>  (196) 
/var/tmp/pbs.5076255.sched01/tmpc2azvghe/701e6xuegj.sdf

>  <i_m_source_file_index>  (196) 
16

>  <i_lp_mmshare_version>  (196) 
48012

>  <i_f3d_flags>  (196) 
0

>  <s_epik_input>  (196) 
W09IXVtDQF0xMltDQEhdM09bQ0BIXTRbQ0BASF0oW0NIMl0zKVtDQEBIXShbQ0BASF0yW0NIM10pW0NAQEhdKE8xKVtDQEhdKFtDSDNdKU9bQ0BIXTRPW0NAQF0oW0NIM10pKE9bQ0hdPTUpQyg9TylbQ0BASF0oW0NASF02W0NIM10pQzVbQ0BAXShbT0hdKShbQ0gyXU9bQ0gyXTcpW0NAXTcoW0NIM10pQzY4T1tDSDJdW0NIMl1POA==

>  <s_epik_cmdline>  (196) 
J2VwaWtfcHl0aG9uJywgJy1waHQnLCAnMi4wJywgJy1waCcsICc3LjAnLCAnLXRuJywgJzgnLCAnLW1hJywgJzIwMCcsICctaW1hZScsICc8aW5maWxlLm1hZT4nLCAnLW9tYWUnLCAnPG91dGZpbGUubWFlPic=

>  <r_lp_tautomer_probability>  (196) 
1

>  <r_epik_Ionization_Penalty>  (196) 
0.000125651

>  <r_epik_Ionization_Penalty_Charging>  (196) 
0

>  <r_epik_Ionization_Penalty_Neutral>  (196) 
0.000125651

>  <r_epik_State_Penalty>  (196) 
-0

>  <r_epik_Charging_Adjusted_Penalty>  (196) 
0

>  <i_epik_Tot_Q>  (196) 
0

>  <i_epik_Tot_abs_Q>  (196) 
0

>  <s_epik_Chemistry_Notes>  (196) 
This compound contains an acetal/aminal-like group ( X-CH(R)-Y where X, Y are N, S, or O) that may be acid/base labile, releasing an aldehyde.

>  <s_lp_Force_Field>  (196) 
OPLS3e

>  <r_lp_Energy>  (196) 
316.45

>  <b_lp_Chiralities_Consistent>  (196) 
1

>  <s_lp_Variant>  (196) 
69:0-1

>  <s_i_glide_gridfile>  (196) 
pfpi4k_grid

>  <i_i_glide_lignum>  (196) 
16

>  <i_i_glide_rotatable_bonds>  (196) 
4

>  <r_i_docking_score>  (196) 
-2.18106

>  <r_i_glide_ligand_efficiency>  (196) 
-0.0559247

>  <r_i_glide_ligand_efficiency_sa>  (196) 
-0.189653

>  <r_i_glide_ligand_efficiency_ln>  (196) 
-0.467682

>  <r_i_glide_gscore>  (196) 
-2.18106

>  <r_i_glide_lipo>  (196) 
-0.532648

>  <r_i_glide_hbond>  (196) 
0

>  <r_i_glide_metal>  (196) 
-0

>  <r_i_glide_rewards>  (196) 
0

>  <r_i_glide_evdw>  (196) 
-31.8593

>  <r_i_glide_ecoul>  (196) 
-0.698596

>  <r_i_glide_erotb>  (196) 
0.0675814

>  <r_i_glide_esite>  (196) 
-0.0182433

>  <r_i_glide_emodel>  (196) 
-36.3839

>  <r_i_glide_energy>  (196) 
-32.5579

>  <r_i_glide_einternal>  (196) 
1.91539

>  <r_i_glide_intrahb_reward>  (196) 
-0

>  <i_i_glide_confnum>  (196) 
2

>  <i_i_glide_posenum>  (196) 
21

>  <r_i_glide_eff_state_penalty>  (196) 
0

>  <ligand_id>  (196) 
69

>  <original_smiles>  (196) 
CC1OC(OC2(C)OC=C3C(C2=O)C(C)C2(OCCO2)C2(C)COCC32O)C2OC3CC2C2C1OC3(O)C2C

>  <smiles>  (196) 
[H]OC12OC3([H])C([H])(C([H])([H])[H])OC([H])(OC4(C([H])([H])[H])OC([H])=C5C([H])(C4=O)C([H])(C([H])([H])[H])C4(OC([H])([H])C([H])([H])O4)C4(C([H])([H])[H])C([H])([H])OC([H])([H])C54O[H])C4([H])OC1([H])C([H])([H])C4([H])C3([H])C2([H])C([H])([H])[H]

$$$$
70:0:0
     RDKit          3D

 55 60  0  0  1  0  0  0  0  0999 V2000
    2.3243   -6.9583    4.1676 C   0  0  0  0  0  0  0  0  0  0  0  0
    2.2322   -5.5407    4.0588 O   0  0  0  0  0  0  0  0  0  0  0  0
    3.2782   -4.8133    3.3974 C   0  0  2  0  0  0  0  0  0  0  0  0
    3.5434   -5.3479    1.9326 C   0  0  0  0  0  0  0  0  0  0  0  0
    4.8640   -4.9464    1.1114 C   0  0  2  0  0  0  0  0  0  0  0  0
    5.5007   -6.3223    0.7267 C   0  0  0  0  0  0  0  0  0  0  0  0
    5.8874   -4.1276    1.9059 C   0  0  1  0  0  0  0  0  0  0  0  0
    6.9482   -3.7037    0.8670 C   0  0  0  0  0  0  0  0  0  0  0  0
    6.0104   -2.9214   -0.0115 C   0  0  2  0  0  0  0  0  0  0  0  0
    5.9113   -1.6558    0.7083 O   0  0  0  0  0  0  0  0  0  0  0  0
    5.7655   -1.6141    2.0872 C   0  0  0  0  0  0  0  0  0  0  0  0
    6.0130   -0.6509    2.8152 O   0  0  0  0  0  0  0  0  0  0  0  0
    5.1248   -2.9117    2.5996 C   0  0  2  0  0  0  0  0  0  0  0  0
    4.9795   -3.2868    4.1431 C   0  0  2  0  0  0  0  0  0  0  0  0
    4.5804   -4.7989    4.2557 C   0  0  1  0  0  0  0  0  0  0  0  0
    4.4196   -5.1782    5.6169 O   0  0  0  0  0  0  0  0  0  0  0  0
    3.6305   -2.7271    4.6215 C   0  0  1  0  0  0  0  0  0  0  0  0
    3.6258   -1.3265    4.8522 O   0  0  0  0  0  0  0  0  0  0  0  0
    2.8583   -3.2966    3.4122 C   0  0  2  0  0  0  0  0  0  0  0  0
    1.3464   -3.0199    3.4945 C   0  0  0  0  0  0  0  0  0  0  0  0
    3.6028   -2.5895    2.2756 C   0  0  2  0  0  0  0  0  0  0  0  0
    2.9580   -2.3918    0.8493 C   0  0  1  0  0  0  0  0  0  0  0  0
    3.0204   -1.0223    0.4787 O   0  0  0  0  0  0  0  0  0  0  0  0
    3.4003   -3.2747   -0.3375 C   0  0  1  0  0  0  0  0  0  0  0  0
    3.2388   -2.5912   -1.7281 C   0  0  0  0  0  0  0  0  0  0  0  0
    4.7779   -3.9301   -0.1210 C   0  0  2  0  0  0  0  0  0  0  0  0
    5.0142   -4.6534   -1.3193 O   0  0  0  0  0  0  0  0  0  0  0  0
    1.6257   -7.2979    4.9318 H   0  0  0  0  0  0  0  0  0  0  0  0
    3.3185   -7.2969    4.4597 H   0  0  0  0  0  0  0  0  0  0  0  0
    2.0450   -7.4546    3.2386 H   0  0  0  0  0  0  0  0  0  0  0  0
    3.5750   -6.4290    2.0305 H   0  0  0  0  0  0  0  0  0  0  0  0
    2.6409   -5.2060    1.3474 H   0  0  0  0  0  0  0  0  0  0  0  0
    6.3779   -6.2497    0.0912 H   0  0  0  0  0  0  0  0  0  0  0  0
    4.7940   -6.9474    0.1792 H   0  0  0  0  0  0  0  0  0  0  0  0
    5.8069   -6.8812    1.6120 H   0  0  0  0  0  0  0  0  0  0  0  0
    6.4902   -4.7105    2.5983 H   0  0  0  0  0  0  0  0  0  0  0  0
    7.7749   -3.1216    1.2772 H   0  0  0  0  0  0  0  0  0  0  0  0
    7.4192   -4.5289    0.3374 H   0  0  0  0  0  0  0  0  0  0  0  0
    6.4554   -2.7395   -0.9928 H   0  0  0  0  0  0  0  0  0  0  0  0
    5.8192   -3.0040    4.7744 H   0  0  0  0  0  0  0  0  0  0  0  0
    5.2945   -5.5441    3.9222 H   0  0  0  0  0  0  0  0  0  0  0  0
    4.1613   -6.0836    5.6315 H   0  0  0  0  0  0  0  0  0  0  0  0
    3.2561   -3.1433    5.5568 H   0  0  0  0  0  0  0  0  0  0  0  0
    2.7448   -1.0585    5.0485 H   0  0  0  0  0  0  0  0  0  0  0  0
    1.1208   -1.9580    3.3777 H   0  0  0  0  0  0  0  0  0  0  0  0
    0.9274   -3.3471    4.4458 H   0  0  0  0  0  0  0  0  0  0  0  0
    0.8250   -3.5699    2.7196 H   0  0  0  0  0  0  0  0  0  0  0  0
    3.4516   -1.5548    2.5779 H   0  0  0  0  0  0  0  0  0  0  0  0
    1.8863   -2.5410    0.9497 H   0  0  0  0  0  0  0  0  0  0  0  0
    2.2825   -0.8551   -0.1087 H   0  0  0  0  0  0  0  0  0  0  0  0
    2.6826   -4.0895   -0.3996 H   0  0  0  0  0  0  0  0  0  0  0  0
    3.9754   -1.8004   -1.8895 H   0  0  0  0  0  0  0  0  0  0  0  0
    2.2454   -2.1645   -1.8515 H   0  0  0  0  0  0  0  0  0  0  0  0
    3.3275   -3.3026   -2.5499 H   0  0  0  0  0  0  0  0  0  0  0  0
    4.2451   -5.1538   -1.5539 H   0  0  0  0  0  0  0  0  0  0  0  0
  1  2  1  0
  1 28  1  0
  1 29  1  0
  1 30  1  0
  3  2  1  1
  3 15  1  0
  3 19  1  0
  3  4  1  0
  4  5  1  0
  4 31  1  0
  4 32  1  0
  5 26  1  0
  5  6  1  6
  5  7  1  0
  6 33  1  0
  6 34  1  0
  6 35  1  0
  7 13  1  0
  7  8  1  0
  7 36  1  1
  8  9  1  0
  8 37  1  0
  8 38  1  0
  9 26  1  0
  9 10  1  0
  9 39  1  6
 10 11  1  0
 11 12  2  0
 13 11  1  1
 13 21  1  0
 13 14  1  0
 14 15  1  0
 14 17  1  0
 14 40  1  1
 15 16  1  0
 15 41  1  6
 16 42  1  0
 17 18  1  0
 17 19  1  0
 17 43  1  1
 18 44  1  0
 19 20  1  1
 19 21  1  0
 20 45  1  0
 20 46  1  0
 20 47  1  0
 21 22  1  0
 21 48  1  1
 22 23  1  0
 22 24  1  0
 22 49  1  1
 23 50  1  0
 24 25  1  0
 24 26  1  0
 24 51  1  6
 25 52  1  0
 25 53  1  0
 25 54  1  0
 26 27  1  6
 27 55  1  0
M  END
>  <i_m_ct_stereo_status>  (197) 
1

>  <s_m_source_file>  (197) 
/var/tmp/pbs.5076255.sched01/tmpc2azvghe/701e6xuegj.sdf

>  <i_m_source_file_index>  (197) 
17

>  <i_lp_mmshare_version>  (197) 
48012

>  <i_f3d_flags>  (197) 
0

>  <s_epik_input>  (197) 
W09IXVtDQEBIXTFbQ0BIXTJbQ0BASF0oW09IXSlbQ0BAXShbQ0gyXTMpKE9bQ0gzXSlbQ0BdMShbQ0gzXSlbQ0BASF00W0NAQEhdKFtPSF0pW0NAQEhdKFtDSDNdKVtDQF0oW09IXSkoW0NAQF0zKFtDSDNdKVtDQEBIXTVbQ0BdMjQ2KVtDQEhdKFtDSDJdNSlPQzY9Tw==

>  <s_epik_cmdline>  (197) 
J2VwaWtfcHl0aG9uJywgJy1waHQnLCAnMi4wJywgJy1waCcsICc3LjAnLCAnLXRuJywgJzgnLCAnLW1hJywgJzIwMCcsICctaW1hZScsICc8aW5maWxlLm1hZT4nLCAnLW9tYWUnLCAnPG91dGZpbGUubWFlPic=

>  <r_lp_tautomer_probability>  (197) 
1

>  <r_epik_Ionization_Penalty>  (197) 
3.08457e-07

>  <r_epik_Ionization_Penalty_Charging>  (197) 
0

>  <r_epik_Ionization_Penalty_Neutral>  (197) 
3.08457e-07

>  <r_epik_State_Penalty>  (197) 
-0

>  <r_epik_Charging_Adjusted_Penalty>  (197) 
0

>  <i_epik_Tot_Q>  (197) 
0

>  <i_epik_Tot_abs_Q>  (197) 
0

>  <s_epik_Chemistry_Notes>  (197) 
This compound has an ester and may undergo hydrolysis at high or low pH.

>  <s_lp_Force_Field>  (197) 
OPLS3e

>  <r_lp_Energy>  (197) 
156.116

>  <b_lp_Chiralities_Consistent>  (197) 
1

>  <s_lp_Variant>  (197) 
70:0-1

>  <s_i_glide_gridfile>  (197) 
pfpi4k_grid

>  <i_i_glide_lignum>  (197) 
17

>  <i_i_glide_rotatable_bonds>  (197) 
5

>  <r_i_docking_score>  (197) 
-3.64378

>  <r_i_glide_ligand_efficiency>  (197) 
-0.134955

>  <r_i_glide_ligand_efficiency_sa>  (197) 
-0.404865

>  <r_i_glide_ligand_efficiency_ln>  (197) 
-0.848212

>  <r_i_glide_gscore>  (197) 
-3.64378

>  <r_i_glide_lipo>  (197) 
-0.533768

>  <r_i_glide_hbond>  (197) 
-0.304

>  <r_i_glide_metal>  (197) 
-0

>  <r_i_glide_rewards>  (197) 
-0.979127

>  <r_i_glide_evdw>  (197) 
-14.554

>  <r_i_glide_ecoul>  (197) 
-7.32791

>  <r_i_glide_erotb>  (197) 
0

>  <r_i_glide_esite>  (197) 
0

>  <r_i_glide_emodel>  (197) 
-26.2295

>  <r_i_glide_energy>  (197) 
-21.8819

>  <r_i_glide_einternal>  (197) 
1.39081

>  <r_i_glide_intrahb_reward>  (197) 
-0

>  <i_i_glide_confnum>  (197) 
2

>  <i_i_glide_posenum>  (197) 
8

>  <r_i_glide_eff_state_penalty>  (197) 
0

>  <ligand_id>  (197) 
70

>  <original_smiles>  (197) 
COC12CC3(C)C4CC5OC(=O)C46C(C1O)C(O)C2(C)C6C(O)C(C)C53O

>  <smiles>  (197) 
[H]OC1([H])C([H])(C([H])([H])[H])C2(O[H])C3([H])OC(=O)C45C6([H])C([H])(O[H])C(OC([H])([H])[H])(C([H])([H])C2(C([H])([H])[H])C4([H])C3([H])[H])C(C([H])([H])[H])(C6([H])O[H])C15[H]

$$$$
71:0:0
     RDKit          3D

 26 27  0  0  1  0  0  0  0  0999 V2000
    3.3957   -0.2001   -3.9172 C   0  0  0  0  0  0  0  0  0  0  0  0
    3.1040   -1.0987   -2.7755 N   0  0  2  0  0  0  0  0  0  0  0  0
    4.2737   -1.2347   -1.8731 C   0  0  0  0  0  0  0  0  0  0  0  0
    3.9214   -2.0648   -0.6329 C   0  0  0  0  0  0  0  0  0  0  0  0
    3.3769   -3.4638   -1.0234 C   0  0  1  0  0  0  0  0  0  0  0  0
    2.9261   -4.2342    0.1328 N   0  0  0  0  0  0  0  0  0  0  0  0
    2.2233   -5.3662    0.1963 C   0  0  0  0  0  0  0  0  0  0  0  0
    1.9938   -5.7371    1.4454 N   0  0  0  0  0  0  0  0  0  0  0  0
    2.6435   -4.7635    2.1858 N   0  0  0  0  0  0  0  0  0  0  0  0
    3.2090   -3.8782    1.4123 N   0  0  0  0  0  0  0  0  0  0  0  0
    2.2224   -3.3056   -2.0417 C   0  0  0  0  0  0  0  0  0  0  0  0
    2.6164   -2.4226   -3.2328 C   0  0  0  0  0  0  0  0  0  0  0  0
    4.2035   -0.6137   -4.5238 H   0  0  0  0  0  0  0  0  0  0  0  0
    3.7096    0.7898   -3.5791 H   0  0  0  0  0  0  0  0  0  0  0  0
    2.5249   -0.0772   -4.5644 H   0  0  0  0  0  0  0  0  0  0  0  0
    5.1010   -1.7063   -2.4039 H   0  0  0  0  0  0  0  0  0  0  0  0
    4.6200   -0.2532   -1.5495 H   0  0  0  0  0  0  0  0  0  0  0  0
    4.8088   -2.1602   -0.0039 H   0  0  0  0  0  0  0  0  0  0  0  0
    3.1817   -1.5165   -0.0455 H   0  0  0  0  0  0  0  0  0  0  0  0
    4.1800   -4.0283   -1.4989 H   0  0  0  0  0  0  0  0  0  0  0  0
    1.8425   -5.8949   -0.6678 H   0  0  0  0  0  0  0  0  0  0  0  0
    1.8535   -4.2545   -2.4279 H   0  0  0  0  0  0  0  0  0  0  0  0
    1.3573   -2.9014   -1.5353 H   0  0  0  0  0  0  0  0  0  0  0  0
    1.7531   -2.3053   -3.8889 H   0  0  0  0  0  0  0  0  0  0  0  0
    3.3883   -2.9327   -3.8118 H   0  0  0  0  0  0  0  0  0  0  0  0
    2.3552   -0.6940   -2.2188 H   0  0  0  0  0  0  0  0  0  0  0  0
  1  2  1  0
  1 13  1  0
  1 14  1  0
  1 15  1  0
  2 12  1  0
  2  3  1  0
  2 26  1  1
  3  4  1  0
  3 16  1  0
  3 17  1  0
  4  5  1  0
  4 18  1  0
  4 19  1  0
  5  6  1  0
  5 11  1  0
  5 20  1  6
  6 10  1  0
  6  7  1  0
  7  8  2  0
  7 21  1  0
  8  9  1  0
  9 10  2  0
 11 12  1  0
 11 22  1  0
 11 23  1  0
 12 24  1  0
 12 25  1  0
M  CHG  1   2   1
M  END
>  <i_m_ct_stereo_status>  (198) 
1

>  <s_m_source_file>  (198) 
/var/tmp/pbs.5076255.sched01/tmpc2azvghe/701e6xuegj.sdf

>  <i_m_source_file_index>  (198) 
18

>  <i_lp_mmshare_version>  (198) 
48012

>  <i_f3d_flags>  (198) 
0

>  <s_epik_input>  (198) 
W0NIM11OMVtDSDJdW0NIMl1bQ0hdKFtDSDJdW0NIMl0xKW4yW2NIXW5ubjI=

>  <s_epik_cmdline>  (198) 
J2VwaWtfcHl0aG9uJywgJy1waHQnLCAnMi4wJywgJy1waCcsICc3LjAnLCAnLXRuJywgJzgnLCAnLW1hJywgJzIwMCcsICctaW1hZScsICc8aW5maWxlLm1hZT4nLCAnLW9tYWUnLCAnPG91dGZpbGUubWFlPic=

>  <r_lp_tautomer_probability>  (198) 
1

>  <r_epik_Ionization_Penalty>  (198) 
0.0273292

>  <r_epik_Ionization_Penalty_Charging>  (198) 
0.0273292

>  <r_epik_Ionization_Penalty_Neutral>  (198) 
6.64379e-10

>  <r_epik_State_Penalty>  (198) 
0.0223621

>  <r_epik_Charging_Adjusted_Penalty>  (198) 
0.0496913

>  <i_epik_Tot_Q>  (198) 
1

>  <i_epik_Tot_abs_Q>  (198) 
1

>  <s_lp_Force_Field>  (198) 
OPLS3e

>  <r_lp_Energy>  (198) 
7.83694

>  <b_lp_Chiralities_Consistent>  (198) 
1

>  <s_lp_Variant>  (198) 
71:0-1

>  <s_i_glide_gridfile>  (198) 
pfpi4k_grid

>  <i_i_glide_lignum>  (198) 
18

>  <i_i_glide_rotatable_bonds>  (198) 
1

>  <r_i_docking_score>  (198) 
-4.03671

>  <r_i_glide_ligand_efficiency>  (198) 
-0.336392

>  <r_i_glide_ligand_efficiency_sa>  (198) 
-0.770146

>  <r_i_glide_ligand_efficiency_ln>  (198) 
-1.15834

>  <r_i_glide_gscore>  (198) 
-4.03671

>  <r_i_glide_lipo>  (198) 
-0.557814

>  <r_i_glide_hbond>  (198) 
-0.14145

>  <r_i_glide_metal>  (198) 
-0

>  <r_i_glide_rewards>  (198) 
-2.25

>  <r_i_glide_evdw>  (198) 
-14.2809

>  <r_i_glide_ecoul>  (198) 
-4.80153

>  <r_i_glide_erotb>  (198) 
0.542999

>  <r_i_glide_esite>  (198) 
-0.196168

>  <r_i_glide_emodel>  (198) 
-24.538

>  <r_i_glide_energy>  (198) 
-19.0824

>  <r_i_glide_einternal>  (198) 
1.58944

>  <r_i_glide_intrahb_reward>  (198) 
-0

>  <i_i_glide_confnum>  (198) 
5

>  <i_i_glide_posenum>  (198) 
13

>  <r_i_glide_eff_state_penalty>  (198) 
0

>  <ligand_id>  (198) 
71

>  <original_smiles>  (198) 
CN1CCC(n2cnnn2)CC1

>  <smiles>  (198) 
[H]c1nnnn1C1([H])C([H])([H])C([H])([H])[N+]([H])(C([H])([H])[H])C([H])([H])C1([H])[H]

$$$$
71:0:1
     RDKit          3D

 26 27  0  0  1  0  0  0  0  0999 V2000
    3.1330   -0.1470   -4.2794 C   0  0  0  0  0  0  0  0  0  0  0  0
    3.0362   -1.0625   -3.1201 N   0  0  2  0  0  0  0  0  0  0  0  0
    4.3250   -1.1632   -2.3926 C   0  0  0  0  0  0  0  0  0  0  0  0
    4.1866   -2.0169   -1.1239 C   0  0  0  0  0  0  0  0  0  0  0  0
    3.6262   -3.4168   -1.4636 C   0  0  1  0  0  0  0  0  0  0  0  0
    3.4310   -4.1988   -0.2589 N   0  0  0  0  0  0  0  0  0  0  0  0
    3.9021   -5.3981    0.0935 C   0  0  0  0  0  0  0  0  0  0  0  0
    3.4500   -5.7737    1.2786 N   0  0  0  0  0  0  0  0  0  0  0  0
    2.6485   -4.7092    1.6697 N   0  0  0  0  0  0  0  0  0  0  0  0
    2.6317   -3.7750    0.7554 N   0  0  0  0  0  0  0  0  0  0  0  0
    2.3154   -3.2909   -2.2771 C   0  0  0  0  0  0  0  0  0  0  0  0
    2.5177   -2.3982   -3.5102 C   0  0  0  0  0  0  0  0  0  0  0  0
    3.8576   -0.5245   -5.0005 H   0  0  0  0  0  0  0  0  0  0  0  0
    3.4509    0.8533   -3.9781 H   0  0  0  0  0  0  0  0  0  0  0  0
    2.1797   -0.0477   -4.8000 H   0  0  0  0  0  0  0  0  0  0  0  0
    5.0680   -1.6102   -3.0496 H   0  0  0  0  0  0  0  0  0  0  0  0
    4.6844   -0.1692   -2.1198 H   0  0  0  0  0  0  0  0  0  0  0  0
    5.1553   -2.1098   -0.6256 H   0  0  0  0  0  0  0  0  0  0  0  0
    3.5248   -1.4957   -0.4272 H   0  0  0  0  0  0  0  0  0  0  0  0
    4.3563   -3.9344   -2.0821 H   0  0  0  0  0  0  0  0  0  0  0  0
    4.5568   -6.0008   -0.5209 H   0  0  0  0  0  0  0  0  0  0  0  0
    1.9306   -4.2529   -2.6028 H   0  0  0  0  0  0  0  0  0  0  0  0
    1.5223   -2.8844   -1.6570 H   0  0  0  0  0  0  0  0  0  0  0  0
    1.5716   -2.3024   -4.0429 H   0  0  0  0  0  0  0  0  0  0  0  0
    3.2161   -2.8784   -4.1978 H   0  0  0  0  0  0  0  0  0  0  0  0
    2.3615   -0.6759   -2.4703 H   0  0  0  0  0  0  0  0  0  0  0  0
  1  2  1  0
  1 13  1  0
  1 14  1  0
  1 15  1  0
  2 12  1  0
  2  3  1  0
  2 26  1  1
  3  4  1  0
  3 16  1  0
  3 17  1  0
  4  5  1  0
  4 18  1  0
  4 19  1  0
  5  6  1  0
  5 11  1  0
  5 20  1  6
  6 10  1  0
  6  7  1  0
  7  8  2  0
  7 21  1  0
  8  9  1  0
  9 10  2  0
 11 12  1  0
 11 22  1  0
 11 23  1  0
 12 24  1  0
 12 25  1  0
M  CHG  1   2   1
M  END
>  <i_m_ct_stereo_status>  (199) 
1

>  <s_m_source_file>  (199) 
/var/tmp/pbs.5076255.sched01/tmpc2azvghe/701e6xuegj.sdf

>  <i_m_source_file_index>  (199) 
18

>  <i_lp_mmshare_version>  (199) 
48012

>  <i_f3d_flags>  (199) 
0

>  <s_epik_input>  (199) 
W0NIM11OMVtDSDJdW0NIMl1bQ0hdKFtDSDJdW0NIMl0xKW4yW2NIXW5ubjI=

>  <s_epik_cmdline>  (199) 
J2VwaWtfcHl0aG9uJywgJy1waHQnLCAnMi4wJywgJy1waCcsICc3LjAnLCAnLXRuJywgJzgnLCAnLW1hJywgJzIwMCcsICctaW1hZScsICc8aW5maWxlLm1hZT4nLCAnLW9tYWUnLCAnPG91dGZpbGUubWFlPic=

>  <r_lp_tautomer_probability>  (199) 
1

>  <r_epik_Ionization_Penalty>  (199) 
0.0273292

>  <r_epik_Ionization_Penalty_Charging>  (199) 
0.0273292

>  <r_epik_Ionization_Penalty_Neutral>  (199) 
6.64379e-10

>  <r_epik_State_Penalty>  (199) 
0.0223621

>  <r_epik_Charging_Adjusted_Penalty>  (199) 
0.0496913

>  <i_epik_Tot_Q>  (199) 
1

>  <i_epik_Tot_abs_Q>  (199) 
1

>  <s_lp_Force_Field>  (199) 
OPLS3e

>  <r_lp_Energy>  (199) 
7.83694

>  <b_lp_Chiralities_Consistent>  (199) 
1

>  <s_lp_Variant>  (199) 
71:0-1

>  <s_i_glide_gridfile>  (199) 
pfpi4k_grid

>  <i_i_glide_lignum>  (199) 
18

>  <i_i_glide_rotatable_bonds>  (199) 
1

>  <r_i_docking_score>  (199) 
-3.93898

>  <r_i_glide_ligand_efficiency>  (199) 
-0.328248

>  <r_i_glide_ligand_efficiency_sa>  (199) 
-0.751501

>  <r_i_glide_ligand_efficiency_ln>  (199) 
-1.1303

>  <r_i_glide_gscore>  (199) 
-3.93898

>  <r_i_glide_lipo>  (199) 
-0.656528

>  <r_i_glide_hbond>  (199) 
-0.0575463

>  <r_i_glide_metal>  (199) 
-0

>  <r_i_glide_rewards>  (199) 
-2.25

>  <r_i_glide_evdw>  (199) 
-15.2092

>  <r_i_glide_ecoul>  (199) 
-4.53788

>  <r_i_glide_erotb>  (199) 
0.542999

>  <r_i_glide_esite>  (199) 
-0.0767621

>  <r_i_glide_emodel>  (199) 
-25.8817

>  <r_i_glide_energy>  (199) 
-19.747

>  <r_i_glide_einternal>  (199) 
0.0256856

>  <r_i_glide_intrahb_reward>  (199) 
-0

>  <i_i_glide_confnum>  (199) 
5

>  <i_i_glide_posenum>  (199) 
4

>  <r_i_glide_eff_state_penalty>  (199) 
0

>  <ligand_id>  (199) 
71

>  <original_smiles>  (199) 
CN1CCC(n2cnnn2)CC1

>  <smiles>  (199) 
[H]c1nnnn1C1([H])C([H])([H])C([H])([H])[N+]([H])(C([H])([H])[H])C([H])([H])C1([H])[H]

$$$$
71:0:2
     RDKit          3D

 26 27  0  0  1  0  0  0  0  0999 V2000
    2.9529    0.0499   -4.7479 C   0  0  0  0  0  0  0  0  0  0  0  0
    3.0081   -0.8406   -3.5676 N   0  0  2  0  0  0  0  0  0  0  0  0
    4.3420   -0.8624   -2.9234 C   0  0  0  0  0  0  0  0  0  0  0  0
    4.3338   -1.6934   -1.6308 C   0  0  0  0  0  0  0  0  0  0  0  0
    3.8057   -3.1248   -1.8848 C   0  0  1  0  0  0  0  0  0  0  0  0
    3.6752   -3.8627   -0.6383 N   0  0  0  0  0  0  0  0  0  0  0  0
    2.6300   -4.4864   -0.0818 C   0  0  0  0  0  0  0  0  0  0  0  0
    2.9504   -5.0496    1.0687 N   0  0  0  0  0  0  0  0  0  0  0  0
    4.2986   -4.7596    1.2000 N   0  0  0  0  0  0  0  0  0  0  0  0
    4.7324   -4.0665    0.1827 N   0  0  0  0  0  0  0  0  0  0  0  0
    2.4534   -3.0624   -2.6249 C   0  0  0  0  0  0  0  0  0  0  0  0
    2.5256   -2.2068   -3.8860 C   0  0  0  0  0  0  0  0  0  0  0  0
    3.6190   -0.3127   -5.5333 H   0  0  0  0  0  0  0  0  0  0  0  0
    3.2367    1.0737   -4.4934 H   0  0  0  0  0  0  0  0  0  0  0  0
    1.9401    0.0800   -5.1576 H   0  0  0  0  0  0  0  0  0  0  0  0
    5.0240   -1.3053   -3.6365 H   0  0  0  0  0  0  0  0  0  0  0  0
    4.6705    0.1535   -2.7023 H   0  0  0  0  0  0  0  0  0  0  0  0
    5.3421   -1.7202   -1.2090 H   0  0  0  0  0  0  0  0  0  0  0  0
    3.7076   -1.1961   -0.8887 H   0  0  0  0  0  0  0  0  0  0  0  0
    4.5210   -3.6588   -2.5146 H   0  0  0  0  0  0  0  0  0  0  0  0
    1.6420   -4.5406   -0.5203 H   0  0  0  0  0  0  0  0  0  0  0  0
    2.1008   -4.0556   -2.9094 H   0  0  0  0  0  0  0  0  0  0  0  0
    1.6870   -2.6591   -1.9630 H   0  0  0  0  0  0  0  0  0  0  0  0
    1.5231   -2.1827   -4.3211 H   0  0  0  0  0  0  0  0  0  0  0  0
    3.1718   -2.6934   -4.6176 H   0  0  0  0  0  0  0  0  0  0  0  0
    2.3823   -0.4614   -2.8757 H   0  0  0  0  0  0  0  0  0  0  0  0
  1  2  1  0
  1 13  1  0
  1 14  1  0
  1 15  1  0
  2 12  1  0
  2  3  1  0
  2 26  1  1
  3  4  1  0
  3 16  1  0
  3 17  1  0
  4  5  1  0
  4 18  1  0
  4 19  1  0
  5  6  1  0
  5 11  1  0
  5 20  1  6
  6 10  1  0
  6  7  1  0
  7  8  2  0
  7 21  1  0
  8  9  1  0
  9 10  2  0
 11 12  1  0
 11 22  1  0
 11 23  1  0
 12 24  1  0
 12 25  1  0
M  CHG  1   2   1
M  END
>  <i_m_ct_stereo_status>  (200) 
1

>  <s_m_source_file>  (200) 
/var/tmp/pbs.5076255.sched01/tmpc2azvghe/701e6xuegj.sdf

>  <i_m_source_file_index>  (200) 
18

>  <i_lp_mmshare_version>  (200) 
48012

>  <i_f3d_flags>  (200) 
0

>  <s_epik_input>  (200) 
W0NIM11OMVtDSDJdW0NIMl1bQ0hdKFtDSDJdW0NIMl0xKW4yW2NIXW5ubjI=

>  <s_epik_cmdline>  (200) 
J2VwaWtfcHl0aG9uJywgJy1waHQnLCAnMi4wJywgJy1waCcsICc3LjAnLCAnLXRuJywgJzgnLCAnLW1hJywgJzIwMCcsICctaW1hZScsICc8aW5maWxlLm1hZT4nLCAnLW9tYWUnLCAnPG91dGZpbGUubWFlPic=

>  <r_lp_tautomer_probability>  (200) 
1

>  <r_epik_Ionization_Penalty>  (200) 
0.0273292

>  <r_epik_Ionization_Penalty_Charging>  (200) 
0.0273292

>  <r_epik_Ionization_Penalty_Neutral>  (200) 
6.64379e-10

>  <r_epik_State_Penalty>  (200) 
0.0223621

>  <r_epik_Charging_Adjusted_Penalty>  (200) 
0.0496913

>  <i_epik_Tot_Q>  (200) 
1

>  <i_epik_Tot_abs_Q>  (200) 
1

>  <s_lp_Force_Field>  (200) 
OPLS3e

>  <r_lp_Energy>  (200) 
7.83694

>  <b_lp_Chiralities_Consistent>  (200) 
1

>  <s_lp_Variant>  (200) 
71:0-1

>  <s_i_glide_gridfile>  (200) 
pfpi4k_grid

>  <i_i_glide_lignum>  (200) 
18

>  <i_i_glide_rotatable_bonds>  (200) 
1

>  <r_i_docking_score>  (200) 
-3.58054

>  <r_i_glide_ligand_efficiency>  (200) 
-0.298379

>  <r_i_glide_ligand_efficiency_sa>  (200) 
-0.683116

>  <r_i_glide_ligand_efficiency_ln>  (200) 
-1.02744

>  <r_i_glide_gscore>  (200) 
-3.58054

>  <r_i_glide_lipo>  (200) 
-0.373171

>  <r_i_glide_hbond>  (200) 
0

>  <r_i_glide_metal>  (200) 
-0

>  <r_i_glide_rewards>  (200) 
-2.25

>  <r_i_glide_evdw>  (200) 
-16.6838

>  <r_i_glide_ecoul>  (200) 
-3.94673

>  <r_i_glide_erotb>  (200) 
0.542999

>  <r_i_glide_esite>  (200) 
-0.0741706

>  <r_i_glide_emodel>  (200) 
-25.3082

>  <r_i_glide_energy>  (200) 
-20.6305

>  <r_i_glide_einternal>  (200) 
1.66684

>  <r_i_glide_intrahb_reward>  (200) 
-0

>  <i_i_glide_confnum>  (200) 
5

>  <i_i_glide_posenum>  (200) 
30

>  <r_i_glide_eff_state_penalty>  (200) 
0

>  <ligand_id>  (200) 
71

>  <original_smiles>  (200) 
CN1CCC(n2cnnn2)CC1

>  <smiles>  (200) 
[H]c1nnnn1C1([H])C([H])([H])C([H])([H])[N+]([H])(C([H])([H])[H])C([H])([H])C1([H])[H]

$$$$
71:1:0
     RDKit          3D

 25 26  0  0  1  0  0  0  0  0999 V2000
    3.0372   -0.1440   -5.1274 C   0  0  0  0  0  0  0  0  0  0  0  0
    3.8834   -0.8963   -4.2143 N   0  0  0  0  0  0  0  0  0  0  0  0
    3.4141   -2.2798   -4.1178 C   0  0  0  0  0  0  0  0  0  0  0  0
    4.3555   -3.0861   -3.2062 C   0  0  0  0  0  0  0  0  0  0  0  0
    4.4158   -2.4648   -1.8027 C   0  0  0  0  0  0  0  0  0  0  0  0
    5.3461   -3.1833   -0.9416 N   0  0  0  0  0  0  0  0  0  0  0  0
    5.1386   -4.2024   -0.1056 C   0  0  0  0  0  0  0  0  0  0  0  0
    6.2620   -4.5867    0.4851 N   0  0  0  0  0  0  0  0  0  0  0  0
    7.2129   -3.7352   -0.0545 N   0  0  0  0  0  0  0  0  0  0  0  0
    6.6804   -2.9186   -0.9197 N   0  0  0  0  0  0  0  0  0  0  0  0
    4.7615   -0.9691   -1.9203 C   0  0  0  0  0  0  0  0  0  0  0  0
    3.8181   -0.2589   -2.9010 C   0  0  0  0  0  0  0  0  0  0  0  0
    3.1305   -0.5444   -6.1341 H   0  0  0  0  0  0  0  0  0  0  0  0
    3.3401    0.9029   -5.1717 H   0  0  0  0  0  0  0  0  0  0  0  0
    1.9875   -0.1821   -4.8313 H   0  0  0  0  0  0  0  0  0  0  0  0
    2.3892   -2.3110   -3.7411 H   0  0  0  0  0  0  0  0  0  0  0  0
    3.3994   -2.7390   -5.1049 H   0  0  0  0  0  0  0  0  0  0  0  0
    4.0081   -4.1169   -3.1451 H   0  0  0  0  0  0  0  0  0  0  0  0
    5.3565   -3.1284   -3.6389 H   0  0  0  0  0  0  0  0  0  0  0  0
    3.4236   -2.5417   -1.3531 H   0  0  0  0  0  0  0  0  0  0  0  0
    4.1760   -4.6619    0.0661 H   0  0  0  0  0  0  0  0  0  0  0  0
    4.7058   -0.4954   -0.9390 H   0  0  0  0  0  0  0  0  0  0  0  0
    5.7833   -0.8381   -2.2759 H   0  0  0  0  0  0  0  0  0  0  0  0
    4.1252    0.7839   -2.9921 H   0  0  0  0  0  0  0  0  0  0  0  0
    2.7925   -0.2721   -2.5265 H   0  0  0  0  0  0  0  0  0  0  0  0
  1  2  1  0
  1 13  1  0
  1 14  1  0
  1 15  1  0
  2 12  1  0
  2  3  1  0
  3  4  1  0
  3 16  1  0
  3 17  1  0
  4  5  1  0
  4 18  1  0
  4 19  1  0
  5  6  1  0
  5 11  1  0
  5 20  1  0
  6 10  1  0
  6  7  1  0
  7  8  2  0
  7 21  1  0
  8  9  1  0
  9 10  2  0
 11 12  1  0
 11 22  1  0
 11 23  1  0
 12 24  1  0
 12 25  1  0
M  END
>  <i_m_ct_stereo_status>  (201) 
1

>  <s_m_source_file>  (201) 
/var/tmp/pbs.5076255.sched01/tmpc2azvghe/701e6xuegj.sdf

>  <i_m_source_file_index>  (201) 
19

>  <i_lp_mmshare_version>  (201) 
48012

>  <i_f3d_flags>  (201) 
0

>  <s_epik_input>  (201) 
W0NIM11OMVtDSDJdW0NIMl1bQ0hdKFtDSDJdW0NIMl0xKW4yW2NIXW5ubjI=

>  <s_epik_cmdline>  (201) 
J2VwaWtfcHl0aG9uJywgJy1waHQnLCAnMi4wJywgJy1waCcsICc3LjAnLCAnLXRuJywgJzgnLCAnLW1hJywgJzIwMCcsICctaW1hZScsICc8aW5maWxlLm1hZT4nLCAnLW9tYWUnLCAnPG91dGZpbGUubWFlPic=

>  <r_lp_tautomer_probability>  (201) 
1

>  <r_epik_Ionization_Penalty>  (201) 
1.83632

>  <r_epik_Ionization_Penalty_Charging>  (201) 
0

>  <r_epik_Ionization_Penalty_Neutral>  (201) 
1.83632

>  <r_epik_State_Penalty>  (201) 
1.9527

>  <r_epik_Charging_Adjusted_Penalty>  (201) 
1.9527

>  <i_epik_Tot_Q>  (201) 
0

>  <i_epik_Tot_abs_Q>  (201) 
0

>  <s_lp_Force_Field>  (201) 
OPLS3e

>  <r_lp_Energy>  (201) 
-4.46664

>  <b_lp_Chiralities_Consistent>  (201) 
1

>  <s_lp_Variant>  (201) 
71:0-2

>  <s_i_glide_gridfile>  (201) 
pfpi4k_grid

>  <i_i_glide_lignum>  (201) 
19

>  <i_i_glide_rotatable_bonds>  (201) 
1

>  <r_i_docking_score>  (201) 
-3.74379

>  <r_i_glide_ligand_efficiency>  (201) 
-0.311983

>  <r_i_glide_ligand_efficiency_sa>  (201) 
-0.714262

>  <r_i_glide_ligand_efficiency_ln>  (201) 
-1.07429

>  <r_i_glide_gscore>  (201) 
-3.74379

>  <r_i_glide_lipo>  (201) 
-0.353102

>  <r_i_glide_hbond>  (201) 
0

>  <r_i_glide_metal>  (201) 
-0

>  <r_i_glide_rewards>  (201) 
-2.40414

>  <r_i_glide_evdw>  (201) 
-19.7184

>  <r_i_glide_ecoul>  (201) 
-3.65976

>  <r_i_glide_erotb>  (201) 
0.548333

>  <r_i_glide_esite>  (201) 
0

>  <r_i_glide_emodel>  (201) 
-28.5542

>  <r_i_glide_energy>  (201) 
-23.3781

>  <r_i_glide_einternal>  (201) 
0.5313

>  <r_i_glide_intrahb_reward>  (201) 
-0

>  <i_i_glide_confnum>  (201) 
1

>  <i_i_glide_posenum>  (201) 
1

>  <r_i_glide_eff_state_penalty>  (201) 
0

>  <ligand_id>  (201) 
71

>  <original_smiles>  (201) 
CN1CCC(n2cnnn2)CC1

>  <smiles>  (201) 
[H]c1nnnn1C1([H])C([H])([H])C([H])([H])N(C([H])([H])[H])C([H])([H])C1([H])[H]

$$$$
71:1:1
     RDKit          3D

 25 26  0  0  1  0  0  0  0  0999 V2000
    3.6007   -0.1754   -4.9025 C   0  0  0  0  0  0  0  0  0  0  0  0
    3.8674   -1.2111   -3.9147 N   0  0  0  0  0  0  0  0  0  0  0  0
    2.9182   -2.3071   -4.1051 C   0  0  0  0  0  0  0  0  0  0  0  0
    3.1900   -3.4302   -3.1063 C   0  0  0  0  0  0  0  0  0  0  0  0
    3.1079   -2.9284   -1.6551 C   0  0  0  0  0  0  0  0  0  0  0  0
    3.5152   -3.9550   -0.7165 N   0  0  0  0  0  0  0  0  0  0  0  0
    4.6859   -4.5778   -0.5527 C   0  0  0  0  0  0  0  0  0  0  0  0
    4.6309   -5.4828    0.4133 N   0  0  0  0  0  0  0  0  0  0  0  0
    3.3208   -5.3942    0.8549 N   0  0  0  0  0  0  0  0  0  0  0  0
    2.6545   -4.4885    0.1881 N   0  0  0  0  0  0  0  0  0  0  0  0
    3.9915   -1.6821   -1.4987 C   0  0  0  0  0  0  0  0  0  0  0  0
    3.6757   -0.6441   -2.5819 C   0  0  0  0  0  0  0  0  0  0  0  0
    3.7744   -0.5586   -5.9067 H   0  0  0  0  0  0  0  0  0  0  0  0
    4.2598    0.6787   -4.7510 H   0  0  0  0  0  0  0  0  0  0  0  0
    2.5728    0.1858   -4.8471 H   0  0  0  0  0  0  0  0  0  0  0  0
    1.8901   -1.9574   -4.0024 H   0  0  0  0  0  0  0  0  0  0  0  0
    3.0211   -2.7235   -5.1033 H   0  0  0  0  0  0  0  0  0  0  0  0
    2.4415   -4.2012   -3.2944 H   0  0  0  0  0  0  0  0  0  0  0  0
    4.1728   -3.8589   -3.3085 H   0  0  0  0  0  0  0  0  0  0  0  0
    2.0714   -2.6584   -1.4552 H   0  0  0  0  0  0  0  0  0  0  0  0
    5.5634   -4.3829   -1.1500 H   0  0  0  0  0  0  0  0  0  0  0  0
    3.8498   -1.2442   -0.5091 H   0  0  0  0  0  0  0  0  0  0  0  0
    5.0457   -1.9479   -1.5757 H   0  0  0  0  0  0  0  0  0  0  0  0
    4.3473    0.2060   -2.4549 H   0  0  0  0  0  0  0  0  0  0  0  0
    2.6526   -0.2789   -2.4697 H   0  0  0  0  0  0  0  0  0  0  0  0
  1  2  1  0
  1 13  1  0
  1 14  1  0
  1 15  1  0
  2 12  1  0
  2  3  1  0
  3  4  1  0
  3 16  1  0
  3 17  1  0
  4  5  1  0
  4 18  1  0
  4 19  1  0
  5  6  1  0
  5 11  1  0
  5 20  1  0
  6 10  1  0
  6  7  1  0
  7  8  2  0
  7 21  1  0
  8  9  1  0
  9 10  2  0
 11 12  1  0
 11 22  1  0
 11 23  1  0
 12 24  1  0
 12 25  1  0
M  END
>  <i_m_ct_stereo_status>  (202) 
1

>  <s_m_source_file>  (202) 
/var/tmp/pbs.5076255.sched01/tmpc2azvghe/701e6xuegj.sdf

>  <i_m_source_file_index>  (202) 
19

>  <i_lp_mmshare_version>  (202) 
48012

>  <i_f3d_flags>  (202) 
0

>  <s_epik_input>  (202) 
W0NIM11OMVtDSDJdW0NIMl1bQ0hdKFtDSDJdW0NIMl0xKW4yW2NIXW5ubjI=

>  <s_epik_cmdline>  (202) 
J2VwaWtfcHl0aG9uJywgJy1waHQnLCAnMi4wJywgJy1waCcsICc3LjAnLCAnLXRuJywgJzgnLCAnLW1hJywgJzIwMCcsICctaW1hZScsICc8aW5maWxlLm1hZT4nLCAnLW9tYWUnLCAnPG91dGZpbGUubWFlPic=

>  <r_lp_tautomer_probability>  (202) 
1

>  <r_epik_Ionization_Penalty>  (202) 
1.83632

>  <r_epik_Ionization_Penalty_Charging>  (202) 
0

>  <r_epik_Ionization_Penalty_Neutral>  (202) 
1.83632

>  <r_epik_State_Penalty>  (202) 
1.9527

>  <r_epik_Charging_Adjusted_Penalty>  (202) 
1.9527

>  <i_epik_Tot_Q>  (202) 
0

>  <i_epik_Tot_abs_Q>  (202) 
0

>  <s_lp_Force_Field>  (202) 
OPLS3e

>  <r_lp_Energy>  (202) 
-4.46664

>  <b_lp_Chiralities_Consistent>  (202) 
1

>  <s_lp_Variant>  (202) 
71:0-2

>  <s_i_glide_gridfile>  (202) 
pfpi4k_grid

>  <i_i_glide_lignum>  (202) 
19

>  <i_i_glide_rotatable_bonds>  (202) 
1

>  <r_i_docking_score>  (202) 
-3.38421

>  <r_i_glide_ligand_efficiency>  (202) 
-0.282018

>  <r_i_glide_ligand_efficiency_sa>  (202) 
-0.64566

>  <r_i_glide_ligand_efficiency_ln>  (202) 
-0.971106

>  <r_i_glide_gscore>  (202) 
-3.38421

>  <r_i_glide_lipo>  (202) 
-0.276074

>  <r_i_glide_hbond>  (202) 
0

>  <r_i_glide_metal>  (202) 
-0

>  <r_i_glide_rewards>  (202) 
-2.25

>  <r_i_glide_evdw>  (202) 
-17.0588

>  <r_i_glide_ecoul>  (202) 
-3.18569

>  <r_i_glide_erotb>  (202) 
0.548333

>  <r_i_glide_esite>  (202) 
-0.0756799

>  <r_i_glide_emodel>  (202) 
-24.8749

>  <r_i_glide_energy>  (202) 
-20.2445

>  <r_i_glide_einternal>  (202) 
0.533659

>  <r_i_glide_intrahb_reward>  (202) 
-0

>  <i_i_glide_confnum>  (202) 
2

>  <i_i_glide_posenum>  (202) 
13

>  <r_i_glide_eff_state_penalty>  (202) 
0

>  <ligand_id>  (202) 
71

>  <original_smiles>  (202) 
CN1CCC(n2cnnn2)CC1

>  <smiles>  (202) 
[H]c1nnnn1C1([H])C([H])([H])C([H])([H])N(C([H])([H])[H])C([H])([H])C1([H])[H]

$$$$
71:1:2
     RDKit          3D

 25 26  0  0  1  0  0  0  0  0999 V2000
    4.2153   -0.9217   -3.9839 C   0  0  0  0  0  0  0  0  0  0  0  0
    4.0387   -2.1149   -3.1713 N   0  0  0  0  0  0  0  0  0  0  0  0
    3.0321   -1.8321   -2.1509 C   0  0  0  0  0  0  0  0  0  0  0  0
    2.7495   -3.0861   -1.3066 C   0  0  0  0  0  0  0  0  0  0  0  0
    4.0314   -3.6075   -0.6290 C   0  0  0  0  0  0  0  0  0  0  0  0
    3.8135   -4.8742    0.0733 N   0  0  0  0  0  0  0  0  0  0  0  0
    4.5930   -5.9547    0.1904 C   0  0  0  0  0  0  0  0  0  0  0  0
    4.0235   -6.8910    0.9297 N   0  0  0  0  0  0  0  0  0  0  0  0
    2.8200   -6.3126    1.2987 N   0  0  0  0  0  0  0  0  0  0  0  0
    2.7016   -5.1080    0.8159 N   0  0  0  0  0  0  0  0  0  0  0  0
    5.1263   -3.7470   -1.7064 C   0  0  0  0  0  0  0  0  0  0  0  0
    5.3010   -2.4673   -2.5306 C   0  0  0  0  0  0  0  0  0  0  0  0
    3.2911   -0.6775   -4.5133 H   0  0  0  0  0  0  0  0  0  0  0  0
    4.9943   -1.0829   -4.7247 H   0  0  0  0  0  0  0  0  0  0  0  0
    4.5016   -0.0638   -3.3711 H   0  0  0  0  0  0  0  0  0  0  0  0
    3.3448   -1.0075   -1.5065 H   0  0  0  0  0  0  0  0  0  0  0  0
    2.1224   -1.5235   -2.6586 H   0  0  0  0  0  0  0  0  0  0  0  0
    2.0049   -2.8514   -0.5466 H   0  0  0  0  0  0  0  0  0  0  0  0
    2.3142   -3.8536   -1.9478 H   0  0  0  0  0  0  0  0  0  0  0  0
    4.3549   -2.8738    0.1107 H   0  0  0  0  0  0  0  0  0  0  0  0
    5.5677   -6.0630   -0.2673 H   0  0  0  0  0  0  0  0  0  0  0  0
    6.0827   -3.9819   -1.2423 H   0  0  0  0  0  0  0  0  0  0  0  0
    4.8786   -4.5706   -2.3792 H   0  0  0  0  0  0  0  0  0  0  0  0
    6.0617   -2.6547   -3.2906 H   0  0  0  0  0  0  0  0  0  0  0  0
    5.6531   -1.6541   -1.8940 H   0  0  0  0  0  0  0  0  0  0  0  0
  1  2  1  0
  1 13  1  0
  1 14  1  0
  1 15  1  0
  2 12  1  0
  2  3  1  0
  3  4  1  0
  3 16  1  0
  3 17  1  0
  4  5  1  0
  4 18  1  0
  4 19  1  0
  5  6  1  0
  5 11  1  0
  5 20  1  0
  6 10  1  0
  6  7  1  0
  7  8  2  0
  7 21  1  0
  8  9  1  0
  9 10  2  0
 11 12  1  0
 11 22  1  0
 11 23  1  0
 12 24  1  0
 12 25  1  0
M  END
>  <i_m_ct_stereo_status>  (203) 
1

>  <s_m_source_file>  (203) 
/var/tmp/pbs.5076255.sched01/tmpc2azvghe/701e6xuegj.sdf

>  <i_m_source_file_index>  (203) 
19

>  <i_lp_mmshare_version>  (203) 
48012

>  <i_f3d_flags>  (203) 
0

>  <s_epik_input>  (203) 
W0NIM11OMVtDSDJdW0NIMl1bQ0hdKFtDSDJdW0NIMl0xKW4yW2NIXW5ubjI=

>  <s_epik_cmdline>  (203) 
J2VwaWtfcHl0aG9uJywgJy1waHQnLCAnMi4wJywgJy1waCcsICc3LjAnLCAnLXRuJywgJzgnLCAnLW1hJywgJzIwMCcsICctaW1hZScsICc8aW5maWxlLm1hZT4nLCAnLW9tYWUnLCAnPG91dGZpbGUubWFlPic=

>  <r_lp_tautomer_probability>  (203) 
1

>  <r_epik_Ionization_Penalty>  (203) 
1.83632

>  <r_epik_Ionization_Penalty_Charging>  (203) 
0

>  <r_epik_Ionization_Penalty_Neutral>  (203) 
1.83632

>  <r_epik_State_Penalty>  (203) 
1.9527

>  <r_epik_Charging_Adjusted_Penalty>  (203) 
1.9527

>  <i_epik_Tot_Q>  (203) 
0

>  <i_epik_Tot_abs_Q>  (203) 
0

>  <s_lp_Force_Field>  (203) 
OPLS3e

>  <r_lp_Energy>  (203) 
-4.46664

>  <b_lp_Chiralities_Consistent>  (203) 
1

>  <s_lp_Variant>  (203) 
71:0-2

>  <s_i_glide_gridfile>  (203) 
pfpi4k_grid

>  <i_i_glide_lignum>  (203) 
19

>  <i_i_glide_rotatable_bonds>  (203) 
1

>  <r_i_docking_score>  (203) 
-3.22397

>  <r_i_glide_ligand_efficiency>  (203) 
-0.268664

>  <r_i_glide_ligand_efficiency_sa>  (203) 
-0.615088

>  <r_i_glide_ligand_efficiency_ln>  (203) 
-0.925124

>  <r_i_glide_gscore>  (203) 
-3.22397

>  <r_i_glide_lipo>  (203) 
-0.285997

>  <r_i_glide_hbond>  (203) 
0

>  <r_i_glide_metal>  (203) 
-0

>  <r_i_glide_rewards>  (203) 
-2.35505

>  <r_i_glide_evdw>  (203) 
-17.0453

>  <r_i_glide_ecoul>  (203) 
-1.55819

>  <r_i_glide_erotb>  (203) 
0.548333

>  <r_i_glide_esite>  (203) 
-0.0452659

>  <r_i_glide_emodel>  (203) 
-22.4089

>  <r_i_glide_energy>  (203) 
-18.6035

>  <r_i_glide_einternal>  (203) 
1.72014

>  <r_i_glide_intrahb_reward>  (203) 
-0

>  <i_i_glide_confnum>  (203) 
1

>  <i_i_glide_posenum>  (203) 
24

>  <r_i_glide_eff_state_penalty>  (203) 
0

>  <ligand_id>  (203) 
71

>  <original_smiles>  (203) 
CN1CCC(n2cnnn2)CC1

>  <smiles>  (203) 
[H]c1nnnn1C1([H])C([H])([H])C([H])([H])N(C([H])([H])[H])C([H])([H])C1([H])[H]

$$$$
72:0:0
     RDKit          3D

 65 71  0  0  1  0  0  0  0  0999 V2000
    3.8406   -3.3801    5.5652 C   0  0  0  0  0  0  0  0  0  0  0  0
    4.0932   -2.6555    4.2311 C   0  0  2  0  0  0  0  0  0  0  0  0
    2.8026   -1.9234    3.7311 C   0  0  0  0  0  0  0  0  0  0  0  0
    2.2170   -2.4659    2.3940 C   0  0  0  0  0  0  0  0  0  0  0  0
    3.3102   -2.5216    1.2549 C   0  0  2  0  0  0  0  0  0  0  0  0
    3.0184   -1.2585    0.6419 O   0  0  0  0  0  0  0  0  0  0  0  0
    3.2366   -3.7346    0.2618 C   0  0  1  0  0  0  0  0  0  0  0  0
    3.1835   -3.2394   -1.1948 C   0  0  0  0  0  0  0  0  0  0  0  0
    4.4379   -2.4132   -1.6068 C   0  0  0  0  0  0  0  0  0  0  0  0
    5.6279   -2.3745   -0.5898 C   0  0  1  0  0  0  0  0  0  0  0  0
    5.8507   -1.0588    0.2047 C   0  0  0  0  0  0  0  0  0  0  0  0
    5.6380   -1.3721    1.7152 C   0  0  1  0  0  0  0  0  0  0  0  0
    5.0999   -0.2593    2.3813 O   0  0  0  0  0  0  0  0  0  0  0  0
    4.8107   -2.6909    1.7337 C   0  0  1  0  0  0  0  0  0  0  0  0
    4.6439   -3.5487    3.0889 C   0  0  1  0  0  0  0  0  0  0  0  0
    5.0720   -5.0584    3.3088 C   0  0  0  0  0  0  0  0  0  0  0  0
    4.4618   -6.1096    2.2932 C   0  0  1  0  0  0  0  0  0  0  0  0
    3.0340   -6.0977    2.2277 O   0  0  0  0  0  0  0  0  0  0  0  0
    2.4779   -7.2971    1.7777 C   0  0  2  0  0  0  0  0  0  0  0  0
    0.9970   -7.0647    1.4014 C   0  0  0  0  0  0  0  0  0  0  0  0
    0.1868   -6.7125    2.6559 C   0  0  0  0  0  0  0  0  0  0  0  0
    0.4013   -7.7762    3.7419 C   0  0  0  0  0  0  0  0  0  0  0  0
    1.9034   -7.9732    3.9781 C   0  0  0  0  0  0  0  0  0  0  0  0
    2.5401   -8.3032    2.7464 O   0  0  0  0  0  0  0  0  0  0  0  0
    5.0904   -5.7869    0.9811 C   0  0  1  0  0  0  0  0  0  0  0  0
    4.6004   -5.7362   -0.3589 O   0  0  0  0  0  0  0  0  0  0  0  0
    4.5762   -4.4988    0.3625 C   0  0  1  0  0  0  0  0  0  0  0  0
    5.5616   -3.4055    0.5557 C   0  0  1  0  0  0  0  0  0  0  0  0
    7.0518   -3.8064    0.8402 C   0  0  0  0  0  0  0  0  0  0  0  0
    3.0896   -4.1647    5.4639 H   0  0  0  0  0  0  0  0  0  0  0  0
    3.4929   -2.6859    6.3314 H   0  0  0  0  0  0  0  0  0  0  0  0
    4.7567   -3.8327    5.9462 H   0  0  0  0  0  0  0  0  0  0  0  0
    4.8478   -1.8983    4.4466 H   0  0  0  0  0  0  0  0  0  0  0  0
    2.0294   -1.9452    4.5000 H   0  0  0  0  0  0  0  0  0  0  0  0
    3.0151   -0.8671    3.6019 H   0  0  0  0  0  0  0  0  0  0  0  0
    1.7942   -3.4527    2.5820 H   0  0  0  0  0  0  0  0  0  0  0  0
    1.3452   -1.8755    2.1138 H   0  0  0  0  0  0  0  0  0  0  0  0
    2.1517   -1.2824    0.2281 H   0  0  0  0  0  0  0  0  0  0  0  0
    2.4057   -4.4048    0.4721 H   0  0  0  0  0  0  0  0  0  0  0  0
    3.1221   -4.1097   -1.8465 H   0  0  0  0  0  0  0  0  0  0  0  0
    2.2647   -2.6777   -1.3842 H   0  0  0  0  0  0  0  0  0  0  0  0
    4.7961   -2.8298   -2.5487 H   0  0  0  0  0  0  0  0  0  0  0  0
    4.1189   -1.3992   -1.8531 H   0  0  0  0  0  0  0  0  0  0  0  0
    6.5161   -2.5570   -1.1960 H   0  0  0  0  0  0  0  0  0  0  0  0
    6.8675   -0.6991    0.0746 H   0  0  0  0  0  0  0  0  0  0  0  0
    5.2037   -0.2594   -0.1598 H   0  0  0  0  0  0  0  0  0  0  0  0
    6.6014   -1.5595    2.1810 H   0  0  0  0  0  0  0  0  0  0  0  0
    4.2523   -0.0899    1.9813 H   0  0  0  0  0  0  0  0  0  0  0  0
    3.7122   -4.0549    2.9678 H   0  0  0  0  0  0  0  0  0  0  0  0
    6.1531   -5.1462    3.3517 H   0  0  0  0  0  0  0  0  0  0  0  0
    4.7510   -5.4018    4.2931 H   0  0  0  0  0  0  0  0  0  0  0  0
    4.7980   -7.0987    2.6067 H   0  0  0  0  0  0  0  0  0  0  0  0
    3.0200   -7.6483    0.9001 H   0  0  0  0  0  0  0  0  0  0  0  0
    0.9263   -6.2888    0.6375 H   0  0  0  0  0  0  0  0  0  0  0  0
    0.6171   -7.9841    0.9650 H   0  0  0  0  0  0  0  0  0  0  0  0
    0.4851   -5.7315    3.0327 H   0  0  0  0  0  0  0  0  0  0  0  0
   -0.8749   -6.6621    2.4120 H   0  0  0  0  0  0  0  0  0  0  0  0
   -0.0920   -7.4809    4.6694 H   0  0  0  0  0  0  0  0  0  0  0  0
   -0.0487   -8.7220    3.4365 H   0  0  0  0  0  0  0  0  0  0  0  0
    2.3489   -7.0742    4.4105 H   0  0  0  0  0  0  0  0  0  0  0  0
    2.0747   -8.7840    4.6855 H   0  0  0  0  0  0  0  0  0  0  0  0
    6.1344   -6.0904    0.9598 H   0  0  0  0  0  0  0  0  0  0  0  0
    7.2142   -4.2854    1.8011 H   0  0  0  0  0  0  0  0  0  0  0  0
    7.7171   -2.9399    0.8349 H   0  0  0  0  0  0  0  0  0  0  0  0
    7.4289   -4.4737    0.0619 H   0  0  0  0  0  0  0  0  0  0  0  0
  1  2  1  0
  1 30  1  0
  1 31  1  0
  1 32  1  0
  2 15  1  0
  2  3  1  0
  2 33  1  1
  3  4  1  0
  3 34  1  0
  3 35  1  0
  4  5  1  0
  4 36  1  0
  4 37  1  0
 14  5  1  6
  5  6  1  6
  5  7  1  0
  6 38  1  0
  7 27  1  0
  7  8  1  0
  7 39  1  1
  8  9  1  0
  8 40  1  0
  8 41  1  0
  9 10  1  0
  9 42  1  0
  9 43  1  0
 10 28  1  0
 10 11  1  0
 10 44  1  6
 11 12  1  0
 11 45  1  0
 11 46  1  0
 12 13  1  0
 12 14  1  0
 12 47  1  1
 13 48  1  0
 14 28  1  0
 14 15  1  0
 15 16  1  0
 15 49  1  6
 16 17  1  0
 16 50  1  0
 16 51  1  0
 17 18  1  0
 17 25  1  0
 17 52  1  1
 18 19  1  0
 19 24  1  0
 19 20  1  0
 19 53  1  6
 20 21  1  0
 20 54  1  0
 20 55  1  0
 21 22  1  0
 21 56  1  0
 21 57  1  0
 22 23  1  0
 22 58  1  0
 22 59  1  0
 23 24  1  0
 23 60  1  0
 23 61  1  0
 25 27  1  0
 25 26  1  0
 25 62  1  6
 27 26  1  6
 27 28  1  0
 28 29  1  1
 29 63  1  0
 29 64  1  0
 29 65  1  0
M  END
>  <i_m_ct_stereo_status>  (204) 
1

>  <s_m_source_file>  (204) 
/var/tmp/pbs.5076255.sched01/tmpc2azvghe/701e6xuegj.sdf

>  <i_m_source_file_index>  (204) 
20

>  <i_lp_mmshare_version>  (204) 
48012

>  <i_f3d_flags>  (204) 
0

>  <s_epik_input>  (204) 
TzFbQ0gyXVtDSDJdW0NIMl1bQ0gyXVtDQEhdMU9bQ0BIXShbQ0gyXVtDQEhdMltDQEhdKFtDSDNdKVtDSDJdW0NIMl0zKVtDQEBIXShPNClDNChbQ0BIXTVbQ0BAXTMoW0NAXTI2NylbT0hdKVtDQEBdNyhbQ0gzXSlbQ0BASF0oW0NIMl1bQ0gyXTUpW0NIMl1bQ0BIXTZbT0hd

>  <s_epik_cmdline>  (204) 
J2VwaWtfcHl0aG9uJywgJy1waHQnLCAnMi4wJywgJy1waCcsICc3LjAnLCAnLXRuJywgJzgnLCAnLW1hJywgJzIwMCcsICctaW1hZScsICc8aW5maWxlLm1hZT4nLCAnLW9tYWUnLCAnPG91dGZpbGUubWFlPic=

>  <r_lp_tautomer_probability>  (204) 
1

>  <r_epik_Ionization_Penalty>  (204) 
2.51469e-06

>  <r_epik_Ionization_Penalty_Charging>  (204) 
0

>  <r_epik_Ionization_Penalty_Neutral>  (204) 
2.51469e-06

>  <r_epik_State_Penalty>  (204) 
-0

>  <r_epik_Charging_Adjusted_Penalty>  (204) 
0

>  <i_epik_Tot_Q>  (204) 
0

>  <i_epik_Tot_abs_Q>  (204) 
0

>  <s_epik_Chemistry_Notes>  (204) 
This compound contains an acetal/aminal-like group ( X-CH(R)-Y where X, Y are N, S, or O) that may be acid/base labile, releasing an aldehyde.

>  <s_lp_Force_Field>  (204) 
OPLS3e

>  <r_lp_Energy>  (204) 
151.398

>  <b_lp_Chiralities_Consistent>  (204) 
1

>  <s_lp_Variant>  (204) 
72:0-1

>  <s_i_glide_gridfile>  (204) 
pfpi4k_grid

>  <i_i_glide_lignum>  (204) 
20

>  <i_i_glide_rotatable_bonds>  (204) 
4

>  <r_i_docking_score>  (204) 
-3.38977

>  <r_i_glide_ligand_efficiency>  (204) 
-0.116889

>  <r_i_glide_ligand_efficiency_sa>  (204) 
-0.359119

>  <r_i_glide_ligand_efficiency_ln>  (204) 
-0.776173

>  <r_i_glide_gscore>  (204) 
-3.38977

>  <r_i_glide_lipo>  (204) 
-0.616874

>  <r_i_glide_hbond>  (204) 
0

>  <r_i_glide_metal>  (204) 
-0

>  <r_i_glide_rewards>  (204) 
-1.15087

>  <r_i_glide_evdw>  (204) 
-28.2607

>  <r_i_glide_ecoul>  (204) 
-2.95803

>  <r_i_glide_erotb>  (204) 
0.240071

>  <r_i_glide_esite>  (204) 
-0.00536455

>  <r_i_glide_emodel>  (204) 
-42.4938

>  <r_i_glide_energy>  (204) 
-31.2188

>  <r_i_glide_einternal>  (204) 
0.340958

>  <r_i_glide_intrahb_reward>  (204) 
-0.5

>  <i_i_glide_confnum>  (204) 
3

>  <i_i_glide_posenum>  (204) 
1

>  <r_i_glide_eff_state_penalty>  (204) 
0

>  <ligand_id>  (204) 
72

>  <original_smiles>  (204) 
CC1CCC2(O)C3CCC4CC(O)C25C1CC(OC1CCCCO1)C1OC13C45C

>  <smiles>  (204) 
[H]OC1([H])C([H])([H])C2([H])C([H])([H])C([H])([H])C3([H])C45OC4([H])C([H])(OC4([H])OC([H])([H])C([H])([H])C([H])([H])C4([H])[H])C([H])([H])C4([H])C([H])(C([H])([H])[H])C([H])([H])C([H])([H])C3(O[H])C14C25C([H])([H])[H]

$$$$
72:0:1
     RDKit          3D

 65 71  0  0  1  0  0  0  0  0999 V2000
    4.2408   -3.7825    5.5220 C   0  0  0  0  0  0  0  0  0  0  0  0
    4.2799   -2.9360    4.2101 C   0  0  2  0  0  0  0  0  0  0  0  0
    2.8768   -2.3498    3.8138 C   0  0  0  0  0  0  0  0  0  0  0  0
    2.3148   -2.7813    2.4100 C   0  0  0  0  0  0  0  0  0  0  0  0
    3.3809   -2.5863    1.2637 C   0  0  2  0  0  0  0  0  0  0  0  0
    2.9465   -1.3102    0.8145 O   0  0  0  0  0  0  0  0  0  0  0  0
    3.4335   -3.6952    0.1376 C   0  0  1  0  0  0  0  0  0  0  0  0
    3.2779   -3.0595   -1.2479 C   0  0  0  0  0  0  0  0  0  0  0  0
    4.4134   -2.0370   -1.5741 C   0  0  0  0  0  0  0  0  0  0  0  0
    5.6122   -1.9670   -0.5641 C   0  0  1  0  0  0  0  0  0  0  0  0
    5.7062   -0.7287    0.3751 C   0  0  0  0  0  0  0  0  0  0  0  0
    5.5645   -1.2273    1.8418 C   0  0  1  0  0  0  0  0  0  0  0  0
    4.9325   -0.2488    2.6375 O   0  0  0  0  0  0  0  0  0  0  0  0
    4.9065   -2.6353    1.7187 C   0  0  1  0  0  0  0  0  0  0  0  0
    4.8799   -3.6458    2.9703 C   0  0  1  0  0  0  0  0  0  0  0  0
    5.4685   -5.1266    3.0151 C   0  0  0  0  0  0  0  0  0  0  0  0
    4.9589   -6.1282    1.8821 C   0  0  1  0  0  0  0  0  0  0  0  0
    3.5328   -6.3042    1.7876 O   0  0  0  0  0  0  0  0  0  0  0  0
    2.9857   -7.3780    2.5026 C   0  0  2  0  0  0  0  0  0  0  0  0
    1.5324   -7.6482    2.0024 C   0  0  0  0  0  0  0  0  0  0  0  0
    0.6188   -6.4631    2.3378 C   0  0  0  0  0  0  0  0  0  0  0  0
    0.6829   -6.1609    3.8423 C   0  0  0  0  0  0  0  0  0  0  0  0
    2.1187   -6.0656    4.2600 C   0  0  0  0  0  0  0  0  0  0  0  0
    2.9212   -7.1761    3.8742 O   0  0  0  0  0  0  0  0  0  0  0  0
    5.5173   -5.5814    0.6135 C   0  0  1  0  0  0  0  0  0  0  0  0
    4.9880   -5.4405   -0.7199 O   0  0  0  0  0  0  0  0  0  0  0  0
    4.8466   -4.2946    0.1429 C   0  0  1  0  0  0  0  0  0  0  0  0
    5.7038   -3.1215    0.4509 C   0  0  1  0  0  0  0  0  0  0  0  0
    7.2381   -3.3823    0.6781 C   0  0  0  0  0  0  0  0  0  0  0  0
    3.6873   -4.6704    5.4486 H   0  0  0  0  0  0  0  0  0  0  0  0
    3.8059   -3.1986    6.3555 H   0  0  0  0  0  0  0  0  0  0  0  0
    5.2563   -4.0834    5.8377 H   0  0  0  0  0  0  0  0  0  0  0  0
    4.9158   -2.0892    4.4436 H   0  0  0  0  0  0  0  0  0  0  0  0
    2.1218   -2.5682    4.5804 H   0  0  0  0  0  0  0  0  0  0  0  0
    2.9313   -1.2741    3.8059 H   0  0  0  0  0  0  0  0  0  0  0  0
    1.9699   -3.8038    2.4133 H   0  0  0  0  0  0  0  0  0  0  0  0
    1.3807   -2.2403    2.2100 H   0  0  0  0  0  0  0  0  0  0  0  0
    2.1255   -1.4020    0.3250 H   0  0  0  0  0  0  0  0  0  0  0  0
    2.6851   -4.4814    0.2741 H   0  0  0  0  0  0  0  0  0  0  0  0
    3.3078   -3.8520   -2.0013 H   0  0  0  0  0  0  0  0  0  0  0  0
    2.2901   -2.6154   -1.3695 H   0  0  0  0  0  0  0  0  0  0  0  0
    4.8025   -2.2962   -2.5549 H   0  0  0  0  0  0  0  0  0  0  0  0
    3.9744   -1.0472   -1.6955 H   0  0  0  0  0  0  0  0  0  0  0  0
    6.5012   -1.9745   -1.1972 H   0  0  0  0  0  0  0  0  0  0  0  0
    6.6731   -0.2432    0.2708 H   0  0  0  0  0  0  0  0  0  0  0  0
    4.9613    0.0211    0.1083 H   0  0  0  0  0  0  0  0  0  0  0  0
    6.5508   -1.3654    2.2831 H   0  0  0  0  0  0  0  0  0  0  0  0
    4.0588   -0.1182    2.2715 H   0  0  0  0  0  0  0  0  0  0  0  0
    4.0160   -4.2263    2.7371 H   0  0  0  0  0  0  0  0  0  0  0  0
    6.5526   -5.1092    3.0316 H   0  0  0  0  0  0  0  0  0  0  0  0
    5.2091   -5.5956    3.9575 H   0  0  0  0  0  0  0  0  0  0  0  0
    5.4369   -7.0994    2.0296 H   0  0  0  0  0  0  0  0  0  0  0  0
    3.5922   -8.2727    2.3312 H   0  0  0  0  0  0  0  0  0  0  0  0
    1.5471   -7.8542    0.9374 H   0  0  0  0  0  0  0  0  0  0  0  0
    1.1849   -8.5376    2.5330 H   0  0  0  0  0  0  0  0  0  0  0  0
    0.9241   -5.6023    1.7439 H   0  0  0  0  0  0  0  0  0  0  0  0
   -0.4191   -6.6902    2.0660 H   0  0  0  0  0  0  0  0  0  0  0  0
    0.1880   -5.2113    4.0564 H   0  0  0  0  0  0  0  0  0  0  0  0
    0.1888   -6.9386    4.4328 H   0  0  0  0  0  0  0  0  0  0  0  0
    2.5352   -5.1699    3.8220 H   0  0  0  0  0  0  0  0  0  0  0  0
    2.1240   -5.9643    5.3671 H   0  0  0  0  0  0  0  0  0  0  0  0
    6.5862   -5.7556    0.5411 H   0  0  0  0  0  0  0  0  0  0  0  0
    7.4688   -3.9410    1.5795 H   0  0  0  0  0  0  0  0  0  0  0  0
    7.7942   -2.4488    0.7721 H   0  0  0  0  0  0  0  0  0  0  0  0
    7.6773   -3.9047   -0.1714 H   0  0  0  0  0  0  0  0  0  0  0  0
  1  2  1  0
  1 30  1  0
  1 31  1  0
  1 32  1  0
  2 15  1  0
  2  3  1  0
  2 33  1  1
  3  4  1  0
  3 34  1  0
  3 35  1  0
  4  5  1  0
  4 36  1  0
  4 37  1  0
 14  5  1  6
  5  6  1  6
  5  7  1  0
  6 38  1  0
  7 27  1  0
  7  8  1  0
  7 39  1  1
  8  9  1  0
  8 40  1  0
  8 41  1  0
  9 10  1  0
  9 42  1  0
  9 43  1  0
 10 28  1  0
 10 11  1  0
 10 44  1  6
 11 12  1  0
 11 45  1  0
 11 46  1  0
 12 13  1  0
 12 14  1  0
 12 47  1  1
 13 48  1  0
 14 28  1  0
 14 15  1  0
 15 16  1  0
 15 49  1  6
 16 17  1  0
 16 50  1  0
 16 51  1  0
 17 18  1  0
 17 25  1  0
 17 52  1  1
 18 19  1  0
 19 24  1  0
 19 20  1  0
 19 53  1  1
 20 21  1  0
 20 54  1  0
 20 55  1  0
 21 22  1  0
 21 56  1  0
 21 57  1  0
 22 23  1  0
 22 58  1  0
 22 59  1  0
 23 24  1  0
 23 60  1  0
 23 61  1  0
 25 27  1  0
 25 26  1  0
 25 62  1  6
 27 26  1  6
 27 28  1  0
 28 29  1  1
 29 63  1  0
 29 64  1  0
 29 65  1  0
M  END
>  <i_m_ct_stereo_status>  (205) 
1

>  <s_m_source_file>  (205) 
/var/tmp/pbs.5076255.sched01/tmpc2azvghe/701e6xuegj.sdf

>  <i_m_source_file_index>  (205) 
20

>  <i_lp_mmshare_version>  (205) 
48012

>  <i_f3d_flags>  (205) 
0

>  <s_epik_input>  (205) 
TzFbQ0gyXVtDSDJdW0NIMl1bQ0gyXVtDQEhdMU9bQ0BIXShbQ0gyXVtDQEhdMltDQEhdKFtDSDNdKVtDSDJdW0NIMl0zKVtDQEBIXShPNClDNChbQ0BIXTVbQ0BAXTMoW0NAXTI2NylbT0hdKVtDQEBdNyhbQ0gzXSlbQ0BASF0oW0NIMl1bQ0gyXTUpW0NIMl1bQ0BIXTZbT0hd

>  <s_epik_cmdline>  (205) 
J2VwaWtfcHl0aG9uJywgJy1waHQnLCAnMi4wJywgJy1waCcsICc3LjAnLCAnLXRuJywgJzgnLCAnLW1hJywgJzIwMCcsICctaW1hZScsICc8aW5maWxlLm1hZT4nLCAnLW9tYWUnLCAnPG91dGZpbGUubWFlPic=

>  <r_lp_tautomer_probability>  (205) 
1

>  <r_epik_Ionization_Penalty>  (205) 
2.51469e-06

>  <r_epik_Ionization_Penalty_Charging>  (205) 
0

>  <r_epik_Ionization_Penalty_Neutral>  (205) 
2.51469e-06

>  <r_epik_State_Penalty>  (205) 
-0

>  <r_epik_Charging_Adjusted_Penalty>  (205) 
0

>  <i_epik_Tot_Q>  (205) 
0

>  <i_epik_Tot_abs_Q>  (205) 
0

>  <s_epik_Chemistry_Notes>  (205) 
This compound contains an acetal/aminal-like group ( X-CH(R)-Y where X, Y are N, S, or O) that may be acid/base labile, releasing an aldehyde.

>  <s_lp_Force_Field>  (205) 
OPLS3e

>  <r_lp_Energy>  (205) 
151.398

>  <b_lp_Chiralities_Consistent>  (205) 
1

>  <s_lp_Variant>  (205) 
72:0-1

>  <s_i_glide_gridfile>  (205) 
pfpi4k_grid

>  <i_i_glide_lignum>  (205) 
20

>  <i_i_glide_rotatable_bonds>  (205) 
4

>  <r_i_docking_score>  (205) 
-3.38725

>  <r_i_glide_ligand_efficiency>  (205) 
-0.116802

>  <r_i_glide_ligand_efficiency_sa>  (205) 
-0.358852

>  <r_i_glide_ligand_efficiency_ln>  (205) 
-0.775594

>  <r_i_glide_gscore>  (205) 
-3.38725

>  <r_i_glide_lipo>  (205) 
-0.690977

>  <r_i_glide_hbond>  (205) 
0

>  <r_i_glide_metal>  (205) 
-0

>  <r_i_glide_rewards>  (205) 
-1.15087

>  <r_i_glide_evdw>  (205) 
-27.573

>  <r_i_glide_ecoul>  (205) 
-2.70264

>  <r_i_glide_erotb>  (205) 
0.240071

>  <r_i_glide_esite>  (205) 
-0.00143157

>  <r_i_glide_emodel>  (205) 
-40.1082

>  <r_i_glide_energy>  (205) 
-30.2757

>  <r_i_glide_einternal>  (205) 
0.700815

>  <r_i_glide_intrahb_reward>  (205) 
-0.5

>  <i_i_glide_confnum>  (205) 
3

>  <i_i_glide_posenum>  (205) 
6

>  <r_i_glide_eff_state_penalty>  (205) 
0

>  <ligand_id>  (205) 
72

>  <original_smiles>  (205) 
CC1CCC2(O)C3CCC4CC(O)C25C1CC(OC1CCCCO1)C1OC13C45C

>  <smiles>  (205) 
[H]OC1([H])C([H])([H])C2([H])C([H])([H])C([H])([H])C3([H])C45OC4([H])C([H])(OC4([H])OC([H])([H])C([H])([H])C([H])([H])C4([H])[H])C([H])([H])C4([H])C([H])(C([H])([H])[H])C([H])([H])C([H])([H])C3(O[H])C14C25C([H])([H])[H]

$$$$
72:0:2
     RDKit          3D

 65 71  0  0  1  0  0  0  0  0999 V2000
    4.2659   -3.8114    5.5104 C   0  0  0  0  0  0  0  0  0  0  0  0
    4.3335   -2.9283    4.2113 C   0  0  2  0  0  0  0  0  0  0  0  0
    2.9478   -2.3296    3.8163 C   0  0  0  0  0  0  0  0  0  0  0  0
    2.3804   -2.7262    2.4109 C   0  0  0  0  0  0  0  0  0  0  0  0
    3.4273   -2.5712    1.2420 C   0  0  2  0  0  0  0  0  0  0  0  0
    3.0115   -1.2877    0.7623 O   0  0  0  0  0  0  0  0  0  0  0  0
    3.4559   -3.6869    0.1534 C   0  0  1  0  0  0  0  0  0  0  0  0
    3.3116   -3.0597   -1.2522 C   0  0  0  0  0  0  0  0  0  0  0  0
    4.4524   -2.0519   -1.5868 C   0  0  0  0  0  0  0  0  0  0  0  0
    5.6511   -1.9850   -0.5860 C   0  0  1  0  0  0  0  0  0  0  0  0
    5.7672   -0.7489    0.3527 C   0  0  0  0  0  0  0  0  0  0  0  0
    5.6400   -1.2411    1.8277 C   0  0  1  0  0  0  0  0  0  0  0  0
    5.0390   -0.2486    2.6064 O   0  0  0  0  0  0  0  0  0  0  0  0
    4.9551   -2.6271    1.7114 C   0  0  1  0  0  0  0  0  0  0  0  0
    4.9159   -3.6622    2.9684 C   0  0  1  0  0  0  0  0  0  0  0  0
    5.4867   -5.1237    3.0087 C   0  0  0  0  0  0  0  0  0  0  0  0
    4.9628   -6.1323    1.8892 C   0  0  1  0  0  0  0  0  0  0  0  0
    3.5451   -6.2948    1.8108 O   0  0  0  0  0  0  0  0  0  0  0  0
    2.9690   -7.3890    2.4983 C   0  0  2  0  0  0  0  0  0  0  0  0
    1.5479   -7.6432    2.0006 C   0  0  0  0  0  0  0  0  0  0  0  0
    0.6232   -6.4643    2.3320 C   0  0  0  0  0  0  0  0  0  0  0  0
    0.6770   -6.1677    3.8540 C   0  0  0  0  0  0  0  0  0  0  0  0
    2.1367   -6.0347    4.2965 C   0  0  0  0  0  0  0  0  0  0  0  0
    2.9098   -7.1663    3.9091 O   0  0  0  0  0  0  0  0  0  0  0  0
    5.5190   -5.5930    0.5934 C   0  0  1  0  0  0  0  0  0  0  0  0
    5.0062   -5.4232   -0.6993 O   0  0  0  0  0  0  0  0  0  0  0  0
    4.8653   -4.2924    0.1329 C   0  0  1  0  0  0  0  0  0  0  0  0
    5.7479   -3.1338    0.4529 C   0  0  1  0  0  0  0  0  0  0  0  0
    7.2659   -3.4136    0.6535 C   0  0  0  0  0  0  0  0  0  0  0  0
    3.6861   -4.7100    5.4851 H   0  0  0  0  0  0  0  0  0  0  0  0
    3.9167   -3.1750    6.3487 H   0  0  0  0  0  0  0  0  0  0  0  0
    5.3062   -4.0349    5.8407 H   0  0  0  0  0  0  0  0  0  0  0  0
    4.9892   -2.0903    4.4152 H   0  0  0  0  0  0  0  0  0  0  0  0
    2.1985   -2.5621    4.5659 H   0  0  0  0  0  0  0  0  0  0  0  0
    3.0046   -1.2422    3.8133 H   0  0  0  0  0  0  0  0  0  0  0  0
    2.0331   -3.7764    2.4319 H   0  0  0  0  0  0  0  0  0  0  0  0
    1.4635   -2.1654    2.2096 H   0  0  0  0  0  0  0  0  0  0  0  0
    2.1511   -1.3973    0.3185 H   0  0  0  0  0  0  0  0  0  0  0  0
    2.7123   -4.4464    0.2980 H   0  0  0  0  0  0  0  0  0  0  0  0
    3.3227   -3.8619   -1.9891 H   0  0  0  0  0  0  0  0  0  0  0  0
    2.3272   -2.5949   -1.3670 H   0  0  0  0  0  0  0  0  0  0  0  0
    4.8363   -2.3097   -2.5817 H   0  0  0  0  0  0  0  0  0  0  0  0
    4.0146   -1.0644   -1.6827 H   0  0  0  0  0  0  0  0  0  0  0  0
    6.5382   -2.0165   -1.2037 H   0  0  0  0  0  0  0  0  0  0  0  0
    6.7319   -0.2681    0.2303 H   0  0  0  0  0  0  0  0  0  0  0  0
    5.0174    0.0125    0.1052 H   0  0  0  0  0  0  0  0  0  0  0  0
    6.6378   -1.3868    2.2508 H   0  0  0  0  0  0  0  0  0  0  0  0
    4.9095   -0.6218    3.4906 H   0  0  0  0  0  0  0  0  0  0  0  0
    4.0106   -4.2340    2.7712 H   0  0  0  0  0  0  0  0  0  0  0  0
    6.5753   -5.1263    3.0170 H   0  0  0  0  0  0  0  0  0  0  0  0
    5.2231   -5.5902    3.9525 H   0  0  0  0  0  0  0  0  0  0  0  0
    5.4416   -7.1020    2.0247 H   0  0  0  0  0  0  0  0  0  0  0  0
    3.5944   -8.2693    2.3467 H   0  0  0  0  0  0  0  0  0  0  0  0
    1.5716   -7.8494    0.9260 H   0  0  0  0  0  0  0  0  0  0  0  0
    1.2002   -8.5283    2.5236 H   0  0  0  0  0  0  0  0  0  0  0  0
    0.9399   -5.5932    1.7464 H   0  0  0  0  0  0  0  0  0  0  0  0
   -0.4056   -6.6768    2.0309 H   0  0  0  0  0  0  0  0  0  0  0  0
    0.1722   -5.2268    4.0461 H   0  0  0  0  0  0  0  0  0  0  0  0
    0.1391   -6.9465    4.4067 H   0  0  0  0  0  0  0  0  0  0  0  0
    2.5566   -5.1325    3.8229 H   0  0  0  0  0  0  0  0  0  0  0  0
    2.2189   -5.8791    5.3807 H   0  0  0  0  0  0  0  0  0  0  0  0
    6.5837   -5.7730    0.5371 H   0  0  0  0  0  0  0  0  0  0  0  0
    7.4970   -3.9759    1.5525 H   0  0  0  0  0  0  0  0  0  0  0  0
    7.8238   -2.4865    0.7344 H   0  0  0  0  0  0  0  0  0  0  0  0
    7.6787   -3.9450   -0.2066 H   0  0  0  0  0  0  0  0  0  0  0  0
  1  2  1  0
  1 30  1  0
  1 31  1  0
  1 32  1  0
  2 15  1  0
  2  3  1  0
  2 33  1  1
  3  4  1  0
  3 34  1  0
  3 35  1  0
  4  5  1  0
  4 36  1  0
  4 37  1  0
 14  5  1  6
  5  6  1  6
  5  7  1  0
  6 38  1  0
  7 27  1  0
  7  8  1  0
  7 39  1  1
  8  9  1  0
  8 40  1  0
  8 41  1  0
  9 10  1  0
  9 42  1  0
  9 43  1  0
 10 28  1  0
 10 11  1  0
 10 44  1  6
 11 12  1  0
 11 45  1  0
 11 46  1  0
 12 13  1  0
 12 14  1  0
 12 47  1  1
 13 48  1  0
 14 28  1  0
 14 15  1  0
 15 16  1  0
 15 49  1  6
 16 17  1  0
 16 50  1  0
 16 51  1  0
 17 18  1  0
 17 25  1  0
 17 52  1  1
 18 19  1  0
 19 24  1  0
 19 20  1  0
 19 53  1  1
 20 21  1  0
 20 54  1  0
 20 55  1  0
 21 22  1  0
 21 56  1  0
 21 57  1  0
 22 23  1  0
 22 58  1  0
 22 59  1  0
 23 24  1  0
 23 60  1  0
 23 61  1  0
 25 27  1  0
 25 26  1  0
 25 62  1  6
 27 26  1  6
 27 28  1  0
 28 29  1  1
 29 63  1  0
 29 64  1  0
 29 65  1  0
M  END
>  <i_m_ct_stereo_status>  (206) 
1

>  <s_m_source_file>  (206) 
/var/tmp/pbs.5076255.sched01/tmpc2azvghe/701e6xuegj.sdf

>  <i_m_source_file_index>  (206) 
20

>  <i_lp_mmshare_version>  (206) 
48012

>  <i_f3d_flags>  (206) 
0

>  <s_epik_input>  (206) 
TzFbQ0gyXVtDSDJdW0NIMl1bQ0gyXVtDQEhdMU9bQ0BIXShbQ0gyXVtDQEhdMltDQEhdKFtDSDNdKVtDSDJdW0NIMl0zKVtDQEBIXShPNClDNChbQ0BIXTVbQ0BAXTMoW0NAXTI2NylbT0hdKVtDQEBdNyhbQ0gzXSlbQ0BASF0oW0NIMl1bQ0gyXTUpW0NIMl1bQ0BIXTZbT0hd

>  <s_epik_cmdline>  (206) 
J2VwaWtfcHl0aG9uJywgJy1waHQnLCAnMi4wJywgJy1waCcsICc3LjAnLCAnLXRuJywgJzgnLCAnLW1hJywgJzIwMCcsICctaW1hZScsICc8aW5maWxlLm1hZT4nLCAnLW9tYWUnLCAnPG91dGZpbGUubWFlPic=

>  <r_lp_tautomer_probability>  (206) 
1

>  <r_epik_Ionization_Penalty>  (206) 
2.51469e-06

>  <r_epik_Ionization_Penalty_Charging>  (206) 
0

>  <r_epik_Ionization_Penalty_Neutral>  (206) 
2.51469e-06

>  <r_epik_State_Penalty>  (206) 
-0

>  <r_epik_Charging_Adjusted_Penalty>  (206) 
0

>  <i_epik_Tot_Q>  (206) 
0

>  <i_epik_Tot_abs_Q>  (206) 
0

>  <s_epik_Chemistry_Notes>  (206) 
This compound contains an acetal/aminal-like group ( X-CH(R)-Y where X, Y are N, S, or O) that may be acid/base labile, releasing an aldehyde.

>  <s_lp_Force_Field>  (206) 
OPLS3e

>  <r_lp_Energy>  (206) 
151.398

>  <b_lp_Chiralities_Consistent>  (206) 
1

>  <s_lp_Variant>  (206) 
72:0-1

>  <s_i_glide_gridfile>  (206) 
pfpi4k_grid

>  <i_i_glide_lignum>  (206) 
20

>  <i_i_glide_rotatable_bonds>  (206) 
4

>  <r_i_docking_score>  (206) 
-2.83291

>  <r_i_glide_ligand_efficiency>  (206) 
-0.0976866

>  <r_i_glide_ligand_efficiency_sa>  (206) 
-0.300124

>  <r_i_glide_ligand_efficiency_ln>  (206) 
-0.648665

>  <r_i_glide_gscore>  (206) 
-2.83291

>  <r_i_glide_lipo>  (206) 
-0.701934

>  <r_i_glide_hbond>  (206) 
0

>  <r_i_glide_metal>  (206) 
-0

>  <r_i_glide_rewards>  (206) 
-0.650866

>  <r_i_glide_evdw>  (206) 
-27.9333

>  <r_i_glide_ecoul>  (206) 
-2.14564

>  <r_i_glide_erotb>  (206) 
0.240071

>  <r_i_glide_esite>  (206) 
-0.00167356

>  <r_i_glide_emodel>  (206) 
-33.5839

>  <r_i_glide_energy>  (206) 
-30.0789

>  <r_i_glide_einternal>  (206) 
1.07537

>  <r_i_glide_intrahb_reward>  (206) 
-0

>  <i_i_glide_confnum>  (206) 
3

>  <i_i_glide_posenum>  (206) 
11

>  <r_i_glide_eff_state_penalty>  (206) 
0

>  <ligand_id>  (206) 
72

>  <original_smiles>  (206) 
CC1CCC2(O)C3CCC4CC(O)C25C1CC(OC1CCCCO1)C1OC13C45C

>  <smiles>  (206) 
[H]OC1([H])C([H])([H])C2([H])C([H])([H])C([H])([H])C3([H])C45OC4([H])C([H])(OC4([H])OC([H])([H])C([H])([H])C([H])([H])C4([H])[H])C([H])([H])C4([H])C([H])(C([H])([H])[H])C([H])([H])C([H])([H])C3(O[H])C14C25C([H])([H])[H]

$$$$
73:0:0
     RDKit          3D

 65 73  0  0  1  0  0  0  0  0999 V2000
    3.1215   -1.5276    1.3193 C   0  0  0  0  0  0  0  0  0  0  0  0
    4.0034   -2.7833    1.2326 C   0  0  2  0  0  0  0  0  0  0  0  0
    4.3962   -3.1585   -0.2206 C   0  0  0  0  0  0  0  0  0  0  0  0
    4.2986   -4.6643   -0.2065 C   0  0  0  0  0  0  0  0  0  0  0  0
    3.7202   -5.1485    0.9001 C   0  0  0  0  0  0  0  0  0  0  0  0
    3.4171   -6.6116    1.1942 C   0  0  1  0  0  0  0  0  0  0  0  0
    4.2479   -7.4926    0.4087 O   0  0  0  0  0  0  0  0  0  0  0  0
    4.5503   -7.5341    1.7824 C   0  0  1  0  0  0  0  0  0  0  0  0
    5.8089   -6.8280    2.2270 C   0  0  0  0  0  0  0  0  0  0  0  0
    6.8430   -6.2028    1.5011 C   0  0  0  0  0  0  0  0  0  0  0  0
    7.6674   -5.6821    2.4666 C   0  0  0  0  0  0  0  0  0  0  0  0
    7.2343   -5.9819    3.7202 O   0  0  0  0  0  0  0  0  0  0  0  0
    6.0642   -6.6593    3.5729 C   0  0  0  0  0  0  0  0  0  0  0  0
    5.3138   -7.1707    4.7834 C   0  0  2  0  0  0  0  0  0  0  0  0
    5.8658   -8.4268    5.1968 O   0  0  0  0  0  0  0  0  0  0  0  0
    6.4455   -9.2514    4.1761 C   0  0  0  0  0  0  0  0  0  0  0  0
    5.5593   -9.7116    2.9774 C   0  0  0  0  0  0  0  0  0  0  0  0
    4.3125   -8.8918    2.5467 C   0  0  1  0  0  0  0  0  0  0  0  0
    3.3792   -8.7107    3.7874 C   0  0  1  0  0  0  0  0  0  0  0  0
    3.8284   -7.3910    4.4230 C   0  0  1  0  0  0  0  0  0  0  0  0
    2.7598   -6.9697    5.2263 O   0  0  0  0  0  0  0  0  0  0  0  0
    1.6263   -7.3272    4.6232 C   0  0  0  0  0  0  0  0  0  0  0  0
    0.5033   -6.9059    4.9431 O   0  0  0  0  0  0  0  0  0  0  0  0
    1.9164   -8.3645    3.5393 C   0  0  1  0  0  0  0  0  0  0  0  0
    1.6701   -8.3097    2.0081 C   0  0  2  0  0  0  0  0  0  0  0  0
    1.8764   -6.9667    1.3187 C   0  0  1  0  0  0  0  0  0  0  0  0
    1.0928   -5.9672    1.9384 O   0  0  0  0  0  0  0  0  0  0  0  0
    0.6939   -9.0225    2.8914 C   0  0  0  0  0  0  0  0  0  0  0  0
    0.6857  -10.5365    2.9787 C   0  0  0  0  0  0  0  0  0  0  0  0
   -0.7407   -8.5046    2.9278 C   0  0  0  0  0  0  0  0  0  0  0  0
    3.2826   -4.0205    1.8228 C   0  0  1  0  0  0  0  0  0  0  0  0
    3.6542   -4.0270    3.3343 C   0  0  0  0  0  0  0  0  0  0  0  0
    5.0276   -3.3550    3.4568 C   0  0  0  0  0  0  0  0  0  0  0  0
    5.2187   -2.5829    2.1474 C   0  0  0  0  0  0  0  0  0  0  0  0
    6.2009   -1.9077    1.8678 O   0  0  0  0  0  0  0  0  0  0  0  0
    2.1447   -1.7259    0.8796 H   0  0  0  0  0  0  0  0  0  0  0  0
    3.5784   -0.6696    0.8131 H   0  0  0  0  0  0  0  0  0  0  0  0
    2.9419   -1.2600    2.3653 H   0  0  0  0  0  0  0  0  0  0  0  0
    3.6785   -2.7574   -0.9423 H   0  0  0  0  0  0  0  0  0  0  0  0
    5.4021   -2.8438   -0.5135 H   0  0  0  0  0  0  0  0  0  0  0  0
    4.5909   -5.2599   -1.0607 H   0  0  0  0  0  0  0  0  0  0  0  0
    6.9689   -6.0870    0.4329 H   0  0  0  0  0  0  0  0  0  0  0  0
    8.5527   -5.0701    2.4334 H   0  0  0  0  0  0  0  0  0  0  0  0
    5.3953   -6.4311    5.5868 H   0  0  0  0  0  0  0  0  0  0  0  0
    7.3696   -8.8002    3.8066 H   0  0  0  0  0  0  0  0  0  0  0  0
    6.7688  -10.1449    4.7058 H   0  0  0  0  0  0  0  0  0  0  0  0
    6.2015   -9.8825    2.1120 H   0  0  0  0  0  0  0  0  0  0  0  0
    5.1807  -10.6990    3.2377 H   0  0  0  0  0  0  0  0  0  0  0  0
    3.8559   -9.5763    1.8371 H   0  0  0  0  0  0  0  0  0  0  0  0
    3.4428   -9.5607    4.4881 H   0  0  0  0  0  0  0  0  0  0  0  0
    3.6805   -6.6613    3.6635 H   0  0  0  0  0  0  0  0  0  0  0  0
    1.9953   -9.0715    1.3148 H   0  0  0  0  0  0  0  0  0  0  0  0
    1.4324   -7.0432    0.3233 H   0  0  0  0  0  0  0  0  0  0  0  0
    1.4950   -5.7896    2.7775 H   0  0  0  0  0  0  0  0  0  0  0  0
    0.0870  -10.9634    2.1759 H   0  0  0  0  0  0  0  0  0  0  0  0
    0.2874  -10.8639    3.9394 H   0  0  0  0  0  0  0  0  0  0  0  0
    1.6978  -10.9215    2.8846 H   0  0  0  0  0  0  0  0  0  0  0  0
   -1.3252   -8.9469    2.1230 H   0  0  0  0  0  0  0  0  0  0  0  0
   -0.7805   -7.4273    2.8077 H   0  0  0  0  0  0  0  0  0  0  0  0
   -1.2113   -8.7555    3.8788 H   0  0  0  0  0  0  0  0  0  0  0  0
    2.2086   -3.8562    1.6746 H   0  0  0  0  0  0  0  0  0  0  0  0
    2.9539   -3.3259    3.7960 H   0  0  0  0  0  0  0  0  0  0  0  0
    3.6069   -4.9454    3.8646 H   0  0  0  0  0  0  0  0  0  0  0  0
    5.1092   -2.7117    4.3318 H   0  0  0  0  0  0  0  0  0  0  0  0
    5.8184   -4.0956    3.5288 H   0  0  0  0  0  0  0  0  0  0  0  0
  2  1  1  6
  1 36  1  0
  1 37  1  0
  1 38  1  0
  2 31  1  0
  2 34  1  0
  2  3  1  0
  3  4  1  0
  3 39  1  0
  3 40  1  0
  4  5  2  0
  4 41  1  0
  6  5  1  6
  5 31  1  0
  6  8  1  0
  6 26  1  0
  6  7  1  0
  8  7  1  6
  8 18  1  0
  8  9  1  0
  9 13  2  0
  9 10  1  0
 10 11  2  0
 10 42  1  0
 11 12  1  0
 11 43  1  0
 12 13  1  0
 13 14  1  0
 14 20  1  0
 14 15  1  0
 14 44  1  1
 15 16  1  0
 16 17  1  0
 16 45  1  0
 16 46  1  0
 17 18  1  0
 17 47  1  0
 17 48  1  0
 18 19  1  0
 18 49  1  6
 19 24  1  0
 19 20  1  0
 19 50  1  1
 20 21  1  0
 20 51  1  6
 21 22  1  0
 22 23  2  0
 22 24  1  0
 24 28  1  1
 24 25  1  0
 25 26  1  0
 25 28  1  0
 25 52  1  6
 26 27  1  0
 26 53  1  6
 27 54  1  0
 28 29  1  0
 28 30  1  0
 29 55  1  0
 29 56  1  0
 29 57  1  0
 30 58  1  0
 30 59  1  0
 30 60  1  0
 31 32  1  0
 31 61  1  1
 32 33  1  0
 32 62  1  0
 32 63  1  0
 33 34  1  0
 33 64  1  0
 33 65  1  0
 34 35  2  0
M  END
>  <i_m_ct_stereo_status>  (207) 
1

>  <s_m_source_file>  (207) 
/var/tmp/pbs.5076255.sched01/tmpc2azvghe/701e6xuegj.sdf

>  <i_m_source_file_index>  (207) 
21

>  <i_lp_mmshare_version>  (207) 
48012

>  <i_f3d_flags>  (207) 
0

>  <s_epik_input>  (207) 
Tz1DMVtDSDJdW0NIMl1bQ0BASF0oW0NAQF0xMltDSDNdKUMoPVtDSF1bQ0gyXTIpW0NAQF0oTzMpKFtDQEBdMzQ1KVtDQEhdKFtPSF0pW0NASF02W0NAQF03KEM2KFtDSDNdKVtDSDNdKVtDQEhdOFtDQEBIXTVbQ0gyXVtDSDJdT1tDQEhdKFtDQEBIXThPQzc9TyljOWM0W2NIXVtjSF1vOQ==

>  <s_epik_cmdline>  (207) 
J2VwaWtfcHl0aG9uJywgJy1waHQnLCAnMi4wJywgJy1waCcsICc3LjAnLCAnLXRuJywgJzgnLCAnLW1hJywgJzIwMCcsICctaW1hZScsICc8aW5maWxlLm1hZT4nLCAnLW9tYWUnLCAnPG91dGZpbGUubWFlPic=

>  <r_lp_tautomer_probability>  (207) 
1

>  <r_epik_Ionization_Penalty>  (207) 
4.63212e-08

>  <r_epik_Ionization_Penalty_Charging>  (207) 
0

>  <r_epik_Ionization_Penalty_Neutral>  (207) 
4.63212e-08

>  <r_epik_State_Penalty>  (207) 
-0

>  <r_epik_Charging_Adjusted_Penalty>  (207) 
0

>  <i_epik_Tot_Q>  (207) 
0

>  <i_epik_Tot_abs_Q>  (207) 
0

>  <s_epik_Chemistry_Notes>  (207) 
This compound has an ester and may undergo hydrolysis at high or low pH.

>  <s_lp_Force_Field>  (207) 
OPLS3e

>  <r_lp_Energy>  (207) 
92.2542

>  <b_lp_Chiralities_Consistent>  (207) 
1

>  <s_lp_Variant>  (207) 
73:0-1

>  <s_i_glide_gridfile>  (207) 
pfpi4k_grid

>  <i_i_glide_lignum>  (207) 
21

>  <i_i_glide_rotatable_bonds>  (207) 
2

>  <r_i_docking_score>  (207) 
-2.60307

>  <r_i_glide_ligand_efficiency>  (207) 
-0.0743735

>  <r_i_glide_ligand_efficiency_sa>  (207) 
-0.243281

>  <r_i_glide_ligand_efficiency_ln>  (207) 
-0.571433

>  <r_i_glide_gscore>  (207) 
-2.60307

>  <r_i_glide_lipo>  (207) 
-0.398789

>  <r_i_glide_hbond>  (207) 
0

>  <r_i_glide_metal>  (207) 
-0

>  <r_i_glide_rewards>  (207) 
-0.218968

>  <r_i_glide_evdw>  (207) 
-30.2629

>  <r_i_glide_ecoul>  (207) 
-3.70845

>  <r_i_glide_erotb>  (207) 
0.0884963

>  <r_i_glide_esite>  (207) 
-0.00439992

>  <r_i_glide_emodel>  (207) 
-36.5161

>  <r_i_glide_energy>  (207) 
-33.9714

>  <r_i_glide_einternal>  (207) 
2.36004

>  <r_i_glide_intrahb_reward>  (207) 
-0

>  <i_i_glide_confnum>  (207) 
2

>  <i_i_glide_posenum>  (207) 
6

>  <r_i_glide_eff_state_penalty>  (207) 
0

>  <ligand_id>  (207) 
73

>  <original_smiles>  (207) 
CC12CC=C(C34OC35c3ccoc3C3OCCC5C5C3OC(=O)C53C(C4O)C3(C)C)C1CCC2=O

>  <smiles>  (207) 
[H]OC1([H])C2(C3=C([H])C([H])([H])C4(C([H])([H])[H])C(=O)C([H])([H])C([H])([H])C34[H])OC23c2c(oc([H])c2[H])C2([H])OC([H])([H])C([H])([H])C3([H])C3([H])C2([H])OC(=O)C32C1([H])C2(C([H])([H])[H])C([H])([H])[H]

$$$$
73:0:1
     RDKit          3D

 65 73  0  0  1  0  0  0  0  0999 V2000
   -1.1057   -9.1047    2.8233 C   0  0  0  0  0  0  0  0  0  0  0  0
    0.1476   -8.9602    3.6720 C   0  0  2  0  0  0  0  0  0  0  0  0
   -0.0936   -8.6089    5.1633 C   0  0  0  0  0  0  0  0  0  0  0  0
    0.9895   -7.6140    5.4729 C   0  0  0  0  0  0  0  0  0  0  0  0
    1.6628   -7.2055    4.3898 C   0  0  0  0  0  0  0  0  0  0  0  0
    2.7659   -6.1617    4.3352 C   0  0  1  0  0  0  0  0  0  0  0  0
    3.6776   -6.2693    5.4555 O   0  0  0  0  0  0  0  0  0  0  0  0
    4.2841   -6.6160    4.2207 C   0  0  1  0  0  0  0  0  0  0  0  0
    4.5539   -8.0803    3.9705 C   0  0  0  0  0  0  0  0  0  0  0  0
    4.4027   -9.2328    4.7506 C   0  0  0  0  0  0  0  0  0  0  0  0
    4.7527  -10.2817    3.9459 C   0  0  0  0  0  0  0  0  0  0  0  0
    5.1298   -9.8413    2.6877 O   0  0  0  0  0  0  0  0  0  0  0  0
    4.9369   -8.4925    2.6920 C   0  0  0  0  0  0  0  0  0  0  0  0
    5.2665   -7.6531    1.4649 C   0  0  2  0  0  0  0  0  0  0  0  0
    6.6856   -7.3954    1.4342 O   0  0  0  0  0  0  0  0  0  0  0  0
    7.3508   -7.3592    2.7052 C   0  0  0  0  0  0  0  0  0  0  0  0
    6.8826   -6.2997    3.7502 C   0  0  0  0  0  0  0  0  0  0  0  0
    5.4430   -5.7057    3.7176 C   0  0  1  0  0  0  0  0  0  0  0  0
    5.1559   -5.1415    2.2949 C   0  0  1  0  0  0  0  0  0  0  0  0
    4.5314   -6.2876    1.5029 C   0  0  1  0  0  0  0  0  0  0  0  0
    3.9355   -5.6835    0.3940 O   0  0  0  0  0  0  0  0  0  0  0  0
    3.4238   -4.5042    0.7817 C   0  0  0  0  0  0  0  0  0  0  0  0
    2.6190   -3.8388    0.1281 O   0  0  0  0  0  0  0  0  0  0  0  0
    4.0642   -4.0966    2.1234 C   0  0  1  0  0  0  0  0  0  0  0  0
    3.4404   -3.8079    3.5160 C   0  0  2  0  0  0  0  0  0  0  0  0
    2.2818   -4.7095    3.9449 C   0  0  1  0  0  0  0  0  0  0  0  0
    1.2788   -4.7291    2.9506 O   0  0  0  0  0  0  0  0  0  0  0  0
    3.7851   -2.6669    2.5974 C   0  0  0  0  0  0  0  0  0  0  0  0
    5.0299   -1.8230    2.8407 C   0  0  0  0  0  0  0  0  0  0  0  0
    2.6407   -1.7742    2.1262 C   0  0  0  0  0  0  0  0  0  0  0  0
    1.0599   -7.8268    3.1171 C   0  0  1  0  0  0  0  0  0  0  0  0
    1.9050   -8.5351    2.0241 C   0  0  0  0  0  0  0  0  0  0  0  0
    2.0598   -9.9699    2.4524 C   0  0  0  0  0  0  0  0  0  0  0  0
    0.9561  -10.2572    3.4343 C   0  0  0  0  0  0  0  0  0  0  0  0
    0.8229  -11.3223    4.0482 O   0  0  0  0  0  0  0  0  0  0  0  0
   -1.6059   -8.1451    2.7406 H   0  0  0  0  0  0  0  0  0  0  0  0
   -1.7617   -9.8500    3.2757 H   0  0  0  0  0  0  0  0  0  0  0  0
   -0.8493   -9.4497    1.8105 H   0  0  0  0  0  0  0  0  0  0  0  0
   -1.0757   -8.1628    5.2527 H   0  0  0  0  0  0  0  0  0  0  0  0
   -0.0293   -9.4772    5.8088 H   0  0  0  0  0  0  0  0  0  0  0  0
    1.1160   -7.2204    6.4662 H   0  0  0  0  0  0  0  0  0  0  0  0
    3.9519   -9.3459    5.7135 H   0  0  0  0  0  0  0  0  0  0  0  0
    4.6700  -11.3595    4.0178 H   0  0  0  0  0  0  0  0  0  0  0  0
    4.9603   -8.1993    0.5625 H   0  0  0  0  0  0  0  0  0  0  0  0
    7.3612   -8.3506    3.1638 H   0  0  0  0  0  0  0  0  0  0  0  0
    8.3958   -7.1801    2.4665 H   0  0  0  0  0  0  0  0  0  0  0  0
    7.0871   -6.6871    4.7488 H   0  0  0  0  0  0  0  0  0  0  0  0
    7.5632   -5.4598    3.6402 H   0  0  0  0  0  0  0  0  0  0  0  0
    5.5501   -4.8881    4.4172 H   0  0  0  0  0  0  0  0  0  0  0  0
    6.0739   -4.7879    1.8062 H   0  0  0  0  0  0  0  0  0  0  0  0
    3.6097   -6.5032    2.0115 H   0  0  0  0  0  0  0  0  0  0  0  0
    4.0202   -3.5947    4.4079 H   0  0  0  0  0  0  0  0  0  0  0  0
    1.8235   -4.2441    4.8261 H   0  0  0  0  0  0  0  0  0  0  0  0
    1.0268   -3.8353    2.7688 H   0  0  0  0  0  0  0  0  0  0  0  0
    4.8388   -1.0269    3.5599 H   0  0  0  0  0  0  0  0  0  0  0  0
    5.4003   -1.3782    1.9153 H   0  0  0  0  0  0  0  0  0  0  0  0
    5.8310   -2.4400    3.2471 H   0  0  0  0  0  0  0  0  0  0  0  0
    2.4409   -0.9843    2.8495 H   0  0  0  0  0  0  0  0  0  0  0  0
    1.7174   -2.3347    1.9993 H   0  0  0  0  0  0  0  0  0  0  0  0
    2.8725   -1.3092    1.1659 H   0  0  0  0  0  0  0  0  0  0  0  0
    0.4841   -7.0412    2.6216 H   0  0  0  0  0  0  0  0  0  0  0  0
    1.3638   -8.4735    1.0580 H   0  0  0  0  0  0  0  0  0  0  0  0
    2.8389   -8.1011    1.8299 H   0  0  0  0  0  0  0  0  0  0  0  0
    2.1460  -10.5447    1.5856 H   0  0  0  0  0  0  0  0  0  0  0  0
    2.9159  -10.1097    2.9974 H   0  0  0  0  0  0  0  0  0  0  0  0
  2  1  1  6
  1 36  1  0
  1 37  1  0
  1 38  1  0
  2 31  1  0
  2 34  1  0
  2  3  1  0
  3  4  1  0
  3 39  1  0
  3 40  1  0
  4  5  2  0
  4 41  1  0
  6  5  1  1
  5 31  1  0
  6  8  1  0
  6 26  1  0
  6  7  1  0
  8  7  1  1
  8 18  1  0
  8  9  1  0
  9 13  2  0
  9 10  1  0
 10 11  2  0
 10 42  1  0
 11 12  1  0
 11 43  1  0
 12 13  1  0
 13 14  1  0
 14 20  1  0
 14 15  1  0
 14 44  1  6
 15 16  1  0
 16 17  1  0
 16 45  1  0
 16 46  1  0
 17 18  1  0
 17 47  1  0
 17 48  1  0
 18 19  1  0
 18 49  1  1
 19 24  1  0
 19 20  1  0
 19 50  1  6
 20 21  1  0
 20 51  1  1
 21 22  1  0
 22 23  2  0
 22 24  1  0
 24 28  1  6
 24 25  1  0
 25 26  1  0
 25 28  1  0
 25 52  1  1
 26 27  1  0
 26 53  1  1
 27 54  1  0
 28 29  1  0
 28 30  1  0
 29 55  1  0
 29 56  1  0
 29 57  1  0
 30 58  1  0
 30 59  1  0
 30 60  1  0
 31 32  1  0
 31 61  1  6
 32 33  1  0
 32 62  1  0
 32 63  1  0
 33 34  1  0
 33 64  1  0
 33 65  1  0
 34 35  2  0
M  END
>  <i_m_ct_stereo_status>  (208) 
1

>  <s_m_source_file>  (208) 
/var/tmp/pbs.5076255.sched01/tmpc2azvghe/701e6xuegj.sdf

>  <i_m_source_file_index>  (208) 
21

>  <i_lp_mmshare_version>  (208) 
48012

>  <i_f3d_flags>  (208) 
0

>  <s_epik_input>  (208) 
Tz1DMVtDSDJdW0NIMl1bQ0BASF0oW0NAQF0xMltDSDNdKUMoPVtDSF1bQ0gyXTIpW0NAQF0oTzMpKFtDQEBdMzQ1KVtDQEhdKFtPSF0pW0NASF02W0NAQF03KEM2KFtDSDNdKVtDSDNdKVtDQEhdOFtDQEBIXTVbQ0gyXVtDSDJdT1tDQEhdKFtDQEBIXThPQzc9TyljOWM0W2NIXVtjSF1vOQ==

>  <s_epik_cmdline>  (208) 
J2VwaWtfcHl0aG9uJywgJy1waHQnLCAnMi4wJywgJy1waCcsICc3LjAnLCAnLXRuJywgJzgnLCAnLW1hJywgJzIwMCcsICctaW1hZScsICc8aW5maWxlLm1hZT4nLCAnLW9tYWUnLCAnPG91dGZpbGUubWFlPic=

>  <r_lp_tautomer_probability>  (208) 
1

>  <r_epik_Ionization_Penalty>  (208) 
4.63212e-08

>  <r_epik_Ionization_Penalty_Charging>  (208) 
0

>  <r_epik_Ionization_Penalty_Neutral>  (208) 
4.63212e-08

>  <r_epik_State_Penalty>  (208) 
-0

>  <r_epik_Charging_Adjusted_Penalty>  (208) 
0

>  <i_epik_Tot_Q>  (208) 
0

>  <i_epik_Tot_abs_Q>  (208) 
0

>  <s_epik_Chemistry_Notes>  (208) 
This compound has an ester and may undergo hydrolysis at high or low pH.

>  <s_lp_Force_Field>  (208) 
OPLS3e

>  <r_lp_Energy>  (208) 
92.2542

>  <b_lp_Chiralities_Consistent>  (208) 
1

>  <s_lp_Variant>  (208) 
73:0-1

>  <s_i_glide_gridfile>  (208) 
pfpi4k_grid

>  <i_i_glide_lignum>  (208) 
21

>  <i_i_glide_rotatable_bonds>  (208) 
2

>  <r_i_docking_score>  (208) 
-2.02669

>  <r_i_glide_ligand_efficiency>  (208) 
-0.0579055

>  <r_i_glide_ligand_efficiency_sa>  (208) 
-0.189413

>  <r_i_glide_ligand_efficiency_ln>  (208) 
-0.444904

>  <r_i_glide_gscore>  (208) 
-2.02669

>  <r_i_glide_lipo>  (208) 
-0.317238

>  <r_i_glide_hbond>  (208) 
0

>  <r_i_glide_metal>  (208) 
-0

>  <r_i_glide_rewards>  (208) 
-0.241902

>  <r_i_glide_evdw>  (208) 
-30.7962

>  <r_i_glide_ecoul>  (208) 
-1.251

>  <r_i_glide_erotb>  (208) 
0.0884963

>  <r_i_glide_esite>  (208) 
-0.0037206

>  <r_i_glide_emodel>  (208) 
-31.8521

>  <r_i_glide_energy>  (208) 
-32.0472

>  <r_i_glide_einternal>  (208) 
0.780269

>  <r_i_glide_intrahb_reward>  (208) 
-0

>  <i_i_glide_confnum>  (208) 
2

>  <i_i_glide_posenum>  (208) 
9

>  <r_i_glide_eff_state_penalty>  (208) 
0

>  <ligand_id>  (208) 
73

>  <original_smiles>  (208) 
CC12CC=C(C34OC35c3ccoc3C3OCCC5C5C3OC(=O)C53C(C4O)C3(C)C)C1CCC2=O

>  <smiles>  (208) 
[H]OC1([H])C2(C3=C([H])C([H])([H])C4(C([H])([H])[H])C(=O)C([H])([H])C([H])([H])C34[H])OC23c2c(oc([H])c2[H])C2([H])OC([H])([H])C([H])([H])C3([H])C3([H])C2([H])OC(=O)C32C1([H])C2(C([H])([H])[H])C([H])([H])[H]

$$$$
73:0:2
     RDKit          3D

 65 73  0  0  1  0  0  0  0  0999 V2000
    2.2559   -1.4659    2.0125 C   0  0  0  0  0  0  0  0  0  0  0  0
    2.8623   -2.1440    3.2322 C   0  0  2  0  0  0  0  0  0  0  0  0
    4.3865   -2.4645    3.0884 C   0  0  0  0  0  0  0  0  0  0  0  0
    4.5118   -3.8260    3.7280 C   0  0  0  0  0  0  0  0  0  0  0  0
    3.3293   -4.3917    4.0160 C   0  0  0  0  0  0  0  0  0  0  0  0
    3.0933   -5.7706    4.5927 C   0  0  1  0  0  0  0  0  0  0  0  0
    4.1113   -6.1172    5.5872 O   0  0  0  0  0  0  0  0  0  0  0  0
    2.8075   -5.9532    6.1504 C   0  0  1  0  0  0  0  0  0  0  0  0
    2.5508   -4.6971    6.9449 C   0  0  0  0  0  0  0  0  0  0  0  0
    3.4352   -3.6177    7.3295 C   0  0  0  0  0  0  0  0  0  0  0  0
    2.5874   -2.7682    7.9859 C   0  0  0  0  0  0  0  0  0  0  0  0
    1.3156   -3.1889    8.0304 O   0  0  0  0  0  0  0  0  0  0  0  0
    1.2844   -4.3871    7.3206 C   0  0  0  0  0  0  0  0  0  0  0  0
    0.0034   -5.1637    7.1755 C   0  0  2  0  0  0  0  0  0  0  0  0
   -0.2272   -5.9434    8.3604 O   0  0  0  0  0  0  0  0  0  0  0  0
    0.9436   -6.3411    9.0828 C   0  0  0  0  0  0  0  0  0  0  0  0
    2.0024   -7.2185    8.3454 C   0  0  0  0  0  0  0  0  0  0  0  0
    2.1320   -7.1958    6.7928 C   0  0  1  0  0  0  0  0  0  0  0  0
    0.7322   -7.5019    6.1602 C   0  0  1  0  0  0  0  0  0  0  0  0
    0.0794   -6.1343    5.9678 C   0  0  1  0  0  0  0  0  0  0  0  0
   -0.9567   -6.3516    5.0570 O   0  0  0  0  0  0  0  0  0  0  0  0
   -0.5496   -7.2697    4.1598 C   0  0  0  0  0  0  0  0  0  0  0  0
   -1.1043   -7.4878    3.0837 O   0  0  0  0  0  0  0  0  0  0  0  0
    0.6736   -8.0095    4.7314 C   0  0  1  0  0  0  0  0  0  0  0  0
    2.1276   -8.1277    4.1876 C   0  0  2  0  0  0  0  0  0  0  0  0
    2.7360   -6.8907    3.5407 C   0  0  1  0  0  0  0  0  0  0  0  0
    1.8895   -6.4061    2.4988 O   0  0  0  0  0  0  0  0  0  0  0  0
    1.1439   -9.2434    3.9464 C   0  0  0  0  0  0  0  0  0  0  0  0
    1.2013  -10.5178    4.7726 C   0  0  0  0  0  0  0  0  0  0  0  0
    0.7965   -9.5681    2.5054 C   0  0  0  0  0  0  0  0  0  0  0  0
    2.1634   -3.4974    3.5234 C   0  0  1  0  0  0  0  0  0  0  0  0
    0.9434   -3.0961    4.4182 C   0  0  0  0  0  0  0  0  0  0  0  0
    1.3309   -1.8265    5.1994 C   0  0  0  0  0  0  0  0  0  0  0  0
    2.5083   -1.2515    4.4448 C   0  0  0  0  0  0  0  0  0  0  0  0
    3.1879   -0.2787    4.7973 O   0  0  0  0  0  0  0  0  0  0  0  0
    2.2478   -2.1449    1.1562 H   0  0  0  0  0  0  0  0  0  0  0  0
    2.8031   -0.5490    1.7586 H   0  0  0  0  0  0  0  0  0  0  0  0
    1.2168   -1.1916    2.2233 H   0  0  0  0  0  0  0  0  0  0  0  0
    4.6691   -2.5297    2.0281 H   0  0  0  0  0  0  0  0  0  0  0  0
    5.0401   -1.7474    3.5897 H   0  0  0  0  0  0  0  0  0  0  0  0
    5.4715   -4.3180    3.8558 H   0  0  0  0  0  0  0  0  0  0  0  0
    4.4371   -3.4581    7.0962 H   0  0  0  0  0  0  0  0  0  0  0  0
    2.7417   -1.7557    8.3962 H   0  0  0  0  0  0  0  0  0  0  0  0
   -0.8296   -4.4690    7.0144 H   0  0  0  0  0  0  0  0  0  0  0  0
    1.4314   -5.4767    9.5369 H   0  0  0  0  0  0  0  0  0  0  0  0
    0.5707   -6.9014    9.9413 H   0  0  0  0  0  0  0  0  0  0  0  0
    2.9825   -7.0258    8.7861 H   0  0  0  0  0  0  0  0  0  0  0  0
    1.7738   -8.2460    8.6088 H   0  0  0  0  0  0  0  0  0  0  0  0
    2.8004   -8.0426    6.6321 H   0  0  0  0  0  0  0  0  0  0  0  0
    0.1322   -8.1567    6.8089 H   0  0  0  0  0  0  0  0  0  0  0  0
    0.7252   -5.5945    5.2825 H   0  0  0  0  0  0  0  0  0  0  0  0
    2.9359   -8.6229    4.7285 H   0  0  0  0  0  0  0  0  0  0  0  0
    3.6571   -7.2080    3.0367 H   0  0  0  0  0  0  0  0  0  0  0  0
    1.0730   -6.1850    2.8847 H   0  0  0  0  0  0  0  0  0  0  0  0
    1.9025  -11.2323    4.3467 H   0  0  0  0  0  0  0  0  0  0  0  0
    0.2301  -10.9941    4.8217 H   0  0  0  0  0  0  0  0  0  0  0  0
    1.5051  -10.3081    5.7990 H   0  0  0  0  0  0  0  0  0  0  0  0
    1.5172  -10.2691    2.0935 H   0  0  0  0  0  0  0  0  0  0  0  0
    0.8150   -8.6790    1.8777 H   0  0  0  0  0  0  0  0  0  0  0  0
   -0.1981  -10.0097    2.4378 H   0  0  0  0  0  0  0  0  0  0  0  0
    1.8061   -3.9462    2.5959 H   0  0  0  0  0  0  0  0  0  0  0  0
    0.1095   -2.8843    3.7308 H   0  0  0  0  0  0  0  0  0  0  0  0
    0.6331   -3.8510    5.0810 H   0  0  0  0  0  0  0  0  0  0  0  0
    0.4933   -1.1273    5.3357 H   0  0  0  0  0  0  0  0  0  0  0  0
    1.7450   -2.1093    6.1463 H   0  0  0  0  0  0  0  0  0  0  0  0
  2  1  1  6
  1 36  1  0
  1 37  1  0
  1 38  1  0
  2 31  1  0
  2 34  1  0
  2  3  1  0
  3  4  1  0
  3 39  1  0
  3 40  1  0
  4  5  2  0
  4 41  1  0
  6  5  1  6
  5 31  1  0
  6  8  1  0
  6 26  1  0
  6  7  1  0
  8  7  1  1
  8 18  1  0
  8  9  1  0
  9 13  2  0
  9 10  1  0
 10 11  2  0
 10 42  1  0
 11 12  1  0
 11 43  1  0
 12 13  1  0
 13 14  1  0
 14 20  1  0
 14 15  1  0
 14 44  1  6
 15 16  1  0
 16 17  1  0
 16 45  1  0
 16 46  1  0
 17 18  1  0
 17 47  1  0
 17 48  1  0
 18 19  1  0
 18 49  1  1
 19 24  1  0
 19 20  1  0
 19 50  1  1
 20 21  1  0
 20 51  1  6
 21 22  1  0
 22 23  2  0
 22 24  1  0
 24 28  1  1
 24 25  1  0
 25 26  1  0
 25 28  1  0
 25 52  1  1
 26 27  1  0
 26 53  1  6
 27 54  1  0
 28 29  1  0
 28 30  1  0
 29 55  1  0
 29 56  1  0
 29 57  1  0
 30 58  1  0
 30 59  1  0
 30 60  1  0
 31 32  1  0
 31 61  1  6
 32 33  1  0
 32 62  1  0
 32 63  1  0
 33 34  1  0
 33 64  1  0
 33 65  1  0
 34 35  2  0
M  END
>  <i_m_ct_stereo_status>  (209) 
1

>  <s_m_source_file>  (209) 
/var/tmp/pbs.5076255.sched01/tmpc2azvghe/701e6xuegj.sdf

>  <i_m_source_file_index>  (209) 
21

>  <i_lp_mmshare_version>  (209) 
48012

>  <i_f3d_flags>  (209) 
0

>  <s_epik_input>  (209) 
Tz1DMVtDSDJdW0NIMl1bQ0BASF0oW0NAQF0xMltDSDNdKUMoPVtDSF1bQ0gyXTIpW0NAQF0oTzMpKFtDQEBdMzQ1KVtDQEhdKFtPSF0pW0NASF02W0NAQF03KEM2KFtDSDNdKVtDSDNdKVtDQEhdOFtDQEBIXTVbQ0gyXVtDSDJdT1tDQEhdKFtDQEBIXThPQzc9TyljOWM0W2NIXVtjSF1vOQ==

>  <s_epik_cmdline>  (209) 
J2VwaWtfcHl0aG9uJywgJy1waHQnLCAnMi4wJywgJy1waCcsICc3LjAnLCAnLXRuJywgJzgnLCAnLW1hJywgJzIwMCcsICctaW1hZScsICc8aW5maWxlLm1hZT4nLCAnLW9tYWUnLCAnPG91dGZpbGUubWFlPic=

>  <r_lp_tautomer_probability>  (209) 
1

>  <r_epik_Ionization_Penalty>  (209) 
4.63212e-08

>  <r_epik_Ionization_Penalty_Charging>  (209) 
0

>  <r_epik_Ionization_Penalty_Neutral>  (209) 
4.63212e-08

>  <r_epik_State_Penalty>  (209) 
-0

>  <r_epik_Charging_Adjusted_Penalty>  (209) 
0

>  <i_epik_Tot_Q>  (209) 
0

>  <i_epik_Tot_abs_Q>  (209) 
0

>  <s_epik_Chemistry_Notes>  (209) 
This compound has an ester and may undergo hydrolysis at high or low pH.

>  <s_lp_Force_Field>  (209) 
OPLS3e

>  <r_lp_Energy>  (209) 
92.2542

>  <b_lp_Chiralities_Consistent>  (209) 
1

>  <s_lp_Variant>  (209) 
73:0-1

>  <s_i_glide_gridfile>  (209) 
pfpi4k_grid

>  <i_i_glide_lignum>  (209) 
21

>  <i_i_glide_rotatable_bonds>  (209) 
2

>  <r_i_docking_score>  (209) 
-1.91556

>  <r_i_glide_ligand_efficiency>  (209) 
-0.0547302

>  <r_i_glide_ligand_efficiency_sa>  (209) 
-0.179026

>  <r_i_glide_ligand_efficiency_ln>  (209) 
-0.420507

>  <r_i_glide_gscore>  (209) 
-1.91556

>  <r_i_glide_lipo>  (209) 
-0.108355

>  <r_i_glide_hbond>  (209) 
-0.012503

>  <r_i_glide_metal>  (209) 
-0

>  <r_i_glide_rewards>  (209) 
-0.146362

>  <r_i_glide_evdw>  (209) 
-25.7859

>  <r_i_glide_ecoul>  (209) 
-2.67571

>  <r_i_glide_erotb>  (209) 
0.0884963

>  <r_i_glide_esite>  (209) 
-0.0461817

>  <r_i_glide_emodel>  (209) 
-29.4866

>  <r_i_glide_energy>  (209) 
-28.4616

>  <r_i_glide_einternal>  (209) 
0.418782

>  <r_i_glide_intrahb_reward>  (209) 
-0

>  <i_i_glide_confnum>  (209) 
2

>  <i_i_glide_posenum>  (209) 
7

>  <r_i_glide_eff_state_penalty>  (209) 
0

>  <ligand_id>  (209) 
73

>  <original_smiles>  (209) 
CC12CC=C(C34OC35c3ccoc3C3OCCC5C5C3OC(=O)C53C(C4O)C3(C)C)C1CCC2=O

>  <smiles>  (209) 
[H]OC1([H])C2(C3=C([H])C([H])([H])C4(C([H])([H])[H])C(=O)C([H])([H])C([H])([H])C34[H])OC23c2c(oc([H])c2[H])C2([H])OC([H])([H])C([H])([H])C3([H])C3([H])C2([H])OC(=O)C32C1([H])C2(C([H])([H])[H])C([H])([H])[H]

$$$$
74:0:0
     RDKit          3D

 47 52  0  0  1  0  0  0  0  0999 V2000
    8.7972   -1.5494    0.4076 C   0  0  0  0  0  0  0  0  0  0  0  0
    7.4259   -1.3127    0.6541 O   0  0  0  0  0  0  0  0  0  0  0  0
    6.6090   -2.3059    0.1133 C   0  0  1  0  0  0  0  0  0  0  0  0
    6.6409   -2.3457   -1.3328 O   0  0  0  0  0  0  0  0  0  0  0  0
    5.4365   -2.3830   -2.2133 C   0  0  1  0  0  0  0  0  0  0  0  0
    5.5597   -3.9090   -2.2745 C   0  0  0  0  0  0  0  0  0  0  0  0
    5.3630   -4.5941   -0.8861 C   0  0  1  0  0  0  0  0  0  0  0  0
    6.5151   -4.6554    0.1755 C   0  0  0  0  0  0  0  0  0  0  0  0
    6.2023   -3.5061    1.1779 C   0  0  2  0  0  0  0  0  0  0  0  0
    4.4876   -3.4046    1.8253 C   0  0  1  0  0  0  0  0  0  0  0  0
    3.3081   -2.1407    1.3460 C   0  0  0  0  0  0  0  0  0  0  0  0
    3.5090   -1.2369   -0.1988 C   0  0  1  0  0  0  0  0  0  0  0  0
    4.7917   -0.6089    0.0464 C   0  0  0  0  0  0  0  0  0  0  0  0
    5.3030   -2.0329    0.1644 C   0  0  1  0  0  0  0  0  0  0  0  0
    4.3246   -3.6990   -0.2338 C   0  0  1  0  0  0  0  0  0  0  0  0
    3.0446   -4.0440   -1.1042 C   0  0  0  0  0  0  0  0  0  0  0  0
    1.8353   -3.4695   -0.7791 O   0  0  0  0  0  0  0  0  0  0  0  0
    3.8479   -4.4353    1.0732 C   0  0  1  0  0  0  0  0  0  0  0  0
    4.2751   -5.7497    1.4117 O   0  0  0  0  0  0  0  0  0  0  0  0
    3.9730   -1.5807   -1.8323 C   0  0  0  0  0  0  0  0  0  0  0  0
    4.0781   -0.3449   -2.6259 O   0  0  0  0  0  0  0  0  0  0  0  0
    2.7030   -0.4629   -3.0409 C   0  0  0  0  0  0  0  0  0  0  0  0
    2.8931   -1.8697   -2.7771 O   0  0  0  0  0  0  0  0  0  0  0  0
    9.3702   -0.7587    0.8670 H   0  0  0  0  0  0  0  0  0  0  0  0
    9.0062   -1.5105   -0.6542 H   0  0  0  0  0  0  0  0  0  0  0  0
    9.1594   -2.4979    0.8003 H   0  0  0  0  0  0  0  0  0  0  0  0
    5.7043   -2.0921   -3.2149 H   0  0  0  0  0  0  0  0  0  0  0  0
    4.9118   -4.3508   -3.0262 H   0  0  0  0  0  0  0  0  0  0  0  0
    6.5378   -4.0957   -2.6716 H   0  0  0  0  0  0  0  0  0  0  0  0
    5.0029   -5.6112   -1.0650 H   0  0  0  0  0  0  0  0  0  0  0  0
    6.5407   -5.6102    0.6933 H   0  0  0  0  0  0  0  0  0  0  0  0
    7.5052   -4.5600   -0.2646 H   0  0  0  0  0  0  0  0  0  0  0  0
    6.9183   -3.5170    1.9919 H   0  0  0  0  0  0  0  0  0  0  0  0
    4.4412   -3.6041    2.8875 H   0  0  0  0  0  0  0  0  0  0  0  0
    2.2730   -2.4754    1.4502 H   0  0  0  0  0  0  0  0  0  0  0  0
    3.3417   -1.3764    2.1371 H   0  0  0  0  0  0  0  0  0  0  0  0
    2.7355   -0.4745   -0.1461 H   0  0  0  0  0  0  0  0  0  0  0  0
    5.3032   -0.0921   -0.7463 H   0  0  0  0  0  0  0  0  0  0  0  0
    4.7371    0.0523    0.9394 H   0  0  0  0  0  0  0  0  0  0  0  0
    5.4649   -1.5819    1.1816 H   0  0  0  0  0  0  0  0  0  0  0  0
    3.1385   -4.0586   -2.1720 H   0  0  0  0  0  0  0  0  0  0  0  0
    2.8376   -5.0637   -0.8363 H   0  0  0  0  0  0  0  0  0  0  0  0
    1.7878   -2.5588   -1.0049 H   0  0  0  0  0  0  0  0  0  0  0  0
    2.7743   -4.4655    1.2616 H   0  0  0  0  0  0  0  0  0  0  0  0
    3.9442   -6.3621    0.7721 H   0  0  0  0  0  0  0  0  0  0  0  0
    2.0018    0.0366   -2.3707 H   0  0  0  0  0  0  0  0  0  0  0  0
    2.5288   -0.2320   -4.0915 H   0  0  0  0  0  0  0  0  0  0  0  0
  1  2  1  0
  1 24  1  0
  1 25  1  0
  1 26  1  0
  3  2  1  1
  3  9  1  0
  3 14  1  0
  3  4  1  0
  4  5  1  0
  5 20  1  0
  5  6  1  0
  5 27  1  6
  6  7  1  0
  6 28  1  0
  6 29  1  0
  7 15  1  0
  7  8  1  0
  7 30  1  6
  8  9  1  0
  8 31  1  0
  8 32  1  0
  9 10  1  0
  9 33  1  1
 10 18  1  0
 10 11  1  0
 10 34  1  1
 11 12  1  0
 11 35  1  0
 11 36  1  0
 12 13  1  0
 12 20  1  0
 12 37  1  6
 13 14  1  0
 13 38  1  0
 13 39  1  0
 14 15  1  0
 14 40  1  1
 15 16  1  6
 15 18  1  0
 16 17  1  0
 16 41  1  0
 16 42  1  0
 17 43  1  0
 18 19  1  0
 18 44  1  6
 19 45  1  0
 20 23  1  0
 20 21  1  0
 21 22  1  0
 22 23  1  0
 22 46  1  0
 22 47  1  0
M  END
>  <i_m_ct_stereo_status>  (210) 
1

>  <s_m_source_file>  (210) 
/var/tmp/pbs.5076255.sched01/tmpc2azvghe/701e6xuegj.sdf

>  <i_m_source_file_index>  (210) 
22

>  <i_lp_mmshare_version>  (210) 
48012

>  <i_f3d_flags>  (210) 
0

>  <s_epik_input>  (210) 
TzFbQ0gyXU9DMTJbQ0BIXTNPW0NAXTQoT1tDSDNdKVtDQEhdNVtDQEhdNltDSDJdW0NASF0yW0NIMl1bQ0BIXTRbQ0BdKFtDQEBIXShbQ0gyXTMpW0NIMl01KShbQ0gyXVtPSF0pW0NASF02W09IXQ==

>  <s_epik_cmdline>  (210) 
J2VwaWtfcHl0aG9uJywgJy1waHQnLCAnMi4wJywgJy1waCcsICc3LjAnLCAnLXRuJywgJzgnLCAnLW1hJywgJzIwMCcsICctaW1hZScsICc8aW5maWxlLm1hZT4nLCAnLW9tYWUnLCAnPG91dGZpbGUubWFlPic=

>  <r_lp_tautomer_probability>  (210) 
1

>  <r_epik_Ionization_Penalty>  (210) 
2.51989e-07

>  <r_epik_Ionization_Penalty_Charging>  (210) 
0

>  <r_epik_Ionization_Penalty_Neutral>  (210) 
2.51989e-07

>  <r_epik_State_Penalty>  (210) 
-0

>  <r_epik_Charging_Adjusted_Penalty>  (210) 
0

>  <i_epik_Tot_Q>  (210) 
0

>  <i_epik_Tot_abs_Q>  (210) 
0

>  <s_epik_Chemistry_Notes>  (210) 
This compound contains an acetal/aminal-like group ( X-CH(R)-Y where X, Y are N, S, or O) that may be acid/base labile, releasing an aldehyde.

>  <s_lp_Force_Field>  (210) 
OPLS3e

>  <r_lp_Energy>  (210) 
571.464

>  <b_lp_Chiralities_Consistent>  (210) 
1

>  <s_lp_Variant>  (210) 
74:0-1

>  <s_i_glide_gridfile>  (210) 
pfpi4k_grid

>  <i_i_glide_lignum>  (210) 
22

>  <i_i_glide_rotatable_bonds>  (210) 
4

>  <r_i_docking_score>  (210) 
-2.88516

>  <r_i_glide_ligand_efficiency>  (210) 
-0.125442

>  <r_i_glide_ligand_efficiency_sa>  (210) 
-0.35674

>  <r_i_glide_ligand_efficiency_ln>  (210) 
-0.697658

>  <r_i_glide_gscore>  (210) 
-2.88516

>  <r_i_glide_lipo>  (210) 
-0.367505

>  <r_i_glide_hbond>  (210) 
-0.136011

>  <r_i_glide_metal>  (210) 
-0

>  <r_i_glide_rewards>  (210) 
-1.23718

>  <r_i_glide_evdw>  (210) 
-7.0074

>  <r_i_glide_ecoul>  (210) 
-6.12768

>  <r_i_glide_erotb>  (210) 
0.177985

>  <r_i_glide_esite>  (210) 
-0.0529289

>  <r_i_glide_emodel>  (210) 
-14.405

>  <r_i_glide_energy>  (210) 
-13.1351

>  <r_i_glide_einternal>  (210) 
2.415

>  <r_i_glide_intrahb_reward>  (210) 
-0

>  <i_i_glide_confnum>  (210) 
4

>  <i_i_glide_posenum>  (210) 
17

>  <r_i_glide_eff_state_penalty>  (210) 
0

>  <ligand_id>  (210) 
74

>  <original_smiles>  (210) 
COC12OC3CC4CC1C1CC(CC2C4(CO)C1O)C31OCO1

>  <smiles>  (210) 
[H]OC([H])([H])C12C([H])(O[H])C3([H])C([H])([H])C4([H])C([H])([H])C1([H])C1(OC([H])([H])[H])OC([H])(C([H])([H])C2([H])C([H])([H])C13[H])C41OC([H])([H])O1

$$$$
74:0:1
     RDKit          3D

 47 52  0  0  1  0  0  0  0  0999 V2000
    3.0312   -1.4775   -3.5929 C   0  0  0  0  0  0  0  0  0  0  0  0
    3.0156   -1.3561   -2.1816 O   0  0  0  0  0  0  0  0  0  0  0  0
    4.0132   -2.1087   -1.5419 C   0  0  1  0  0  0  0  0  0  0  0  0
    3.8014   -3.5299   -1.5825 O   0  0  0  0  0  0  0  0  0  0  0  0
    3.8999   -4.4546   -0.3890 C   0  0  1  0  0  0  0  0  0  0  0  0
    5.3553   -4.7719   -0.8181 C   0  0  0  0  0  0  0  0  0  0  0  0
    6.2906   -3.5398   -0.7514 C   0  0  1  0  0  0  0  0  0  0  0  0
    6.3148   -2.4889   -1.9022 C   0  0  0  0  0  0  0  0  0  0  0  0
    5.4350   -1.3018   -1.3846 C   0  0  2  0  0  0  0  0  0  0  0  0
    5.7807   -0.6734    0.3114 C   0  0  1  0  0  0  0  0  0  0  0  0
    4.6986   -0.9547    1.7249 C   0  0  0  0  0  0  0  0  0  0  0  0
    3.5198   -2.3270    1.7181 C   0  0  1  0  0  0  0  0  0  0  0  0
    2.7070   -1.9565    0.6003 C   0  0  0  0  0  0  0  0  0  0  0  0
    4.0007   -2.0695   -0.1927 C   0  0  1  0  0  0  0  0  0  0  0  0
    5.7416   -2.7698    0.4405 C   0  0  1  0  0  0  0  0  0  0  0  0
    6.1940   -3.6875    1.6879 C   0  0  0  0  0  0  0  0  0  0  0  0
    5.7816   -3.3027    2.9990 O   0  0  0  0  0  0  0  0  0  0  0  0
    6.7643   -1.6203    0.7378 C   0  0  1  0  0  0  0  0  0  0  0  0
    8.0242   -1.5057    0.0954 O   0  0  0  0  0  0  0  0  0  0  0  0
    3.4999   -3.9905    1.2215 C   0  0  0  0  0  0  0  0  0  0  0  0
    2.1614   -4.5388    1.4178 O   0  0  0  0  0  0  0  0  0  0  0  0
    2.6911   -5.7100    2.0465 C   0  0  0  0  0  0  0  0  0  0  0  0
    3.8433   -4.9151    2.3066 O   0  0  0  0  0  0  0  0  0  0  0  0
    2.2342   -0.8778   -4.0296 H   0  0  0  0  0  0  0  0  0  0  0  0
    2.8710   -2.5093   -3.9051 H   0  0  0  0  0  0  0  0  0  0  0  0
    3.9674   -1.1204   -4.0203 H   0  0  0  0  0  0  0  0  0  0  0  0
    3.3234   -5.3396   -0.6043 H   0  0  0  0  0  0  0  0  0  0  0  0
    5.7495   -5.6262   -0.2698 H   0  0  0  0  0  0  0  0  0  0  0  0
    5.3096   -5.1171   -1.8475 H   0  0  0  0  0  0  0  0  0  0  0  0
    7.3070   -3.9066   -0.6271 H   0  0  0  0  0  0  0  0  0  0  0  0
    7.3288   -2.1694   -2.1286 H   0  0  0  0  0  0  0  0  0  0  0  0
    5.9565   -2.8887   -2.8521 H   0  0  0  0  0  0  0  0  0  0  0  0
    5.4308   -0.4862   -2.0934 H   0  0  0  0  0  0  0  0  0  0  0  0
    6.1896    0.3218    0.3230 H   0  0  0  0  0  0  0  0  0  0  0  0
    5.2536   -0.9286    2.6530 H   0  0  0  0  0  0  0  0  0  0  0  0
    4.1164   -0.0456    1.8494 H   0  0  0  0  0  0  0  0  0  0  0  0
    2.9500   -2.2400    2.6361 H   0  0  0  0  0  0  0  0  0  0  0  0
    1.9274   -2.6317    0.2390 H   0  0  0  0  0  0  0  0  0  0  0  0
    2.2539   -0.9749    0.8148 H   0  0  0  0  0  0  0  0  0  0  0  0
    3.7097   -0.9855   -0.2811 H   0  0  0  0  0  0  0  0  0  0  0  0
    5.9856   -4.7406    1.5943 H   0  0  0  0  0  0  0  0  0  0  0  0
    7.2809   -3.7654    1.6862 H   0  0  0  0  0  0  0  0  0  0  0  0
    4.8418   -3.3057    3.0253 H   0  0  0  0  0  0  0  0  0  0  0  0
    7.0099   -1.4497    1.7873 H   0  0  0  0  0  0  0  0  0  0  0  0
    8.6089   -2.1724    0.4142 H   0  0  0  0  0  0  0  0  0  0  0  0
    2.1345   -6.0135    2.9452 H   0  0  0  0  0  0  0  0  0  0  0  0
    2.9357   -6.5103    1.3454 H   0  0  0  0  0  0  0  0  0  0  0  0
  1  2  1  0
  1 24  1  0
  1 25  1  0
  1 26  1  0
  3  2  1  6
  3  9  1  0
  3 14  1  0
  3  4  1  0
  4  5  1  0
  5 20  1  0
  5  6  1  0
  5 27  1  6
  6  7  1  0
  6 28  1  0
  6 29  1  0
  7 15  1  0
  7  8  1  0
  7 30  1  1
  8  9  1  0
  8 31  1  0
  8 32  1  0
  9 10  1  0
  9 33  1  6
 10 18  1  0
 10 11  1  0
 10 34  1  6
 11 12  1  0
 11 35  1  0
 11 36  1  0
 12 13  1  0
 12 20  1  0
 12 37  1  1
 13 14  1  0
 13 38  1  0
 13 39  1  0
 14 15  1  0
 14 40  1  6
 15 16  1  1
 15 18  1  0
 16 17  1  0
 16 41  1  0
 16 42  1  0
 17 43  1  0
 18 19  1  0
 18 44  1  1
 19 45  1  0
 20 23  1  0
 20 21  1  0
 21 22  1  0
 22 23  1  0
 22 46  1  0
 22 47  1  0
M  END
>  <i_m_ct_stereo_status>  (211) 
1

>  <s_m_source_file>  (211) 
/var/tmp/pbs.5076255.sched01/tmpc2azvghe/701e6xuegj.sdf

>  <i_m_source_file_index>  (211) 
22

>  <i_lp_mmshare_version>  (211) 
48012

>  <i_f3d_flags>  (211) 
0

>  <s_epik_input>  (211) 
TzFbQ0gyXU9DMTJbQ0BIXTNPW0NAXTQoT1tDSDNdKVtDQEhdNVtDQEhdNltDSDJdW0NASF0yW0NIMl1bQ0BIXTRbQ0BdKFtDQEBIXShbQ0gyXTMpW0NIMl01KShbQ0gyXVtPSF0pW0NASF02W09IXQ==

>  <s_epik_cmdline>  (211) 
J2VwaWtfcHl0aG9uJywgJy1waHQnLCAnMi4wJywgJy1waCcsICc3LjAnLCAnLXRuJywgJzgnLCAnLW1hJywgJzIwMCcsICctaW1hZScsICc8aW5maWxlLm1hZT4nLCAnLW9tYWUnLCAnPG91dGZpbGUubWFlPic=

>  <r_lp_tautomer_probability>  (211) 
1

>  <r_epik_Ionization_Penalty>  (211) 
2.51989e-07

>  <r_epik_Ionization_Penalty_Charging>  (211) 
0

>  <r_epik_Ionization_Penalty_Neutral>  (211) 
2.51989e-07

>  <r_epik_State_Penalty>  (211) 
-0

>  <r_epik_Charging_Adjusted_Penalty>  (211) 
0

>  <i_epik_Tot_Q>  (211) 
0

>  <i_epik_Tot_abs_Q>  (211) 
0

>  <s_epik_Chemistry_Notes>  (211) 
This compound contains an acetal/aminal-like group ( X-CH(R)-Y where X, Y are N, S, or O) that may be acid/base labile, releasing an aldehyde.

>  <s_lp_Force_Field>  (211) 
OPLS3e

>  <r_lp_Energy>  (211) 
571.464

>  <b_lp_Chiralities_Consistent>  (211) 
1

>  <s_lp_Variant>  (211) 
74:0-1

>  <s_i_glide_gridfile>  (211) 
pfpi4k_grid

>  <i_i_glide_lignum>  (211) 
22

>  <i_i_glide_rotatable_bonds>  (211) 
4

>  <r_i_docking_score>  (211) 
-2.54509

>  <r_i_glide_ligand_efficiency>  (211) 
-0.110656

>  <r_i_glide_ligand_efficiency_sa>  (211) 
-0.314691

>  <r_i_glide_ligand_efficiency_ln>  (211) 
-0.615425

>  <r_i_glide_gscore>  (211) 
-2.54509

>  <r_i_glide_lipo>  (211) 
-0.61972

>  <r_i_glide_hbond>  (211) 
-0.0905855

>  <r_i_glide_metal>  (211) 
-0

>  <r_i_glide_rewards>  (211) 
-1.20115

>  <r_i_glide_evdw>  (211) 
-13.6596

>  <r_i_glide_ecoul>  (211) 
-0.568159

>  <r_i_glide_erotb>  (211) 
0.177985

>  <r_i_glide_esite>  (211) 
-0.0434128

>  <r_i_glide_emodel>  (211) 
-15.5476

>  <r_i_glide_energy>  (211) 
-14.2278

>  <r_i_glide_einternal>  (211) 
2.19366

>  <r_i_glide_intrahb_reward>  (211) 
-0

>  <i_i_glide_confnum>  (211) 
6

>  <i_i_glide_posenum>  (211) 
27

>  <r_i_glide_eff_state_penalty>  (211) 
0

>  <ligand_id>  (211) 
74

>  <original_smiles>  (211) 
COC12OC3CC4CC1C1CC(CC2C4(CO)C1O)C31OCO1

>  <smiles>  (211) 
[H]OC([H])([H])C12C([H])(O[H])C3([H])C([H])([H])C4([H])C([H])([H])C1([H])C1(OC([H])([H])[H])OC([H])(C([H])([H])C2([H])C([H])([H])C13[H])C41OC([H])([H])O1

$$$$
74:0:2
     RDKit          3D

 47 52  0  0  1  0  0  0  0  0999 V2000
    3.0275   -1.2703   -3.4704 C   0  0  0  0  0  0  0  0  0  0  0  0
    3.0444   -1.2763   -2.0530 O   0  0  0  0  0  0  0  0  0  0  0  0
    4.0089   -2.1199   -1.5062 C   0  0  1  0  0  0  0  0  0  0  0  0
    3.6415   -3.5217   -1.4777 O   0  0  0  0  0  0  0  0  0  0  0  0
    3.7684   -4.4444   -0.2870 C   0  0  1  0  0  0  0  0  0  0  0  0
    5.1418   -4.9174   -0.8576 C   0  0  0  0  0  0  0  0  0  0  0  0
    6.2000   -3.7769   -0.9345 C   0  0  1  0  0  0  0  0  0  0  0  0
    6.1978   -2.7231   -2.0913 C   0  0  0  0  0  0  0  0  0  0  0  0
    5.5223   -1.4425   -1.5083 C   0  0  2  0  0  0  0  0  0  0  0  0
    6.0949   -0.8632    0.1339 C   0  0  1  0  0  0  0  0  0  0  0  0
    5.1674   -1.0573    1.6743 C   0  0  0  0  0  0  0  0  0  0  0  0
    3.8503   -2.2645    1.8129 C   0  0  1  0  0  0  0  0  0  0  0  0
    2.9649   -1.8131    0.7511 C   0  0  0  0  0  0  0  0  0  0  0  0
    4.1580   -2.0753   -0.1730 C   0  0  1  0  0  0  0  0  0  0  0  0
    5.8745   -2.9446    0.2794 C   0  0  1  0  0  0  0  0  0  0  0  0
    6.3421   -3.8892    1.5058 C   0  0  0  0  0  0  0  0  0  0  0  0
    7.6821   -4.3434    1.4350 O   0  0  0  0  0  0  0  0  0  0  0  0
    7.0238   -1.8911    0.4685 C   0  0  1  0  0  0  0  0  0  0  0  0
    8.2003   -1.8810   -0.3099 O   0  0  0  0  0  0  0  0  0  0  0  0
    3.6021   -3.8917    1.3614 C   0  0  0  0  0  0  0  0  0  0  0  0
    2.2272   -4.3207    1.6638 O   0  0  0  0  0  0  0  0  0  0  0  0
    2.7167   -5.5264    2.2780 C   0  0  0  0  0  0  0  0  0  0  0  0
    3.9668   -4.8481    2.4175 O   0  0  0  0  0  0  0  0  0  0  0  0
    2.2606   -0.5923   -3.8342 H   0  0  0  0  0  0  0  0  0  0  0  0
    2.8285   -2.2629   -3.8633 H   0  0  0  0  0  0  0  0  0  0  0  0
    3.9691   -0.9090   -3.8735 H   0  0  0  0  0  0  0  0  0  0  0  0
    3.0852   -5.2777   -0.4539 H   0  0  0  0  0  0  0  0  0  0  0  0
    5.5260   -5.7578   -0.2837 H   0  0  0  0  0  0  0  0  0  0  0  0
    5.0198   -5.2986   -1.8638 H   0  0  0  0  0  0  0  0  0  0  0  0
    7.2046   -4.2048   -0.9109 H   0  0  0  0  0  0  0  0  0  0  0  0
    7.2111   -2.5034   -2.4094 H   0  0  0  0  0  0  0  0  0  0  0  0
    5.7029   -3.1053   -2.9906 H   0  0  0  0  0  0  0  0  0  0  0  0
    5.5211   -0.6224   -2.2294 H   0  0  0  0  0  0  0  0  0  0  0  0
    6.5660    0.1160    0.0805 H   0  0  0  0  0  0  0  0  0  0  0  0
    5.8017   -1.1285    2.5621 H   0  0  0  0  0  0  0  0  0  0  0  0
    4.6744   -0.0890    1.8232 H   0  0  0  0  0  0  0  0  0  0  0  0
    3.3756   -2.1132    2.7810 H   0  0  0  0  0  0  0  0  0  0  0  0
    2.0833   -2.3918    0.4909 H   0  0  0  0  0  0  0  0  0  0  0  0
    2.6141   -0.7833    0.9598 H   0  0  0  0  0  0  0  0  0  0  0  0
    3.9658   -0.9748   -0.2190 H   0  0  0  0  0  0  0  0  0  0  0  0
    6.1916   -3.4250    2.4819 H   0  0  0  0  0  0  0  0  0  0  0  0
    5.8949   -4.8679    1.5304 H   0  0  0  0  0  0  0  0  0  0  0  0
    7.7552   -5.0682    2.0415 H   0  0  0  0  0  0  0  0  0  0  0  0
    7.4124   -1.7488    1.4734 H   0  0  0  0  0  0  0  0  0  0  0  0
    8.7102   -2.6448   -0.0915 H   0  0  0  0  0  0  0  0  0  0  0  0
    2.2120   -5.7753    3.2187 H   0  0  0  0  0  0  0  0  0  0  0  0
    2.7854   -6.3821    1.6094 H   0  0  0  0  0  0  0  0  0  0  0  0
  1  2  1  0
  1 24  1  0
  1 25  1  0
  1 26  1  0
  3  2  1  1
  3  9  1  0
  3 14  1  0
  3  4  1  0
  4  5  1  0
  5 20  1  0
  5  6  1  0
  5 27  1  6
  6  7  1  0
  6 28  1  0
  6 29  1  0
  7 15  1  0
  7  8  1  0
  7 30  1  1
  8  9  1  0
  8 31  1  0
  8 32  1  0
  9 10  1  0
  9 33  1  6
 10 18  1  0
 10 11  1  0
 10 34  1  6
 11 12  1  0
 11 35  1  0
 11 36  1  0
 12 13  1  0
 12 20  1  0
 12 37  1  1
 13 14  1  0
 13 38  1  0
 13 39  1  0
 14 15  1  0
 14 40  1  6
 15 16  1  1
 15 18  1  0
 16 17  1  0
 16 41  1  0
 16 42  1  0
 17 43  1  0
 18 19  1  0
 18 44  1  1
 19 45  1  0
 20 23  1  0
 20 21  1  0
 21 22  1  0
 22 23  1  0
 22 46  1  0
 22 47  1  0
M  END
>  <i_m_ct_stereo_status>  (212) 
1

>  <s_m_source_file>  (212) 
/var/tmp/pbs.5076255.sched01/tmpc2azvghe/701e6xuegj.sdf

>  <i_m_source_file_index>  (212) 
22

>  <i_lp_mmshare_version>  (212) 
48012

>  <i_f3d_flags>  (212) 
0

>  <s_epik_input>  (212) 
TzFbQ0gyXU9DMTJbQ0BIXTNPW0NAXTQoT1tDSDNdKVtDQEhdNVtDQEhdNltDSDJdW0NASF0yW0NIMl1bQ0BIXTRbQ0BdKFtDQEBIXShbQ0gyXTMpW0NIMl01KShbQ0gyXVtPSF0pW0NASF02W09IXQ==

>  <s_epik_cmdline>  (212) 
J2VwaWtfcHl0aG9uJywgJy1waHQnLCAnMi4wJywgJy1waCcsICc3LjAnLCAnLXRuJywgJzgnLCAnLW1hJywgJzIwMCcsICctaW1hZScsICc8aW5maWxlLm1hZT4nLCAnLW9tYWUnLCAnPG91dGZpbGUubWFlPic=

>  <r_lp_tautomer_probability>  (212) 
1

>  <r_epik_Ionization_Penalty>  (212) 
2.51989e-07

>  <r_epik_Ionization_Penalty_Charging>  (212) 
0

>  <r_epik_Ionization_Penalty_Neutral>  (212) 
2.51989e-07

>  <r_epik_State_Penalty>  (212) 
-0

>  <r_epik_Charging_Adjusted_Penalty>  (212) 
0

>  <i_epik_Tot_Q>  (212) 
0

>  <i_epik_Tot_abs_Q>  (212) 
0

>  <s_epik_Chemistry_Notes>  (212) 
This compound contains an acetal/aminal-like group ( X-CH(R)-Y where X, Y are N, S, or O) that may be acid/base labile, releasing an aldehyde.

>  <s_lp_Force_Field>  (212) 
OPLS3e

>  <r_lp_Energy>  (212) 
571.464

>  <b_lp_Chiralities_Consistent>  (212) 
1

>  <s_lp_Variant>  (212) 
74:0-1

>  <s_i_glide_gridfile>  (212) 
pfpi4k_grid

>  <i_i_glide_lignum>  (212) 
22

>  <i_i_glide_rotatable_bonds>  (212) 
4

>  <r_i_docking_score>  (212) 
-2.49822

>  <r_i_glide_ligand_efficiency>  (212) 
-0.108618

>  <r_i_glide_ligand_efficiency_sa>  (212) 
-0.308896

>  <r_i_glide_ligand_efficiency_ln>  (212) 
-0.604093

>  <r_i_glide_gscore>  (212) 
-2.49822

>  <r_i_glide_lipo>  (212) 
-0.498555

>  <r_i_glide_hbond>  (212) 
0

>  <r_i_glide_metal>  (212) 
-0

>  <r_i_glide_rewards>  (212) 
-1.20651

>  <r_i_glide_evdw>  (212) 
-16.4523

>  <r_i_glide_ecoul>  (212) 
-0.708657

>  <r_i_glide_erotb>  (212) 
0.177985

>  <r_i_glide_esite>  (212) 
-0.0422334

>  <r_i_glide_emodel>  (212) 
-18.7119

>  <r_i_glide_energy>  (212) 
-17.1609

>  <r_i_glide_einternal>  (212) 
0.965948

>  <r_i_glide_intrahb_reward>  (212) 
-0

>  <i_i_glide_confnum>  (212) 
6

>  <i_i_glide_posenum>  (212) 
34

>  <r_i_glide_eff_state_penalty>  (212) 
0

>  <ligand_id>  (212) 
74

>  <original_smiles>  (212) 
COC12OC3CC4CC1C1CC(CC2C4(CO)C1O)C31OCO1

>  <smiles>  (212) 
[H]OC([H])([H])C12C([H])(O[H])C3([H])C([H])([H])C4([H])C([H])([H])C1([H])C1(OC([H])([H])[H])OC([H])(C([H])([H])C2([H])C([H])([H])C13[H])C41OC([H])([H])O1

$$$$
75:0:0
     RDKit          3D

 46 49  0  0  1  0  0  0  0  0999 V2000
    8.2338   -2.8390   -1.6353 C   0  0  0  0  0  0  0  0  0  0  0  0
    6.8279   -2.6638   -1.6867 O   0  0  0  0  0  0  0  0  0  0  0  0
    6.1254   -3.4499   -0.7288 C   0  0  2  0  0  0  0  0  0  0  0  0
    4.6929   -3.6294   -1.2332 C   0  0  0  0  0  0  0  0  0  0  0  0
    3.8505   -4.3831   -0.1907 C   0  0  0  0  0  0  0  0  0  0  0  0
    3.8212   -3.6698    1.1889 C   0  0  1  0  0  0  0  0  0  0  0  0
    5.2925   -3.4867    1.6730 C   0  0  0  0  0  0  0  0  0  0  0  0
    6.1899   -2.7487    0.6430 C   0  0  0  0  0  0  0  0  0  0  0  0
    3.1533   -2.2487    1.0879 C   0  0  0  0  0  0  0  0  0  0  0  0
    2.2040   -2.1835    2.2262 C   0  0  0  0  0  0  0  0  0  0  0  0
    1.5132   -1.0410    2.6724 C   0  0  0  0  0  0  0  0  0  0  0  0
    0.6846   -1.1706    3.8064 C   0  0  0  0  0  0  0  0  0  0  0  0
    0.5588   -2.4153    4.4699 C   0  0  0  0  0  0  0  0  0  0  0  0
   -0.3104   -2.5537    5.6092 C   0  0  0  0  0  0  0  0  0  0  0  0
   -1.0094   -2.6690    6.5155 N   0  0  0  0  0  0  0  0  0  0  0  0
    1.2688   -3.5434    4.0096 C   0  0  0  0  0  0  0  0  0  0  0  0
    2.0949   -3.4033    2.8831 C   0  0  0  0  0  0  0  0  0  0  0  0
    2.9693   -4.4510    2.2664 C   0  0  1  0  0  0  0  0  0  0  0  0
    2.0961   -5.4394    1.6233 N   0  0  0  0  0  0  0  0  0  0  0  0
    2.3516   -6.5669    2.1876 C   0  0  0  0  0  0  0  0  0  0  0  0
    1.8141   -7.7882    1.8305 N   0  0  0  0  0  0  0  0  0  0  0  0
    3.2563   -6.4685    3.2341 N   0  0  0  0  0  0  0  0  0  0  0  0
    4.3547   -7.3970    3.5041 C   0  0  0  0  0  0  0  0  0  0  0  0
    3.7228   -5.1178    3.2718 O   0  0  0  0  0  0  0  0  0  0  0  0
    8.7018   -2.1425   -2.3213 H   0  0  0  0  0  0  0  0  0  0  0  0
    8.5019   -3.8552   -1.9255 H   0  0  0  0  0  0  0  0  0  0  0  0
    8.6393   -2.6353   -0.6469 H   0  0  0  0  0  0  0  0  0  0  0  0
    6.5775   -4.4369   -0.6445 H   0  0  0  0  0  0  0  0  0  0  0  0
    4.2365   -2.6743   -1.4402 H   0  0  0  0  0  0  0  0  0  0  0  0
    4.6821   -4.1879   -2.1635 H   0  0  0  0  0  0  0  0  0  0  0  0
    2.8807   -4.5377   -0.6412 H   0  0  0  0  0  0  0  0  0  0  0  0
    4.2778   -5.3738   -0.0451 H   0  0  0  0  0  0  0  0  0  0  0  0
    5.3263   -2.9450    2.6200 H   0  0  0  0  0  0  0  0  0  0  0  0
    5.7575   -4.4561    1.8951 H   0  0  0  0  0  0  0  0  0  0  0  0
    7.2069   -2.6938    1.0313 H   0  0  0  0  0  0  0  0  0  0  0  0
    5.8730   -1.7174    0.5056 H   0  0  0  0  0  0  0  0  0  0  0  0
    3.8309   -1.3961    1.1721 H   0  0  0  0  0  0  0  0  0  0  0  0
    2.5943   -2.1448    0.1621 H   0  0  0  0  0  0  0  0  0  0  0  0
    1.6347   -0.0902    2.1592 H   0  0  0  0  0  0  0  0  0  0  0  0
    0.1369   -0.3080    4.1501 H   0  0  0  0  0  0  0  0  0  0  0  0
    1.2092   -4.5118    4.4895 H   0  0  0  0  0  0  0  0  0  0  0  0
    1.3210   -7.9080    0.9598 H   0  0  0  0  0  0  0  0  0  0  0  0
    1.8934   -8.6299    2.3961 H   0  0  0  0  0  0  0  0  0  0  0  0
    3.9883   -8.4155    3.5956 H   0  0  0  0  0  0  0  0  0  0  0  0
    4.8044   -7.1043    4.4593 H   0  0  0  0  0  0  0  0  0  0  0  0
    5.1275   -7.3384    2.7287 H   0  0  0  0  0  0  0  0  0  0  0  0
  1  2  1  0
  1 25  1  0
  1 26  1  0
  1 27  1  0
  2  3  1  0
  3  8  1  0
  3  4  1  0
  3 28  1  1
  4  5  1  0
  4 29  1  0
  4 30  1  0
  6  5  1  6
  5 31  1  0
  5 32  1  0
  6 18  1  0
  6  7  1  0
  6  9  1  0
  7  8  1  0
  7 33  1  0
  7 34  1  0
  8 35  1  0
  8 36  1  0
  9 10  1  0
  9 37  1  0
  9 38  1  0
 10 17  2  0
 10 11  1  0
 11 12  2  0
 11 39  1  0
 12 13  1  0
 12 40  1  0
 13 14  1  0
 13 16  2  0
 14 15  3  0
 16 17  1  0
 16 41  1  0
 17 18  1  0
 18 24  1  1
 18 19  1  0
 19 20  2  0
 20 21  1  0
 20 22  1  0
 21 42  1  0
 21 43  1  0
 22 23  1  0
 22 24  1  0
 23 44  1  0
 23 45  1  0
 23 46  1  0
M  END
>  <i_m_ct_stereo_status>  (213) 
1

>  <s_m_source_file>  (213) 
/var/tmp/pbs.5076255.sched01/tmpc2azvghe/701e6xuegj.sdf

>  <i_m_source_file_index>  (213) 
23

>  <i_lp_mmshare_version>  (213) 
48012

>  <i_f3d_flags>  (213) 
0

>  <s_epik_input>  (213) 
W0NIM11PW0NAQEhdKFtDSDJdW0NIMl0xKVtDSDJdW0NIMl1bQ0BAXTEyW0NAXTMoTj1DKFtOSDJdKU4oTzMpW0NIM10pYzRjKFtDSDJdMilbY0hdW2NIXWMoQyNOKVtjSF00

>  <s_epik_cmdline>  (213) 
J2VwaWtfcHl0aG9uJywgJy1waHQnLCAnMi4wJywgJy1waCcsICc3LjAnLCAnLXRuJywgJzgnLCAnLW1hJywgJzIwMCcsICctaW1hZScsICc8aW5maWxlLm1hZT4nLCAnLW9tYWUnLCAnPG91dGZpbGUubWFlPic=

>  <r_epik_Ionization_Penalty>  (213) 
0.00252437

>  <r_epik_Ionization_Penalty_Charging>  (213) 
0

>  <r_epik_Ionization_Penalty_Neutral>  (213) 
0.00252437

>  <r_epik_State_Penalty>  (213) 
0.00175174

>  <r_epik_Charging_Adjusted_Penalty>  (213) 
0.00175174

>  <i_epik_Tot_Q>  (213) 
0

>  <i_epik_Tot_abs_Q>  (213) 
0

>  <s_epik_Chemistry_Notes>  (213) 
This compound has an imine and may undergo hydrolysis. This compound has a N-S or N-O group and may undergo hydrolysis at high or low pH.

>  <s_lp_Force_Field>  (213) 
OPLS3e

>  <r_lp_Energy>  (213) 
33.5513

>  <b_lp_Chiralities_Consistent>  (213) 
1

>  <s_lp_Variant>  (213) 
75:0-1

>  <s_i_glide_gridfile>  (213) 
pfpi4k_grid

>  <i_i_glide_lignum>  (213) 
23

>  <i_i_glide_rotatable_bonds>  (213) 
2

>  <r_i_docking_score>  (213) 
-3.19745

>  <r_i_glide_ligand_efficiency>  (213) 
-0.133227

>  <r_i_glide_ligand_efficiency_sa>  (213) 
-0.384293

>  <r_i_glide_ligand_efficiency_ln>  (213) 
-0.765296

>  <r_i_glide_gscore>  (213) 
-3.19745

>  <r_i_glide_lipo>  (213) 
-0.28726

>  <r_i_glide_hbond>  (213) 
-0.0736237

>  <r_i_glide_metal>  (213) 
-0

>  <r_i_glide_rewards>  (213) 
-1.18368

>  <r_i_glide_evdw>  (213) 
-20.7991

>  <r_i_glide_ecoul>  (213) 
-3.77125

>  <r_i_glide_erotb>  (213) 
0

>  <r_i_glide_esite>  (213) 
-0.0472362

>  <r_i_glide_emodel>  (213) 
-29.7345

>  <r_i_glide_energy>  (213) 
-24.5704

>  <r_i_glide_einternal>  (213) 
0.334091

>  <r_i_glide_intrahb_reward>  (213) 
-0

>  <i_i_glide_confnum>  (213) 
1

>  <i_i_glide_posenum>  (213) 
33

>  <r_i_glide_eff_state_penalty>  (213) 
0

>  <ligand_id>  (213) 
75

>  <original_smiles>  (213) 
COC1CCC2(CC1)Cc1ccc(C#N)cc1C21N=C(N)N(C)O1

>  <smiles>  (213) 
[H]c1c([H])c2c(c([H])c1C#N)C1(N=C(N([H])[H])N(C([H])([H])[H])O1)C1(C2([H])[H])C([H])([H])C([H])([H])C([H])(OC([H])([H])[H])C([H])([H])C1([H])[H]

$$$$
75:0:1
     RDKit          3D

 46 49  0  0  1  0  0  0  0  0999 V2000
    6.2371   -3.0552   -1.8699 C   0  0  0  0  0  0  0  0  0  0  0  0
    5.6505   -2.9441   -0.5812 O   0  0  0  0  0  0  0  0  0  0  0  0
    5.6911   -4.1386    0.1850 C   0  0  2  0  0  0  0  0  0  0  0  0
    4.7289   -5.1786   -0.3994 C   0  0  0  0  0  0  0  0  0  0  0  0
    4.6992   -6.4314    0.4769 C   0  0  0  0  0  0  0  0  0  0  0  0
    4.2622   -6.1344    1.9422 C   0  0  1  0  0  0  0  0  0  0  0  0
    5.2387   -5.0633    2.5148 C   0  0  0  0  0  0  0  0  0  0  0  0
    5.3311   -3.7874    1.6402 C   0  0  0  0  0  0  0  0  0  0  0  0
    2.7996   -5.5648    1.9904 C   0  0  0  0  0  0  0  0  0  0  0  0
    2.1172   -6.3393    3.0668 C   0  0  0  0  0  0  0  0  0  0  0  0
    0.8666   -6.0520    3.6268 C   0  0  0  0  0  0  0  0  0  0  0  0
    0.3990   -6.8817    4.6707 C   0  0  0  0  0  0  0  0  0  0  0  0
    1.1900   -7.9616    5.1465 C   0  0  0  0  0  0  0  0  0  0  0  0
    0.6958   -8.7925    6.2311 C   0  0  0  0  0  0  0  0  0  0  0  0
    0.2973   -9.4419    7.0994 N   0  0  0  0  0  0  0  0  0  0  0  0
    2.4582   -8.2140    4.5709 C   0  0  0  0  0  0  0  0  0  0  0  0
    2.8979   -7.3815    3.5334 C   0  0  0  0  0  0  0  0  0  0  0  0
    4.2305   -7.4457    2.8319 C   0  0  1  0  0  0  0  0  0  0  0  0
    4.2681   -8.6472    2.0027 N   0  0  0  0  0  0  0  0  0  0  0  0
    5.2746   -9.3302    2.4068 C   0  0  0  0  0  0  0  0  0  0  0  0
    5.7599  -10.4776    1.8112 N   0  0  0  0  0  0  0  0  0  0  0  0
    5.8888   -8.8091    3.5182 N   0  0  0  0  0  0  0  0  0  0  0  0
    7.3254   -8.7634    3.7331 C   0  0  0  0  0  0  0  0  0  0  0  0
    5.2884   -7.5479    3.7805 O   0  0  0  0  0  0  0  0  0  0  0  0
    6.2280   -2.0752   -2.3437 H   0  0  0  0  0  0  0  0  0  0  0  0
    5.6950   -3.7439   -2.5190 H   0  0  0  0  0  0  0  0  0  0  0  0
    7.2694   -3.3937   -1.7847 H   0  0  0  0  0  0  0  0  0  0  0  0
    6.7066   -4.5330    0.1794 H   0  0  0  0  0  0  0  0  0  0  0  0
    3.7252   -4.7751   -0.4950 H   0  0  0  0  0  0  0  0  0  0  0  0
    5.0150   -5.4967   -1.3991 H   0  0  0  0  0  0  0  0  0  0  0  0
    4.0729   -7.1561   -0.0315 H   0  0  0  0  0  0  0  0  0  0  0  0
    5.6988   -6.8662    0.5042 H   0  0  0  0  0  0  0  0  0  0  0  0
    4.9378   -4.7899    3.5249 H   0  0  0  0  0  0  0  0  0  0  0  0
    6.2429   -5.4788    2.6290 H   0  0  0  0  0  0  0  0  0  0  0  0
    6.0612   -3.0916    2.0572 H   0  0  0  0  0  0  0  0  0  0  0  0
    4.3880   -3.2435    1.6336 H   0  0  0  0  0  0  0  0  0  0  0  0
    2.7224   -4.5047    2.2322 H   0  0  0  0  0  0  0  0  0  0  0  0
    2.2747   -5.7421    1.0544 H   0  0  0  0  0  0  0  0  0  0  0  0
    0.2898   -5.2034    3.2877 H   0  0  0  0  0  0  0  0  0  0  0  0
   -0.5605   -6.6842    5.1150 H   0  0  0  0  0  0  0  0  0  0  0  0
    3.1071   -9.0094    4.9203 H   0  0  0  0  0  0  0  0  0  0  0  0
    5.2353  -10.8870    1.0296 H   0  0  0  0  0  0  0  0  0  0  0  0
    6.2726  -11.1782    2.3269 H   0  0  0  0  0  0  0  0  0  0  0  0
    7.7577   -9.7577    3.6563 H   0  0  0  0  0  0  0  0  0  0  0  0
    7.5022   -8.3883    4.7402 H   0  0  0  0  0  0  0  0  0  0  0  0
    7.8018   -8.0927    3.0192 H   0  0  0  0  0  0  0  0  0  0  0  0
  1  2  1  0
  1 25  1  0
  1 26  1  0
  1 27  1  0
  2  3  1  0
  3  8  1  0
  3  4  1  0
  3 28  1  1
  4  5  1  0
  4 29  1  0
  4 30  1  0
  6  5  1  6
  5 31  1  0
  5 32  1  0
  6 18  1  0
  6  7  1  0
  6  9  1  0
  7  8  1  0
  7 33  1  0
  7 34  1  0
  8 35  1  0
  8 36  1  0
  9 10  1  0
  9 37  1  0
  9 38  1  0
 10 17  2  0
 10 11  1  0
 11 12  2  0
 11 39  1  0
 12 13  1  0
 12 40  1  0
 13 14  1  0
 13 16  2  0
 14 15  3  0
 16 17  1  0
 16 41  1  0
 17 18  1  0
 18 24  1  1
 18 19  1  0
 19 20  2  0
 20 21  1  0
 20 22  1  0
 21 42  1  0
 21 43  1  0
 22 23  1  0
 22 24  1  0
 23 44  1  0
 23 45  1  0
 23 46  1  0
M  END
>  <i_m_ct_stereo_status>  (214) 
1

>  <s_m_source_file>  (214) 
/var/tmp/pbs.5076255.sched01/tmpc2azvghe/701e6xuegj.sdf

>  <i_m_source_file_index>  (214) 
23

>  <i_lp_mmshare_version>  (214) 
48012

>  <i_f3d_flags>  (214) 
0

>  <s_epik_input>  (214) 
W0NIM11PW0NAQEhdKFtDSDJdW0NIMl0xKVtDSDJdW0NIMl1bQ0BAXTEyW0NAXTMoTj1DKFtOSDJdKU4oTzMpW0NIM10pYzRjKFtDSDJdMilbY0hdW2NIXWMoQyNOKVtjSF00

>  <s_epik_cmdline>  (214) 
J2VwaWtfcHl0aG9uJywgJy1waHQnLCAnMi4wJywgJy1waCcsICc3LjAnLCAnLXRuJywgJzgnLCAnLW1hJywgJzIwMCcsICctaW1hZScsICc8aW5maWxlLm1hZT4nLCAnLW9tYWUnLCAnPG91dGZpbGUubWFlPic=

>  <r_epik_Ionization_Penalty>  (214) 
0.00252437

>  <r_epik_Ionization_Penalty_Charging>  (214) 
0

>  <r_epik_Ionization_Penalty_Neutral>  (214) 
0.00252437

>  <r_epik_State_Penalty>  (214) 
0.00175174

>  <r_epik_Charging_Adjusted_Penalty>  (214) 
0.00175174

>  <i_epik_Tot_Q>  (214) 
0

>  <i_epik_Tot_abs_Q>  (214) 
0

>  <s_epik_Chemistry_Notes>  (214) 
This compound has an imine and may undergo hydrolysis. This compound has a N-S or N-O group and may undergo hydrolysis at high or low pH.

>  <s_lp_Force_Field>  (214) 
OPLS3e

>  <r_lp_Energy>  (214) 
33.5513

>  <b_lp_Chiralities_Consistent>  (214) 
1

>  <s_lp_Variant>  (214) 
75:0-1

>  <s_i_glide_gridfile>  (214) 
pfpi4k_grid

>  <i_i_glide_lignum>  (214) 
23

>  <i_i_glide_rotatable_bonds>  (214) 
2

>  <r_i_docking_score>  (214) 
-3.18861

>  <r_i_glide_ligand_efficiency>  (214) 
-0.132859

>  <r_i_glide_ligand_efficiency_sa>  (214) 
-0.383231

>  <r_i_glide_ligand_efficiency_ln>  (214) 
-0.763182

>  <r_i_glide_gscore>  (214) 
-3.18861

>  <r_i_glide_lipo>  (214) 
-0.402681

>  <r_i_glide_hbond>  (214) 
-0.16

>  <r_i_glide_metal>  (214) 
-0

>  <r_i_glide_rewards>  (214) 
-1.18368

>  <r_i_glide_evdw>  (214) 
-19.9689

>  <r_i_glide_ecoul>  (214) 
-2.10757

>  <r_i_glide_erotb>  (214) 
0

>  <r_i_glide_esite>  (214) 
-0.127667

>  <r_i_glide_emodel>  (214) 
-26.5236

>  <r_i_glide_energy>  (214) 
-22.0765

>  <r_i_glide_einternal>  (214) 
0.10825

>  <r_i_glide_intrahb_reward>  (214) 
-0

>  <i_i_glide_confnum>  (214) 
1

>  <i_i_glide_posenum>  (214) 
2

>  <r_i_glide_eff_state_penalty>  (214) 
0

>  <ligand_id>  (214) 
75

>  <original_smiles>  (214) 
COC1CCC2(CC1)Cc1ccc(C#N)cc1C21N=C(N)N(C)O1

>  <smiles>  (214) 
[H]c1c([H])c2c(c([H])c1C#N)C1(N=C(N([H])[H])N(C([H])([H])[H])O1)C1(C2([H])[H])C([H])([H])C([H])([H])C([H])(OC([H])([H])[H])C([H])([H])C1([H])[H]

$$$$
75:0:2
     RDKit          3D

 46 49  0  0  1  0  0  0  0  0999 V2000
    4.6228   -0.0347    0.6492 C   0  0  0  0  0  0  0  0  0  0  0  0
    3.7440   -0.7606    1.4914 O   0  0  0  0  0  0  0  0  0  0  0  0
    4.2244   -2.0470    1.8547 C   0  0  2  0  0  0  0  0  0  0  0  0
    4.2197   -2.9767    0.6376 C   0  0  0  0  0  0  0  0  0  0  0  0
    4.6348   -4.3968    1.0415 C   0  0  0  0  0  0  0  0  0  0  0  0
    3.7088   -5.0021    2.1351 C   0  0  1  0  0  0  0  0  0  0  0  0
    3.7135   -4.0395    3.3582 C   0  0  0  0  0  0  0  0  0  0  0  0
    3.3305   -2.5828    2.9882 C   0  0  0  0  0  0  0  0  0  0  0  0
    2.2350   -5.1467    1.6126 C   0  0  0  0  0  0  0  0  0  0  0  0
    1.8149   -6.5255    1.9899 C   0  0  0  0  0  0  0  0  0  0  0  0
    0.5157   -7.0511    1.9244 C   0  0  0  0  0  0  0  0  0  0  0  0
    0.3115   -8.3696    2.3858 C   0  0  0  0  0  0  0  0  0  0  0  0
    1.3934   -9.1360    2.8882 C   0  0  0  0  0  0  0  0  0  0  0  0
    1.1775  -10.4980    3.3348 C   0  0  0  0  0  0  0  0  0  0  0  0
    1.0082  -11.5836    3.6893 N   0  0  0  0  0  0  0  0  0  0  0  0
    2.6895   -8.5754    2.9500 C   0  0  0  0  0  0  0  0  0  0  0  0
    2.8696   -7.2607    2.5009 C   0  0  0  0  0  0  0  0  0  0  0  0
    4.1462   -6.4702    2.5394 C   0  0  1  0  0  0  0  0  0  0  0  0
    5.0674   -7.0355    1.5572 N   0  0  0  0  0  0  0  0  0  0  0  0
    6.1046   -7.4025    2.2166 C   0  0  0  0  0  0  0  0  0  0  0  0
    7.2584   -7.9068    1.6549 N   0  0  0  0  0  0  0  0  0  0  0  0
    5.9960   -7.2348    3.5738 N   0  0  0  0  0  0  0  0  0  0  0  0
    7.0412   -6.7319    4.4533 C   0  0  0  0  0  0  0  0  0  0  0  0
    4.7661   -6.5749    3.8174 O   0  0  0  0  0  0  0  0  0  0  0  0
    4.2143    0.9591    0.4905 H   0  0  0  0  0  0  0  0  0  0  0  0
    4.7387   -0.4875   -0.3332 H   0  0  0  0  0  0  0  0  0  0  0  0
    5.6031    0.0619    1.1114 H   0  0  0  0  0  0  0  0  0  0  0  0
    5.2387   -1.9574    2.2448 H   0  0  0  0  0  0  0  0  0  0  0  0
    3.2413   -3.0023    0.1676 H   0  0  0  0  0  0  0  0  0  0  0  0
    4.9191   -2.6562   -0.1317 H   0  0  0  0  0  0  0  0  0  0  0  0
    4.6833   -4.9777    0.1283 H   0  0  0  0  0  0  0  0  0  0  0  0
    5.6501   -4.3592    1.4403 H   0  0  0  0  0  0  0  0  0  0  0  0
    3.0363   -4.4099    4.1278 H   0  0  0  0  0  0  0  0  0  0  0  0
    4.6976   -4.0279    3.8352 H   0  0  0  0  0  0  0  0  0  0  0  0
    3.3958   -1.9388    3.8646 H   0  0  0  0  0  0  0  0  0  0  0  0
    2.2942   -2.5148    2.6620 H   0  0  0  0  0  0  0  0  0  0  0  0
    1.5256   -4.4506    2.0602 H   0  0  0  0  0  0  0  0  0  0  0  0
    2.1896   -5.0533    0.5298 H   0  0  0  0  0  0  0  0  0  0  0  0
   -0.3070   -6.4666    1.5426 H   0  0  0  0  0  0  0  0  0  0  0  0
   -0.6725   -8.8019    2.3262 H   0  0  0  0  0  0  0  0  0  0  0  0
    3.5362   -9.1220    3.3464 H   0  0  0  0  0  0  0  0  0  0  0  0
    7.4134   -7.8709    0.6539 H   0  0  0  0  0  0  0  0  0  0  0  0
    7.9971   -8.3696    2.1726 H   0  0  0  0  0  0  0  0  0  0  0  0
    7.9516   -7.3147    4.3499 H   0  0  0  0  0  0  0  0  0  0  0  0
    6.6849   -6.8294    5.4805 H   0  0  0  0  0  0  0  0  0  0  0  0
    7.2443   -5.6789    4.2567 H   0  0  0  0  0  0  0  0  0  0  0  0
  1  2  1  0
  1 25  1  0
  1 26  1  0
  1 27  1  0
  2  3  1  0
  3  8  1  0
  3  4  1  0
  3 28  1  1
  4  5  1  0
  4 29  1  0
  4 30  1  0
  6  5  1  6
  5 31  1  0
  5 32  1  0
  6 18  1  0
  6  7  1  0
  6  9  1  0
  7  8  1  0
  7 33  1  0
  7 34  1  0
  8 35  1  0
  8 36  1  0
  9 10  1  0
  9 37  1  0
  9 38  1  0
 10 17  2  0
 10 11  1  0
 11 12  2  0
 11 39  1  0
 12 13  1  0
 12 40  1  0
 13 14  1  0
 13 16  2  0
 14 15  3  0
 16 17  1  0
 16 41  1  0
 17 18  1  0
 18 24  1  1
 18 19  1  0
 19 20  2  0
 20 21  1  0
 20 22  1  0
 21 42  1  0
 21 43  1  0
 22 23  1  0
 22 24  1  0
 23 44  1  0
 23 45  1  0
 23 46  1  0
M  END
>  <i_m_ct_stereo_status>  (215) 
1

>  <s_m_source_file>  (215) 
/var/tmp/pbs.5076255.sched01/tmpc2azvghe/701e6xuegj.sdf

>  <i_m_source_file_index>  (215) 
23

>  <i_lp_mmshare_version>  (215) 
48012

>  <i_f3d_flags>  (215) 
0

>  <s_epik_input>  (215) 
W0NIM11PW0NAQEhdKFtDSDJdW0NIMl0xKVtDSDJdW0NIMl1bQ0BAXTEyW0NAXTMoTj1DKFtOSDJdKU4oTzMpW0NIM10pYzRjKFtDSDJdMilbY0hdW2NIXWMoQyNOKVtjSF00

>  <s_epik_cmdline>  (215) 
J2VwaWtfcHl0aG9uJywgJy1waHQnLCAnMi4wJywgJy1waCcsICc3LjAnLCAnLXRuJywgJzgnLCAnLW1hJywgJzIwMCcsICctaW1hZScsICc8aW5maWxlLm1hZT4nLCAnLW9tYWUnLCAnPG91dGZpbGUubWFlPic=

>  <r_epik_Ionization_Penalty>  (215) 
0.00252437

>  <r_epik_Ionization_Penalty_Charging>  (215) 
0

>  <r_epik_Ionization_Penalty_Neutral>  (215) 
0.00252437

>  <r_epik_State_Penalty>  (215) 
0.00175174

>  <r_epik_Charging_Adjusted_Penalty>  (215) 
0.00175174

>  <i_epik_Tot_Q>  (215) 
0

>  <i_epik_Tot_abs_Q>  (215) 
0

>  <s_epik_Chemistry_Notes>  (215) 
This compound has an imine and may undergo hydrolysis. This compound has a N-S or N-O group and may undergo hydrolysis at high or low pH.

>  <s_lp_Force_Field>  (215) 
OPLS3e

>  <r_lp_Energy>  (215) 
33.5513

>  <b_lp_Chiralities_Consistent>  (215) 
1

>  <s_lp_Variant>  (215) 
75:0-1

>  <s_i_glide_gridfile>  (215) 
pfpi4k_grid

>  <i_i_glide_lignum>  (215) 
23

>  <i_i_glide_rotatable_bonds>  (215) 
2

>  <r_i_docking_score>  (215) 
-2.51224

>  <r_i_glide_ligand_efficiency>  (215) 
-0.104677

>  <r_i_glide_ligand_efficiency_sa>  (215) 
-0.301939

>  <r_i_glide_ligand_efficiency_ln>  (215) 
-0.601294

>  <r_i_glide_gscore>  (215) 
-2.51224

>  <r_i_glide_lipo>  (215) 
-0.193825

>  <r_i_glide_hbond>  (215) 
0

>  <r_i_glide_metal>  (215) 
-0

>  <r_i_glide_rewards>  (215) 
-1.39475

>  <r_i_glide_evdw>  (215) 
-22.8491

>  <r_i_glide_ecoul>  (215) 
1.4586

>  <r_i_glide_erotb>  (215) 
0

>  <r_i_glide_esite>  (215) 
0

>  <r_i_glide_emodel>  (215) 
-25.5108

>  <r_i_glide_energy>  (215) 
-21.3905

>  <r_i_glide_einternal>  (215) 
0.124382

>  <r_i_glide_intrahb_reward>  (215) 
-0

>  <i_i_glide_confnum>  (215) 
1

>  <i_i_glide_posenum>  (215) 
12

>  <r_i_glide_eff_state_penalty>  (215) 
0

>  <ligand_id>  (215) 
75

>  <original_smiles>  (215) 
COC1CCC2(CC1)Cc1ccc(C#N)cc1C21N=C(N)N(C)O1

>  <smiles>  (215) 
[H]c1c([H])c2c(c([H])c1C#N)C1(N=C(N([H])[H])N(C([H])([H])[H])O1)C1(C2([H])[H])C([H])([H])C([H])([H])C([H])(OC([H])([H])[H])C([H])([H])C1([H])[H]

$$$$
76:0:0
     RDKit          3D

 52 55  0  0  1  0  0  0  0  0999 V2000
    3.5438   -7.2151    1.2836 C   0  0  0  0  0  0  0  0  0  0  0  0
    4.9482   -6.6678    1.5235 C   0  0  2  0  0  0  0  0  0  0  0  0
    5.3917   -7.0959    2.7968 O   0  0  0  0  0  0  0  0  0  0  0  0
    6.5371   -6.3469    3.1675 C   0  0  0  0  0  0  0  0  0  0  0  0
    6.3731   -5.9519    4.6479 C   0  0  0  0  0  0  0  0  0  0  0  0
    7.7427   -7.2978    3.0302 C   0  0  0  0  0  0  0  0  0  0  0  0
    6.5133   -5.1092    2.2136 C   0  0  1  0  0  0  0  0  0  0  0  0
    7.6601   -5.0606    1.1777 C   0  0  0  0  0  0  0  0  0  0  0  0
    7.6568   -3.7685    0.3507 C   0  0  1  0  0  0  0  0  0  0  0  0
    8.6816   -3.9269   -0.6178 O   0  0  0  0  0  0  0  0  0  0  0  0
    6.2469   -3.3766   -0.2176 C   0  0  1  0  0  0  0  0  0  0  0  0
    6.2260   -3.0814   -1.7594 C   0  0  0  0  0  0  0  0  0  0  0  0
    5.2430   -1.9128   -1.9837 C   0  0  1  0  0  0  0  0  0  0  0  0
    4.3183   -2.1432   -3.0287 O   0  0  0  0  0  0  0  0  0  0  0  0
    4.6308   -1.6334   -0.6052 C   0  0  1  0  0  0  0  0  0  0  0  0
    3.4371   -2.5522   -0.2684 C   0  0  0  0  0  0  0  0  0  0  0  0
    3.7595   -4.0473   -0.4500 C   0  0  0  0  0  0  0  0  0  0  0  0
    5.1495   -4.4778    0.0991 C   0  0  2  0  0  0  0  0  0  0  0  0
    5.1260   -5.1291    1.5456 C   0  0  1  0  0  0  0  0  0  0  0  0
    4.0571   -4.5145    2.5029 C   0  0  0  0  0  0  0  0  0  0  0  0
    5.8307   -1.9685    0.2840 C   0  0  1  0  0  0  0  0  0  0  0  0
    5.5729   -1.8372    1.6617 O   0  0  0  0  0  0  0  0  0  0  0  0
    3.1923   -6.8902    0.3092 H   0  0  0  0  0  0  0  0  0  0  0  0
    2.8296   -6.8847    2.0364 H   0  0  0  0  0  0  0  0  0  0  0  0
    3.5531   -8.3059    1.3076 H   0  0  0  0  0  0  0  0  0  0  0  0
    5.6179   -7.1115    0.7849 H   0  0  0  0  0  0  0  0  0  0  0  0
    7.2620   -5.4437    5.0206 H   0  0  0  0  0  0  0  0  0  0  0  0
    6.2119   -6.8336    5.2692 H   0  0  0  0  0  0  0  0  0  0  0  0
    5.5301   -5.2863    4.8149 H   0  0  0  0  0  0  0  0  0  0  0  0
    8.6759   -6.8060    3.3061 H   0  0  0  0  0  0  0  0  0  0  0  0
    7.8505   -7.6901    2.0194 H   0  0  0  0  0  0  0  0  0  0  0  0
    7.6248   -8.1574    3.6920 H   0  0  0  0  0  0  0  0  0  0  0  0
    6.5842   -4.2108    2.8127 H   0  0  0  0  0  0  0  0  0  0  0  0
    8.6180   -5.1208    1.6919 H   0  0  0  0  0  0  0  0  0  0  0  0
    7.6188   -5.9214    0.5124 H   0  0  0  0  0  0  0  0  0  0  0  0
    7.9931   -2.9668    1.0049 H   0  0  0  0  0  0  0  0  0  0  0  0
    8.8770   -3.0979   -1.0365 H   0  0  0  0  0  0  0  0  0  0  0  0
    7.1922   -2.7564   -2.1425 H   0  0  0  0  0  0  0  0  0  0  0  0
    5.9546   -3.9626   -2.3422 H   0  0  0  0  0  0  0  0  0  0  0  0
    5.8172   -1.0355   -2.2760 H   0  0  0  0  0  0  0  0  0  0  0  0
    3.7226   -2.8309   -2.7638 H   0  0  0  0  0  0  0  0  0  0  0  0
    4.3345   -0.5870   -0.5064 H   0  0  0  0  0  0  0  0  0  0  0  0
    3.0926   -2.3618    0.7498 H   0  0  0  0  0  0  0  0  0  0  0  0
    2.6072   -2.2814   -0.9169 H   0  0  0  0  0  0  0  0  0  0  0  0
    2.9495   -4.6583   -0.0655 H   0  0  0  0  0  0  0  0  0  0  0  0
    3.7403   -4.2555   -1.5166 H   0  0  0  0  0  0  0  0  0  0  0  0
    5.4292   -5.3150   -0.5447 H   0  0  0  0  0  0  0  0  0  0  0  0
    4.3229   -3.5333    2.8808 H   0  0  0  0  0  0  0  0  0  0  0  0
    3.9076   -5.1364    3.3823 H   0  0  0  0  0  0  0  0  0  0  0  0
    3.0662   -4.4363    2.0606 H   0  0  0  0  0  0  0  0  0  0  0  0
    6.6333   -1.2580    0.0724 H   0  0  0  0  0  0  0  0  0  0  0  0
    4.8310   -2.3814    1.8735 H   0  0  0  0  0  0  0  0  0  0  0  0
  1  2  1  0
  1 23  1  0
  1 24  1  0
  1 25  1  0
  2 19  1  0
  2  3  1  0
  2 26  1  6
  3  4  1  0
  4  5  1  0
  4  6  1  0
  4  7  1  0
  5 27  1  0
  5 28  1  0
  5 29  1  0
  6 30  1  0
  6 31  1  0
  6 32  1  0
  7 19  1  0
  7  8  1  0
  7 33  1  1
  8  9  1  0
  8 34  1  0
  8 35  1  0
  9 10  1  0
  9 11  1  0
  9 36  1  1
 10 37  1  0
 11 18  1  0
 11 21  1  0
 11 12  1  6
 12 13  1  0
 12 38  1  0
 12 39  1  0
 13 14  1  0
 13 15  1  0
 13 40  1  6
 14 41  1  0
 15 16  1  0
 15 21  1  0
 15 42  1  6
 16 17  1  0
 16 43  1  0
 16 44  1  0
 17 18  1  0
 17 45  1  0
 17 46  1  0
 18 19  1  0
 18 47  1  6
 19 20  1  1
 20 48  1  0
 20 49  1  0
 20 50  1  0
 21 22  1  0
 21 51  1  6
 22 52  1  0
M  END
>  <i_m_ct_stereo_status>  (216) 
1

>  <s_m_source_file>  (216) 
/var/tmp/pbs.5076255.sched01/tmpc2azvghe/701e6xuegj.sdf

>  <i_m_source_file_index>  (216) 
24

>  <i_lp_mmshare_version>  (216) 
48012

>  <i_f3d_flags>  (216) 
0

>  <s_epik_input>  (216) 
W0NIM11bQ0BASF0xT0MoW0NIM10pKFtDSDNdKVtDQEBIXShbQ0gyXVtDQEhdMltPSF0pW0NAQF0xKFtDSDNdKVtDQEhdKFtDQEBdMjM0KVtDSDJdW0NIMl1bQ0BIXShbQ0BASF0oW0NIMl0zKVtPSF0pW0NASF00W09IXQ==

>  <s_epik_cmdline>  (216) 
J2VwaWtfcHl0aG9uJywgJy1waHQnLCAnMi4wJywgJy1waCcsICc3LjAnLCAnLXRuJywgJzgnLCAnLW1hJywgJzIwMCcsICctaW1hZScsICc8aW5maWxlLm1hZT4nLCAnLW9tYWUnLCAnPG91dGZpbGUubWFlPic=

>  <r_lp_tautomer_probability>  (216) 
1

>  <r_epik_Ionization_Penalty>  (216) 
1.46879e-06

>  <r_epik_Ionization_Penalty_Charging>  (216) 
0

>  <r_epik_Ionization_Penalty_Neutral>  (216) 
1.46879e-06

>  <r_epik_State_Penalty>  (216) 
-0

>  <r_epik_Charging_Adjusted_Penalty>  (216) 
0

>  <i_epik_Tot_Q>  (216) 
0

>  <i_epik_Tot_abs_Q>  (216) 
0

>  <s_lp_Force_Field>  (216) 
OPLS3e

>  <r_lp_Energy>  (216) 
49.247

>  <b_lp_Chiralities_Consistent>  (216) 
1

>  <s_lp_Variant>  (216) 
76:0-1

>  <s_i_glide_gridfile>  (216) 
pfpi4k_grid

>  <i_i_glide_lignum>  (216) 
24

>  <i_i_glide_rotatable_bonds>  (216) 
3

>  <r_i_docking_score>  (216) 
-3.82707

>  <r_i_glide_ligand_efficiency>  (216) 
-0.173958

>  <r_i_glide_ligand_efficiency_sa>  (216) 
-0.487437

>  <r_i_glide_ligand_efficiency_ln>  (216) 
-0.935476

>  <r_i_glide_gscore>  (216) 
-3.82707

>  <r_i_glide_lipo>  (216) 
-0.825387

>  <r_i_glide_hbond>  (216) 
-0.00719153

>  <r_i_glide_metal>  (216) 
-0

>  <r_i_glide_rewards>  (216) 
-1.29253

>  <r_i_glide_evdw>  (216) 
-24.4473

>  <r_i_glide_ecoul>  (216) 
-3.19731

>  <r_i_glide_erotb>  (216) 
0

>  <r_i_glide_esite>  (216) 
0

>  <r_i_glide_emodel>  (216) 
-33.7676

>  <r_i_glide_energy>  (216) 
-27.6446

>  <r_i_glide_einternal>  (216) 
0.440033

>  <r_i_glide_intrahb_reward>  (216) 
-0

>  <i_i_glide_confnum>  (216) 
1

>  <i_i_glide_posenum>  (216) 
1

>  <r_i_glide_eff_state_penalty>  (216) 
0

>  <ligand_id>  (216) 
76

>  <original_smiles>  (216) 
CC1OC(C)(C)C2CC(O)C34CC(O)C(CCC3C12C)C4O

>  <smiles>  (216) 
[H]OC1([H])C([H])([H])C23C([H])(O[H])C([H])([H])C4([H])C(C([H])([H])[H])(C([H])([H])[H])OC([H])(C([H])([H])[H])C4(C([H])([H])[H])C2([H])C([H])([H])C([H])([H])C1([H])C3([H])O[H]

$$$$
76:0:1
     RDKit          3D

 52 55  0  0  1  0  0  0  0  0999 V2000
    3.4879   -6.9907    1.0775 C   0  0  0  0  0  0  0  0  0  0  0  0
    4.9440   -6.5363    1.2145 C   0  0  2  0  0  0  0  0  0  0  0  0
    5.4823   -7.0864    2.4031 O   0  0  0  0  0  0  0  0  0  0  0  0
    6.7084   -6.4409    2.7076 C   0  0  0  0  0  0  0  0  0  0  0  0
    6.7215   -6.1643    4.2208 C   0  0  0  0  0  0  0  0  0  0  0  0
    7.8237   -7.4521    2.3748 C   0  0  0  0  0  0  0  0  0  0  0  0
    6.6725   -5.1277    1.8620 C   0  0  1  0  0  0  0  0  0  0  0  0
    7.7203   -5.0612    0.7413 C   0  0  0  0  0  0  0  0  0  0  0  0
    7.7139   -3.7110    0.0039 C   0  0  1  0  0  0  0  0  0  0  0  0
    8.6196   -3.8534   -1.0861 O   0  0  0  0  0  0  0  0  0  0  0  0
    6.2787   -3.2088   -0.3939 C   0  0  1  0  0  0  0  0  0  0  0  0
    6.1271   -2.8023   -1.9015 C   0  0  0  0  0  0  0  0  0  0  0  0
    5.1970   -1.5660   -1.9414 C   0  0  1  0  0  0  0  0  0  0  0  0
    4.1534   -1.6694   -2.8907 O   0  0  0  0  0  0  0  0  0  0  0  0
    4.7430   -1.3549   -0.4885 C   0  0  1  0  0  0  0  0  0  0  0  0
    3.5294   -2.2315   -0.0967 C   0  0  0  0  0  0  0  0  0  0  0  0
    3.7427   -3.7218   -0.4340 C   0  0  0  0  0  0  0  0  0  0  0  0
    5.1511   -4.2666   -0.0556 C   0  0  2  0  0  0  0  0  0  0  0  0
    5.2293   -5.0191    1.3356 C   0  0  1  0  0  0  0  0  0  0  0  0
    4.3009   -4.4252    2.4361 C   0  0  0  0  0  0  0  0  0  0  0  0
    6.0027   -1.8229    0.2429 C   0  0  1  0  0  0  0  0  0  0  0  0
    5.8905   -1.7793    1.6469 O   0  0  0  0  0  0  0  0  0  0  0  0
    3.0509   -6.6099    0.1552 H   0  0  0  0  0  0  0  0  0  0  0  0
    2.8649   -6.6748    1.9151 H   0  0  0  0  0  0  0  0  0  0  0  0
    3.4448   -8.0789    1.0381 H   0  0  0  0  0  0  0  0  0  0  0  0
    5.5048   -6.9597    0.3840 H   0  0  0  0  0  0  0  0  0  0  0  0
    7.6747   -5.7401    4.5334 H   0  0  0  0  0  0  0  0  0  0  0  0
    6.5665   -7.0830    4.7847 H   0  0  0  0  0  0  0  0  0  0  0  0
    5.9442   -5.4657    4.5236 H   0  0  0  0  0  0  0  0  0  0  0  0
    8.8125   -7.0424    2.5851 H   0  0  0  0  0  0  0  0  0  0  0  0
    7.8016   -7.7704    1.3325 H   0  0  0  0  0  0  0  0  0  0  0  0
    7.7166   -8.3522    2.9822 H   0  0  0  0  0  0  0  0  0  0  0  0
    6.8663   -4.2597    2.4770 H   0  0  0  0  0  0  0  0  0  0  0  0
    8.7197   -5.2158    1.1420 H   0  0  0  0  0  0  0  0  0  0  0  0
    7.5530   -5.8859    0.0566 H   0  0  0  0  0  0  0  0  0  0  0  0
    8.1603   -2.9821    0.6841 H   0  0  0  0  0  0  0  0  0  0  0  0
    9.0934   -3.0482   -1.2709 H   0  0  0  0  0  0  0  0  0  0  0  0
    7.0721   -2.5035   -2.3500 H   0  0  0  0  0  0  0  0  0  0  0  0
    5.7469   -3.6175   -2.5198 H   0  0  0  0  0  0  0  0  0  0  0  0
    5.7872   -0.6930   -2.2201 H   0  0  0  0  0  0  0  0  0  0  0  0
    3.5159   -0.9969   -2.7050 H   0  0  0  0  0  0  0  0  0  0  0  0
    4.5266   -0.3050   -0.2848 H   0  0  0  0  0  0  0  0  0  0  0  0
    3.3135   -2.1122    0.9652 H   0  0  0  0  0  0  0  0  0  0  0  0
    2.6385   -1.8790   -0.6169 H   0  0  0  0  0  0  0  0  0  0  0  0
    2.9405   -4.3147   -0.0050 H   0  0  0  0  0  0  0  0  0  0  0  0
    3.5976   -3.8525   -1.5057 H   0  0  0  0  0  0  0  0  0  0  0  0
    5.3156   -5.0677   -0.7844 H   0  0  0  0  0  0  0  0  0  0  0  0
    4.6698   -3.4949    2.8558 H   0  0  0  0  0  0  0  0  0  0  0  0
    4.2061   -5.1138    3.2773 H   0  0  0  0  0  0  0  0  0  0  0  0
    3.2788   -4.2629    2.1031 H   0  0  0  0  0  0  0  0  0  0  0  0
    6.8214   -1.1452   -0.0020 H   0  0  0  0  0  0  0  0  0  0  0  0
    5.1523   -2.3167    1.8883 H   0  0  0  0  0  0  0  0  0  0  0  0
  1  2  1  0
  1 23  1  0
  1 24  1  0
  1 25  1  0
  2 19  1  0
  2  3  1  0
  2 26  1  6
  3  4  1  0
  4  5  1  0
  4  6  1  0
  4  7  1  0
  5 27  1  0
  5 28  1  0
  5 29  1  0
  6 30  1  0
  6 31  1  0
  6 32  1  0
  7 19  1  0
  7  8  1  0
  7 33  1  1
  8  9  1  0
  8 34  1  0
  8 35  1  0
  9 10  1  0
  9 11  1  0
  9 36  1  1
 10 37  1  0
 11 18  1  0
 11 21  1  0
 11 12  1  6
 12 13  1  0
 12 38  1  0
 12 39  1  0
 13 14  1  0
 13 15  1  0
 13 40  1  6
 14 41  1  0
 15 16  1  0
 15 21  1  0
 15 42  1  6
 16 17  1  0
 16 43  1  0
 16 44  1  0
 17 18  1  0
 17 45  1  0
 17 46  1  0
 18 19  1  0
 18 47  1  6
 19 20  1  1
 20 48  1  0
 20 49  1  0
 20 50  1  0
 21 22  1  0
 21 51  1  6
 22 52  1  0
M  END
>  <i_m_ct_stereo_status>  (217) 
1

>  <s_m_source_file>  (217) 
/var/tmp/pbs.5076255.sched01/tmpc2azvghe/701e6xuegj.sdf

>  <i_m_source_file_index>  (217) 
24

>  <i_lp_mmshare_version>  (217) 
48012

>  <i_f3d_flags>  (217) 
0

>  <s_epik_input>  (217) 
W0NIM11bQ0BASF0xT0MoW0NIM10pKFtDSDNdKVtDQEBIXShbQ0gyXVtDQEhdMltPSF0pW0NAQF0xKFtDSDNdKVtDQEhdKFtDQEBdMjM0KVtDSDJdW0NIMl1bQ0BIXShbQ0BASF0oW0NIMl0zKVtPSF0pW0NASF00W09IXQ==

>  <s_epik_cmdline>  (217) 
J2VwaWtfcHl0aG9uJywgJy1waHQnLCAnMi4wJywgJy1waCcsICc3LjAnLCAnLXRuJywgJzgnLCAnLW1hJywgJzIwMCcsICctaW1hZScsICc8aW5maWxlLm1hZT4nLCAnLW9tYWUnLCAnPG91dGZpbGUubWFlPic=

>  <r_lp_tautomer_probability>  (217) 
1

>  <r_epik_Ionization_Penalty>  (217) 
1.46879e-06

>  <r_epik_Ionization_Penalty_Charging>  (217) 
0

>  <r_epik_Ionization_Penalty_Neutral>  (217) 
1.46879e-06

>  <r_epik_State_Penalty>  (217) 
-0

>  <r_epik_Charging_Adjusted_Penalty>  (217) 
0

>  <i_epik_Tot_Q>  (217) 
0

>  <i_epik_Tot_abs_Q>  (217) 
0

>  <s_lp_Force_Field>  (217) 
OPLS3e

>  <r_lp_Energy>  (217) 
49.247

>  <b_lp_Chiralities_Consistent>  (217) 
1

>  <s_lp_Variant>  (217) 
76:0-1

>  <s_i_glide_gridfile>  (217) 
pfpi4k_grid

>  <i_i_glide_lignum>  (217) 
24

>  <i_i_glide_rotatable_bonds>  (217) 
3

>  <r_i_docking_score>  (217) 
-3.81198

>  <r_i_glide_ligand_efficiency>  (217) 
-0.173272

>  <r_i_glide_ligand_efficiency_sa>  (217) 
-0.485514

>  <r_i_glide_ligand_efficiency_ln>  (217) 
-0.931786

>  <r_i_glide_gscore>  (217) 
-3.81198

>  <r_i_glide_lipo>  (217) 
-0.799382

>  <r_i_glide_hbond>  (217) 
-0.0611886

>  <r_i_glide_metal>  (217) 
-0

>  <r_i_glide_rewards>  (217) 
-1.29253

>  <r_i_glide_evdw>  (217) 
-25.6421

>  <r_i_glide_ecoul>  (217) 
-2.51178

>  <r_i_glide_erotb>  (217) 
0

>  <r_i_glide_esite>  (217) 
0

>  <r_i_glide_emodel>  (217) 
-33.5447

>  <r_i_glide_energy>  (217) 
-28.1539

>  <r_i_glide_einternal>  (217) 
1.5071

>  <r_i_glide_intrahb_reward>  (217) 
-0

>  <i_i_glide_confnum>  (217) 
2

>  <i_i_glide_posenum>  (217) 
19

>  <r_i_glide_eff_state_penalty>  (217) 
0

>  <ligand_id>  (217) 
76

>  <original_smiles>  (217) 
CC1OC(C)(C)C2CC(O)C34CC(O)C(CCC3C12C)C4O

>  <smiles>  (217) 
[H]OC1([H])C([H])([H])C23C([H])(O[H])C([H])([H])C4([H])C(C([H])([H])[H])(C([H])([H])[H])OC([H])(C([H])([H])[H])C4(C([H])([H])[H])C2([H])C([H])([H])C([H])([H])C1([H])C3([H])O[H]

$$$$
76:0:2
     RDKit          3D

 52 55  0  0  1  0  0  0  0  0999 V2000
    2.5991   -6.7228    1.4261 C   0  0  0  0  0  0  0  0  0  0  0  0
    4.0305   -6.3275    1.8156 C   0  0  2  0  0  0  0  0  0  0  0  0
    4.2432   -6.6570    3.1765 O   0  0  0  0  0  0  0  0  0  0  0  0
    5.4270   -6.0254    3.6388 C   0  0  0  0  0  0  0  0  0  0  0  0
    5.1333   -5.4585    5.0405 C   0  0  0  0  0  0  0  0  0  0  0  0
    6.4924   -7.1343    3.7646 C   0  0  0  0  0  0  0  0  0  0  0  0
    5.7060   -4.9010    2.5894 C   0  0  1  0  0  0  0  0  0  0  0  0
    6.9644   -5.1278    1.7187 C   0  0  0  0  0  0  0  0  0  0  0  0
    7.2430   -3.9521    0.7741 C   0  0  1  0  0  0  0  0  0  0  0  0
    8.3559   -4.3244   -0.0187 O   0  0  0  0  0  0  0  0  0  0  0  0
    5.9877   -3.4511   -0.0156 C   0  0  1  0  0  0  0  0  0  0  0  0
    6.1898   -3.3424   -1.5666 C   0  0  0  0  0  0  0  0  0  0  0  0
    5.4220   -2.0874   -2.0319 C   0  0  1  0  0  0  0  0  0  0  0  0
    4.6042   -2.2932   -3.1701 O   0  0  0  0  0  0  0  0  0  0  0  0
    4.6977   -1.5743   -0.7857 C   0  0  1  0  0  0  0  0  0  0  0  0
    3.3594   -2.2939   -0.5343 C   0  0  0  0  0  0  0  0  0  0  0  0
    3.4838   -3.8298   -0.5292 C   0  0  0  0  0  0  0  0  0  0  0  0
    4.7188   -4.3604    0.2484 C   0  0  2  0  0  0  0  0  0  0  0  0
    4.4228   -4.8275    1.7331 C   0  0  1  0  0  0  0  0  0  0  0  0
    3.3350   -3.9843    2.4644 C   0  0  0  0  0  0  0  0  0  0  0  0
    5.7190   -1.9536    0.2867 C   0  0  1  0  0  0  0  0  0  0  0  0
    5.3150   -1.6347    1.5981 O   0  0  0  0  0  0  0  0  0  0  0  0
    2.3978   -6.5072    0.3790 H   0  0  0  0  0  0  0  0  0  0  0  0
    1.8481   -6.2180    2.0318 H   0  0  0  0  0  0  0  0  0  0  0  0
    2.4606   -7.7948    1.5734 H   0  0  0  0  0  0  0  0  0  0  0  0
    4.7235   -6.9309    1.2275 H   0  0  0  0  0  0  0  0  0  0  0  0
    6.0307   -5.0284    5.4860 H   0  0  0  0  0  0  0  0  0  0  0  0
    4.7741   -6.2394    5.7107 H   0  0  0  0  0  0  0  0  0  0  0  0
    4.3778   -4.6768    5.0260 H   0  0  0  0  0  0  0  0  0  0  0  0
    7.4442   -6.7387    4.1222 H   0  0  0  0  0  0  0  0  0  0  0  0
    6.6664   -7.6470    2.8192 H   0  0  0  0  0  0  0  0  0  0  0  0
    6.1697   -7.8921    4.4802 H   0  0  0  0  0  0  0  0  0  0  0  0
    5.8432   -3.9526    3.1110 H   0  0  0  0  0  0  0  0  0  0  0  0
    7.8391   -5.2571    2.3550 H   0  0  0  0  0  0  0  0  0  0  0  0
    6.8740   -6.0466    1.1409 H   0  0  0  0  0  0  0  0  0  0  0  0
    7.5988   -3.1236    1.3820 H   0  0  0  0  0  0  0  0  0  0  0  0
    8.5812   -3.6084   -0.5952 H   0  0  0  0  0  0  0  0  0  0  0  0
    7.2306   -3.1853   -1.8450 H   0  0  0  0  0  0  0  0  0  0  0  0
    5.8610   -4.2412   -2.0896 H   0  0  0  0  0  0  0  0  0  0  0  0
    6.1566   -1.3355   -2.3122 H   0  0  0  0  0  0  0  0  0  0  0  0
    3.9256   -2.9119   -2.9467 H   0  0  0  0  0  0  0  0  0  0  0  0
    4.5443   -0.4936   -0.8296 H   0  0  0  0  0  0  0  0  0  0  0  0
    2.9249   -1.9487    0.4045 H   0  0  0  0  0  0  0  0  0  0  0  0
    2.6471   -1.9987   -1.3073 H   0  0  0  0  0  0  0  0  0  0  0  0
    2.5536   -4.2809   -0.2032 H   0  0  0  0  0  0  0  0  0  0  0  0
    3.5705   -4.1648   -1.5594 H   0  0  0  0  0  0  0  0  0  0  0  0
    4.9610   -5.2967   -0.2644 H   0  0  0  0  0  0  0  0  0  0  0  0
    3.6848   -3.0076    2.7806 H   0  0  0  0  0  0  0  0  0  0  0  0
    2.9901   -4.4822    3.3678 H   0  0  0  0  0  0  0  0  0  0  0  0
    2.4303   -3.8353    1.8792 H   0  0  0  0  0  0  0  0  0  0  0  0
    6.6356   -1.3851    0.1204 H   0  0  0  0  0  0  0  0  0  0  0  0
    4.4741   -2.0353    1.7494 H   0  0  0  0  0  0  0  0  0  0  0  0
  1  2  1  0
  1 23  1  0
  1 24  1  0
  1 25  1  0
  2 19  1  0
  2  3  1  0
  2 26  1  6
  3  4  1  0
  4  5  1  0
  4  6  1  0
  4  7  1  0
  5 27  1  0
  5 28  1  0
  5 29  1  0
  6 30  1  0
  6 31  1  0
  6 32  1  0
  7 19  1  0
  7  8  1  0
  7 33  1  1
  8  9  1  0
  8 34  1  0
  8 35  1  0
  9 10  1  0
  9 11  1  0
  9 36  1  1
 10 37  1  0
 11 18  1  0
 11 21  1  0
 11 12  1  6
 12 13  1  0
 12 38  1  0
 12 39  1  0
 13 14  1  0
 13 15  1  0
 13 40  1  6
 14 41  1  0
 15 16  1  0
 15 21  1  0
 15 42  1  6
 16 17  1  0
 16 43  1  0
 16 44  1  0
 17 18  1  0
 17 45  1  0
 17 46  1  0
 18 19  1  0
 18 47  1  6
 19 20  1  1
 20 48  1  0
 20 49  1  0
 20 50  1  0
 21 22  1  0
 21 51  1  6
 22 52  1  0
M  END
>  <i_m_ct_stereo_status>  (218) 
1

>  <s_m_source_file>  (218) 
/var/tmp/pbs.5076255.sched01/tmpc2azvghe/701e6xuegj.sdf

>  <i_m_source_file_index>  (218) 
24

>  <i_lp_mmshare_version>  (218) 
48012

>  <i_f3d_flags>  (218) 
0

>  <s_epik_input>  (218) 
W0NIM11bQ0BASF0xT0MoW0NIM10pKFtDSDNdKVtDQEBIXShbQ0gyXVtDQEhdMltPSF0pW0NAQF0xKFtDSDNdKVtDQEhdKFtDQEBdMjM0KVtDSDJdW0NIMl1bQ0BIXShbQ0BASF0oW0NIMl0zKVtPSF0pW0NASF00W09IXQ==

>  <s_epik_cmdline>  (218) 
J2VwaWtfcHl0aG9uJywgJy1waHQnLCAnMi4wJywgJy1waCcsICc3LjAnLCAnLXRuJywgJzgnLCAnLW1hJywgJzIwMCcsICctaW1hZScsICc8aW5maWxlLm1hZT4nLCAnLW9tYWUnLCAnPG91dGZpbGUubWFlPic=

>  <r_lp_tautomer_probability>  (218) 
1

>  <r_epik_Ionization_Penalty>  (218) 
1.46879e-06

>  <r_epik_Ionization_Penalty_Charging>  (218) 
0

>  <r_epik_Ionization_Penalty_Neutral>  (218) 
1.46879e-06

>  <r_epik_State_Penalty>  (218) 
-0

>  <r_epik_Charging_Adjusted_Penalty>  (218) 
0

>  <i_epik_Tot_Q>  (218) 
0

>  <i_epik_Tot_abs_Q>  (218) 
0

>  <s_lp_Force_Field>  (218) 
OPLS3e

>  <r_lp_Energy>  (218) 
49.247

>  <b_lp_Chiralities_Consistent>  (218) 
1

>  <s_lp_Variant>  (218) 
76:0-1

>  <s_i_glide_gridfile>  (218) 
pfpi4k_grid

>  <i_i_glide_lignum>  (218) 
24

>  <i_i_glide_rotatable_bonds>  (218) 
3

>  <r_i_docking_score>  (218) 
-3.39102

>  <r_i_glide_ligand_efficiency>  (218) 
-0.154137

>  <r_i_glide_ligand_efficiency_sa>  (218) 
-0.431899

>  <r_i_glide_ligand_efficiency_ln>  (218) 
-0.82889

>  <r_i_glide_gscore>  (218) 
-3.39102

>  <r_i_glide_lipo>  (218) 
-0.593137

>  <r_i_glide_hbond>  (218) 
0

>  <r_i_glide_metal>  (218) 
-0

>  <r_i_glide_rewards>  (218) 
-1.29253

>  <r_i_glide_evdw>  (218) 
-22.304

>  <r_i_glide_ecoul>  (218) 
-2.60102

>  <r_i_glide_erotb>  (218) 
0

>  <r_i_glide_esite>  (218) 
0

>  <r_i_glide_emodel>  (218) 
-30.3768

>  <r_i_glide_energy>  (218) 
-24.905

>  <r_i_glide_einternal>  (218) 
0.372326

>  <r_i_glide_intrahb_reward>  (218) 
-0

>  <i_i_glide_confnum>  (218) 
2

>  <i_i_glide_posenum>  (218) 
4

>  <r_i_glide_eff_state_penalty>  (218) 
0

>  <ligand_id>  (218) 
76

>  <original_smiles>  (218) 
CC1OC(C)(C)C2CC(O)C34CC(O)C(CCC3C12C)C4O

>  <smiles>  (218) 
[H]OC1([H])C([H])([H])C23C([H])(O[H])C([H])([H])C4([H])C(C([H])([H])[H])(C([H])([H])[H])OC([H])(C([H])([H])[H])C4(C([H])([H])[H])C2([H])C([H])([H])C([H])([H])C1([H])C3([H])O[H]

$$$$
77:0:0
     RDKit          3D

 70 75  0  0  1  0  0  0  0  0999 V2000
   -0.7428   -1.5431    4.9375 C   0  0  0  0  0  0  0  0  0  0  0  0
    0.6396   -1.3182    5.0775 O   0  0  0  0  0  0  0  0  0  0  0  0
    1.1681   -0.1236    4.7986 C   0  0  0  0  0  0  0  0  0  0  0  0
    0.4662    0.8612    4.5034 O   0  0  0  0  0  0  0  0  0  0  0  0
    2.7084   -0.0463    4.8645 C   0  0  1  0  0  0  0  0  0  0  0  0
    3.0899    1.4609    5.0007 C   0  0  0  0  0  0  0  0  0  0  0  0
    3.2560   -0.7205    6.1521 C   0  0  0  0  0  0  0  0  0  0  0  0
    3.4460   -2.2431    6.0617 C   0  0  0  0  0  0  0  0  0  0  0  0
    4.3688   -2.5968    4.8890 C   0  0  0  0  0  0  0  0  0  0  0  0
    3.7768   -2.1754    3.5210 C   0  0  1  0  0  0  0  0  0  0  0  0
    2.5296   -3.0605    3.1984 C   0  0  0  0  0  0  0  0  0  0  0  0
    3.4898   -0.6290    3.6140 C   0  0  1  0  0  0  0  0  0  0  0  0
    3.0169   -0.0416    2.2683 C   0  0  0  0  0  0  0  0  0  0  0  0
    3.3256   -0.9036    1.0382 C   0  0  0  0  0  0  0  0  0  0  0  0
    4.6832   -1.6676    1.0205 C   0  0  2  0  0  0  0  0  0  0  0  0
    5.7895   -0.5921    0.8212 C   0  0  0  0  0  0  0  0  0  0  0  0
    4.7049   -2.7362   -0.1883 C   0  0  1  0  0  0  0  0  0  0  0  0
    4.7613   -2.3226   -1.6740 C   0  0  0  0  0  0  0  0  0  0  0  0
    4.1201   -3.3465   -2.6539 C   0  0  0  0  0  0  0  0  0  0  0  0
    3.2944   -2.5600   -3.6915 C   0  0  0  0  0  0  0  0  0  0  0  0
    3.7162   -1.1072   -3.5494 C   0  0  0  0  0  0  0  0  0  0  0  0
    4.0670   -1.0187   -2.0828 C   0  0  0  0  0  0  0  0  0  0  0  0
    6.1629   -2.2681   -1.8970 O   0  0  0  0  0  0  0  0  0  0  0  0
    6.7533   -3.4353   -1.1341 O   0  0  0  0  0  0  0  0  0  0  0  0
    5.8562   -3.7852   -0.1009 C   0  0  1  0  0  0  0  0  0  0  0  0
    6.6060   -3.7646    1.2452 C   0  0  0  0  0  0  0  0  0  0  0  0
    5.4915   -3.8415    2.2737 C   0  0  1  0  0  0  0  0  0  0  0  0
    4.9591   -5.3057    2.2377 C   0  0  0  0  0  0  0  0  0  0  0  0
    4.7866   -5.8628    0.7725 C   0  0  0  0  0  0  0  0  0  0  0  0
    4.2135   -6.9411    0.6134 O   0  0  0  0  0  0  0  0  0  0  0  0
    5.3139   -5.1094   -0.2507 O   0  0  0  0  0  0  0  0  0  0  0  0
    4.9148   -2.3936    2.4408 C   0  0  2  0  0  0  0  0  0  0  0  0
   -0.9432   -2.6110    5.0128 H   0  0  0  0  0  0  0  0  0  0  0  0
   -1.1286   -1.2106    3.9659 H   0  0  0  0  0  0  0  0  0  0  0  0
   -1.3056   -1.0285    5.7193 H   0  0  0  0  0  0  0  0  0  0  0  0
    4.1594    1.6003    5.1470 H   0  0  0  0  0  0  0  0  0  0  0  0
    2.5859    1.9127    5.8620 H   0  0  0  0  0  0  0  0  0  0  0  0
    2.8041    2.0410    4.1188 H   0  0  0  0  0  0  0  0  0  0  0  0
    4.2075   -0.2726    6.4337 H   0  0  0  0  0  0  0  0  0  0  0  0
    2.5666   -0.5231    6.9787 H   0  0  0  0  0  0  0  0  0  0  0  0
    3.9159   -2.5835    6.9853 H   0  0  0  0  0  0  0  0  0  0  0  0
    2.5022   -2.7768    5.9947 H   0  0  0  0  0  0  0  0  0  0  0  0
    5.3142   -2.0785    5.0568 H   0  0  0  0  0  0  0  0  0  0  0  0
    4.6013   -3.6627    4.9056 H   0  0  0  0  0  0  0  0  0  0  0  0
    2.4914   -3.3814    2.1537 H   0  0  0  0  0  0  0  0  0  0  0  0
    1.5935   -2.5652    3.3509 H   0  0  0  0  0  0  0  0  0  0  0  0
    2.5373   -3.9858    3.7847 H   0  0  0  0  0  0  0  0  0  0  0  0
    4.4789   -0.2022    3.7329 H   0  0  0  0  0  0  0  0  0  0  0  0
    1.9591    0.2046    2.2680 H   0  0  0  0  0  0  0  0  0  0  0  0
    3.5300    0.9093    2.1240 H   0  0  0  0  0  0  0  0  0  0  0  0
    2.4956   -1.6016    0.8974 H   0  0  0  0  0  0  0  0  0  0  0  0
    3.2675   -0.2125    0.2271 H   0  0  0  0  0  0  0  0  0  0  0  0
    6.7696   -0.9993    0.5729 H   0  0  0  0  0  0  0  0  0  0  0  0
    5.8967    0.0055    1.7289 H   0  0  0  0  0  0  0  0  0  0  0  0
    5.5388    0.1191    0.0594 H   0  0  0  0  0  0  0  0  0  0  0  0
    3.7573   -3.2660   -0.0632 H   0  0  0  0  0  0  0  0  0  0  0  0
    4.8645   -3.9798   -3.1305 H   0  0  0  0  0  0  0  0  0  0  0  0
    3.4378   -4.0063   -2.1171 H   0  0  0  0  0  0  0  0  0  0  0  0
    3.4164   -2.9266   -4.7070 H   0  0  0  0  0  0  0  0  0  0  0  0
    2.2319   -2.6442   -3.4390 H   0  0  0  0  0  0  0  0  0  0  0  0
    4.5819   -0.8713   -4.1822 H   0  0  0  0  0  0  0  0  0  0  0  0
    2.9200   -0.4032   -3.7662 H   0  0  0  0  0  0  0  0  0  0  0  0
    3.1107   -0.9690   -1.5912 H   0  0  0  0  0  0  0  0  0  0  0  0
    4.6686   -0.1360   -1.8828 H   0  0  0  0  0  0  0  0  0  0  0  0
    7.2986   -4.6007    1.3308 H   0  0  0  0  0  0  0  0  0  0  0  0
    7.2143   -2.8781    1.3713 H   0  0  0  0  0  0  0  0  0  0  0  0
    4.5103   -3.8342    1.8487 H   0  0  0  0  0  0  0  0  0  0  0  0
    5.6920   -5.9595    2.6967 H   0  0  0  0  0  0  0  0  0  0  0  0
    4.0299   -5.4542    2.7820 H   0  0  0  0  0  0  0  0  0  0  0  0
    5.7667   -1.8786    2.8808 H   0  0  0  0  0  0  0  0  0  0  0  0
  1  2  1  0
  1 33  1  0
  1 34  1  0
  1 35  1  0
  2  3  1  0
  3  4  2  0
  3  5  1  0
  5 12  1  0
  5  6  1  1
  5  7  1  0
  6 36  1  0
  6 37  1  0
  6 38  1  0
  7  8  1  0
  7 39  1  0
  7 40  1  0
  8  9  1  0
  8 41  1  0
  8 42  1  0
  9 10  1  0
  9 43  1  0
  9 44  1  0
 10 32  1  0
 10 11  1  6
 10 12  1  0
 11 45  1  0
 11 46  1  0
 11 47  1  0
 12 13  1  0
 12 48  1  1
 13 14  1  0
 13 49  1  0
 13 50  1  0
 14 15  1  0
 14 51  1  0
 14 52  1  0
 15 32  1  0
 15 16  1  6
 15 17  1  0
 16 53  1  0
 16 54  1  0
 16 55  1  0
 17 25  1  0
 17 18  1  0
 17 56  1  6
 18 22  1  0
 18 19  1  0
 18 23  1  0
 19 20  1  0
 19 57  1  0
 19 58  1  0
 20 21  1  0
 20 59  1  0
 20 60  1  0
 21 22  1  0
 21 61  1  0
 21 62  1  0
 22 63  1  0
 22 64  1  0
 23 24  1  0
 25 24  1  6
 25 31  1  0
 25 26  1  0
 26 27  1  0
 26 65  1  0
 26 66  1  0
 27 28  1  0
 27 32  1  0
 27 67  1  1
 28 29  1  0
 28 68  1  0
 28 69  1  0
 29 30  2  0
 29 31  1  0
 32 70  1  1
M  END
>  <i_m_ct_stereo_status>  (219) 
1

>  <s_m_source_file>  (219) 
/var/tmp/pbs.5076255.sched01/tmpc2azvghe/701e6xuegj.sdf

>  <i_m_source_file_index>  (219) 
25

>  <i_lp_mmshare_version>  (219) 
48012

>  <i_f3d_flags>  (219) 
0

>  <s_epik_input>  (219) 
W0NIM11PQyg9TylbQ0BAXShbQ0gzXSkoW0NIMl1bQ0gyXVtDSDJdMSlbQ0BIXShbQ0gyXVtDSDJdW0NAXTIzW0NIM10pW0NAQF0xKFtDSDNdKVtDQEhdM1tDQEhdKFtDSDJdQyg9TylPNClbQ0gyXVtDQF00KE9PNSlbQ0BASF0yQzU2W0NIMl1bQ0gyXVtDSDJdW0NIMl02

>  <s_epik_cmdline>  (219) 
J2VwaWtfcHl0aG9uJywgJy1waHQnLCAnMi4wJywgJy1waCcsICc3LjAnLCAnLXRuJywgJzgnLCAnLW1hJywgJzIwMCcsICctaW1hZScsICc8aW5maWxlLm1hZT4nLCAnLW9tYWUnLCAnPG91dGZpbGUubWFlPic=

>  <r_lp_tautomer_probability>  (219) 
1

>  <r_epik_Ionization_Penalty>  (219) 
1.11058e-10

>  <r_epik_Ionization_Penalty_Charging>  (219) 
0

>  <r_epik_Ionization_Penalty_Neutral>  (219) 
1.11058e-10

>  <r_epik_State_Penalty>  (219) 
-0

>  <r_epik_Charging_Adjusted_Penalty>  (219) 
0

>  <i_epik_Tot_Q>  (219) 
0

>  <i_epik_Tot_abs_Q>  (219) 
0

>  <s_epik_Chemistry_Notes>  (219) 
This compound has an ester and may undergo hydrolysis at high or low pH.

>  <s_lp_Force_Field>  (219) 
OPLS3e

>  <r_lp_Energy>  (219) 
147.343

>  <b_lp_Chiralities_Consistent>  (219) 
1

>  <s_lp_Variant>  (219) 
77:0-1

>  <s_i_glide_gridfile>  (219) 
pfpi4k_grid

>  <i_i_glide_lignum>  (219) 
25

>  <i_i_glide_rotatable_bonds>  (219) 
2

>  <r_i_docking_score>  (219) 
-3.24282

>  <r_i_glide_ligand_efficiency>  (219) 
-0.101338

>  <r_i_glide_ligand_efficiency_sa>  (219) 
-0.321728

>  <r_i_glide_ligand_efficiency_ln>  (219) 
-0.726155

>  <r_i_glide_gscore>  (219) 
-3.24282

>  <r_i_glide_lipo>  (219) 
-0.743353

>  <r_i_glide_hbond>  (219) 
-0.0492853

>  <r_i_glide_metal>  (219) 
-0

>  <r_i_glide_rewards>  (219) 
-0.583472

>  <r_i_glide_evdw>  (219) 
-35.3875

>  <r_i_glide_ecoul>  (219) 
-1.31255

>  <r_i_glide_erotb>  (219) 
0.100374

>  <r_i_glide_esite>  (219) 
-0.000821529

>  <r_i_glide_emodel>  (219) 
-43.7142

>  <r_i_glide_energy>  (219) 
-36.7

>  <r_i_glide_einternal>  (219) 
0.108023

>  <r_i_glide_intrahb_reward>  (219) 
-0

>  <i_i_glide_confnum>  (219) 
1

>  <i_i_glide_posenum>  (219) 
12

>  <r_i_glide_eff_state_penalty>  (219) 
0

>  <ligand_id>  (219) 
77

>  <original_smiles>  (219) 
COC(=O)C1(C)CCCC2(C)C1CCC1(C)C3C4(CCCC4)OOC34CC(CC(=O)O4)C12

>  <smiles>  (219) 
[H]C([H])([H])OC(=O)C1(C([H])([H])[H])C([H])([H])C([H])([H])C([H])([H])C2(C([H])([H])[H])C1([H])C([H])([H])C([H])([H])C1(C([H])([H])[H])C3([H])C4(OOC35C([H])([H])C([H])([H])C([H])([H])C5([H])[H])OC(=O)C([H])([H])C([H])(C4([H])[H])C12[H]

$$$$
77:0:1
     RDKit          3D

 70 75  0  0  1  0  0  0  0  0999 V2000
   -1.7623   -8.9706    2.8720 C   0  0  0  0  0  0  0  0  0  0  0  0
   -0.4358   -8.8027    3.3359 O   0  0  0  0  0  0  0  0  0  0  0  0
    0.2070   -7.6523    3.0829 C   0  0  0  0  0  0  0  0  0  0  0  0
   -0.3568   -6.7019    2.5236 O   0  0  0  0  0  0  0  0  0  0  0  0
    1.6573   -7.5920    3.6264 C   0  0  1  0  0  0  0  0  0  0  0  0
    1.5848   -7.8260    5.1592 C   0  0  0  0  0  0  0  0  0  0  0  0
    2.5194   -8.7536    3.0740 C   0  0  0  0  0  0  0  0  0  0  0  0
    3.1341   -8.5244    1.6897 C   0  0  0  0  0  0  0  0  0  0  0  0
    3.9814   -7.2383    1.6918 C   0  0  0  0  0  0  0  0  0  0  0  0
    3.1344   -5.9832    2.0038 C   0  0  1  0  0  0  0  0  0  0  0  0
    2.1886   -5.7558    0.7932 C   0  0  0  0  0  0  0  0  0  0  0  0
    2.4218   -6.2209    3.3800 C   0  0  1  0  0  0  0  0  0  0  0  0
    1.6834   -4.9770    3.9190 C   0  0  0  0  0  0  0  0  0  0  0  0
    2.0512   -3.6580    3.2290 C   0  0  0  0  0  0  0  0  0  0  0  0
    3.5568   -3.4420    2.8980 C   0  0  2  0  0  0  0  0  0  0  0  0
    4.2701   -3.2436    4.2654 C   0  0  0  0  0  0  0  0  0  0  0  0
    3.7308   -2.1627    1.9413 C   0  0  1  0  0  0  0  0  0  0  0  0
    3.4633   -0.7214    2.4392 C   0  0  0  0  0  0  0  0  0  0  0  0
    3.0374    0.2620    1.3192 C   0  0  0  0  0  0  0  0  0  0  0  0
    1.9031    1.1487    1.8860 C   0  0  0  0  0  0  0  0  0  0  0  0
    1.9085    0.9223    3.3872 C   0  0  0  0  0  0  0  0  0  0  0  0
    2.3798   -0.5111    3.5136 C   0  0  0  0  0  0  0  0  0  0  0  0
    4.7578   -0.3597    2.9031 O   0  0  0  0  0  0  0  0  0  0  0  0
    5.7451   -0.9463    1.9211 O   0  0  0  0  0  0  0  0  0  0  0  0
    5.1312   -2.0447    1.2628 C   0  0  1  0  0  0  0  0  0  0  0  0
    5.9943   -3.2939    1.4383 C   0  0  0  0  0  0  0  0  0  0  0  0
    5.0975   -4.4250    0.9810 C   0  0  1  0  0  0  0  0  0  0  0  0
    4.9947   -4.3022   -0.5736 C   0  0  0  0  0  0  0  0  0  0  0  0
    4.8272   -2.8444   -1.0861 C   0  0  0  0  0  0  0  0  0  0  0  0
    4.6040   -2.6369   -2.2832 O   0  0  0  0  0  0  0  0  0  0  0  0
    4.9843   -1.8251   -0.1603 O   0  0  0  0  0  0  0  0  0  0  0  0
    4.1449   -4.7698    2.1801 C   0  0  2  0  0  0  0  0  0  0  0  0
   -2.2117   -9.8726    3.2791 H   0  0  0  0  0  0  0  0  0  0  0  0
   -1.7443   -9.0394    1.7775 H   0  0  0  0  0  0  0  0  0  0  0  0
   -2.3980   -8.1281    3.1539 H   0  0  0  0  0  0  0  0  0  0  0  0
    2.5846   -7.8712    5.6038 H   0  0  0  0  0  0  0  0  0  0  0  0
    1.1108   -8.7837    5.4097 H   0  0  0  0  0  0  0  0  0  0  0  0
    1.0373   -7.0420    5.6851 H   0  0  0  0  0  0  0  0  0  0  0  0
    3.3291   -8.9815    3.7735 H   0  0  0  0  0  0  0  0  0  0  0  0
    1.9355   -9.6721    3.0204 H   0  0  0  0  0  0  0  0  0  0  0  0
    3.7841   -9.3689    1.4546 H   0  0  0  0  0  0  0  0  0  0  0  0
    2.3712   -8.5100    0.9079 H   0  0  0  0  0  0  0  0  0  0  0  0
    4.7608   -7.3661    2.4501 H   0  0  0  0  0  0  0  0  0  0  0  0
    4.5098   -7.1495    0.7378 H   0  0  0  0  0  0  0  0  0  0  0  0
    2.0324   -4.7122    0.5690 H   0  0  0  0  0  0  0  0  0  0  0  0
    1.2222   -6.2185    0.9062 H   0  0  0  0  0  0  0  0  0  0  0  0
    2.6073   -6.1721   -0.1231 H   0  0  0  0  0  0  0  0  0  0  0  0
    3.2615   -6.3097    4.0639 H   0  0  0  0  0  0  0  0  0  0  0  0
    0.6048   -5.0769    3.8851 H   0  0  0  0  0  0  0  0  0  0  0  0
    1.9125   -4.8892    4.9746 H   0  0  0  0  0  0  0  0  0  0  0  0
    1.4417   -3.5569    2.3369 H   0  0  0  0  0  0  0  0  0  0  0  0
    1.6998   -2.9202    3.9237 H   0  0  0  0  0  0  0  0  0  0  0  0
    5.2774   -2.8523    4.1720 H   0  0  0  0  0  0  0  0  0  0  0  0
    4.3261   -4.1776    4.8262 H   0  0  0  0  0  0  0  0  0  0  0  0
    3.7300   -2.5452    4.9023 H   0  0  0  0  0  0  0  0  0  0  0  0
    2.9965   -2.3298    1.1543 H   0  0  0  0  0  0  0  0  0  0  0  0
    3.8757    0.8752    0.9769 H   0  0  0  0  0  0  0  0  0  0  0  0
    2.6539   -0.2598    0.4359 H   0  0  0  0  0  0  0  0  0  0  0  0
    2.0141    2.2037    1.6408 H   0  0  0  0  0  0  0  0  0  0  0  0
    0.9540    0.8059    1.4692 H   0  0  0  0  0  0  0  0  0  0  0  0
    2.5904    1.6177    3.8874 H   0  0  0  0  0  0  0  0  0  0  0  0
    0.9273    1.0277    3.8347 H   0  0  0  0  0  0  0  0  0  0  0  0
    1.5257   -1.1063    3.2608 H   0  0  0  0  0  0  0  0  0  0  0  0
    2.7171   -0.7163    4.5201 H   0  0  0  0  0  0  0  0  0  0  0  0
    6.9100   -3.2410    0.8509 H   0  0  0  0  0  0  0  0  0  0  0  0
    6.3205   -3.4508    2.4568 H   0  0  0  0  0  0  0  0  0  0  0  0
    4.1038   -4.1024    0.7308 H   0  0  0  0  0  0  0  0  0  0  0  0
    5.9396   -4.6392   -0.9956 H   0  0  0  0  0  0  0  0  0  0  0  0
    4.2243   -4.9419   -1.0179 H   0  0  0  0  0  0  0  0  0  0  0  0
    4.8640   -5.1724    2.8938 H   0  0  0  0  0  0  0  0  0  0  0  0
  1  2  1  0
  1 33  1  0
  1 34  1  0
  1 35  1  0
  2  3  1  0
  3  4  2  0
  3  5  1  0
  5 12  1  0
  5  6  1  1
  5  7  1  0
  6 36  1  0
  6 37  1  0
  6 38  1  0
  7  8  1  0
  7 39  1  0
  7 40  1  0
  8  9  1  0
  8 41  1  0
  8 42  1  0
  9 10  1  0
  9 43  1  0
  9 44  1  0
 10 32  1  0
 10 11  1  6
 10 12  1  0
 11 45  1  0
 11 46  1  0
 11 47  1  0
 12 13  1  0
 12 48  1  1
 13 14  1  0
 13 49  1  0
 13 50  1  0
 14 15  1  0
 14 51  1  0
 14 52  1  0
 15 32  1  0
 15 16  1  1
 15 17  1  0
 16 53  1  0
 16 54  1  0
 16 55  1  0
 17 25  1  0
 17 18  1  0
 17 56  1  6
 18 22  1  0
 18 19  1  0
 18 23  1  0
 19 20  1  0
 19 57  1  0
 19 58  1  0
 20 21  1  0
 20 59  1  0
 20 60  1  0
 21 22  1  0
 21 61  1  0
 21 62  1  0
 22 63  1  0
 22 64  1  0
 23 24  1  0
 25 24  1  1
 25 31  1  0
 25 26  1  0
 26 27  1  0
 26 65  1  0
 26 66  1  0
 27 28  1  0
 27 32  1  0
 27 67  1  6
 28 29  1  0
 28 68  1  0
 28 69  1  0
 29 30  2  0
 29 31  1  0
 32 70  1  1
M  END
>  <i_m_ct_stereo_status>  (220) 
1

>  <s_m_source_file>  (220) 
/var/tmp/pbs.5076255.sched01/tmpc2azvghe/701e6xuegj.sdf

>  <i_m_source_file_index>  (220) 
25

>  <i_lp_mmshare_version>  (220) 
48012

>  <i_f3d_flags>  (220) 
0

>  <s_epik_input>  (220) 
W0NIM11PQyg9TylbQ0BAXShbQ0gzXSkoW0NIMl1bQ0gyXVtDSDJdMSlbQ0BIXShbQ0gyXVtDSDJdW0NAXTIzW0NIM10pW0NAQF0xKFtDSDNdKVtDQEhdM1tDQEhdKFtDSDJdQyg9TylPNClbQ0gyXVtDQF00KE9PNSlbQ0BASF0yQzU2W0NIMl1bQ0gyXVtDSDJdW0NIMl02

>  <s_epik_cmdline>  (220) 
J2VwaWtfcHl0aG9uJywgJy1waHQnLCAnMi4wJywgJy1waCcsICc3LjAnLCAnLXRuJywgJzgnLCAnLW1hJywgJzIwMCcsICctaW1hZScsICc8aW5maWxlLm1hZT4nLCAnLW9tYWUnLCAnPG91dGZpbGUubWFlPic=

>  <r_lp_tautomer_probability>  (220) 
1

>  <r_epik_Ionization_Penalty>  (220) 
1.11058e-10

>  <r_epik_Ionization_Penalty_Charging>  (220) 
0

>  <r_epik_Ionization_Penalty_Neutral>  (220) 
1.11058e-10

>  <r_epik_State_Penalty>  (220) 
-0

>  <r_epik_Charging_Adjusted_Penalty>  (220) 
0

>  <i_epik_Tot_Q>  (220) 
0

>  <i_epik_Tot_abs_Q>  (220) 
0

>  <s_epik_Chemistry_Notes>  (220) 
This compound has an ester and may undergo hydrolysis at high or low pH.

>  <s_lp_Force_Field>  (220) 
OPLS3e

>  <r_lp_Energy>  (220) 
147.343

>  <b_lp_Chiralities_Consistent>  (220) 
1

>  <s_lp_Variant>  (220) 
77:0-1

>  <s_i_glide_gridfile>  (220) 
pfpi4k_grid

>  <i_i_glide_lignum>  (220) 
25

>  <i_i_glide_rotatable_bonds>  (220) 
2

>  <r_i_docking_score>  (220) 
-3.14272

>  <r_i_glide_ligand_efficiency>  (220) 
-0.0982099

>  <r_i_glide_ligand_efficiency_sa>  (220) 
-0.311797

>  <r_i_glide_ligand_efficiency_ln>  (220) 
-0.70374

>  <r_i_glide_gscore>  (220) 
-3.14272

>  <r_i_glide_lipo>  (220) 
-0.311625

>  <r_i_glide_hbond>  (220) 
-0.16

>  <r_i_glide_metal>  (220) 
-0

>  <r_i_glide_rewards>  (220) 
-0.438695

>  <r_i_glide_evdw>  (220) 
-34.5611

>  <r_i_glide_ecoul>  (220) 
-3.74275

>  <r_i_glide_erotb>  (220) 
0.100374

>  <r_i_glide_esite>  (220) 
-0.0433036

>  <r_i_glide_emodel>  (220) 
-43.6835

>  <r_i_glide_energy>  (220) 
-38.3038

>  <r_i_glide_einternal>  (220) 
0.921395

>  <r_i_glide_intrahb_reward>  (220) 
-0

>  <i_i_glide_confnum>  (220) 
2

>  <i_i_glide_posenum>  (220) 
26

>  <r_i_glide_eff_state_penalty>  (220) 
0

>  <ligand_id>  (220) 
77

>  <original_smiles>  (220) 
COC(=O)C1(C)CCCC2(C)C1CCC1(C)C3C4(CCCC4)OOC34CC(CC(=O)O4)C12

>  <smiles>  (220) 
[H]C([H])([H])OC(=O)C1(C([H])([H])[H])C([H])([H])C([H])([H])C([H])([H])C2(C([H])([H])[H])C1([H])C([H])([H])C([H])([H])C1(C([H])([H])[H])C3([H])C4(OOC35C([H])([H])C([H])([H])C([H])([H])C5([H])[H])OC(=O)C([H])([H])C([H])(C4([H])[H])C12[H]

$$$$
77:0:2
     RDKit          3D

 70 75  0  0  1  0  0  0  0  0999 V2000
   -1.0026    1.2863    2.7395 C   0  0  0  0  0  0  0  0  0  0  0  0
    0.3167    1.1383    3.2331 O   0  0  0  0  0  0  0  0  0  0  0  0
    0.6568    0.1265    4.0555 C   0  0  0  0  0  0  0  0  0  0  0  0
   -0.1354   -0.7309    4.4745 O   0  0  0  0  0  0  0  0  0  0  0  0
    2.1722    0.1325    4.4383 C   0  0  1  0  0  0  0  0  0  0  0  0
    2.5900    1.6176    4.6398 C   0  0  0  0  0  0  0  0  0  0  0  0
    2.4140   -0.5425    5.8111 C   0  0  0  0  0  0  0  0  0  0  0  0
    2.5173   -2.0716    5.7843 C   0  0  0  0  0  0  0  0  0  0  0  0
    3.6129   -2.5090    4.8108 C   0  0  0  0  0  0  0  0  0  0  0  0
    3.3208   -2.0713    3.3598 C   0  0  1  0  0  0  0  0  0  0  0  0
    2.0672   -2.8631    2.8675 C   0  0  0  0  0  0  0  0  0  0  0  0
    3.1340   -0.5104    3.3711 C   0  0  1  0  0  0  0  0  0  0  0  0
    2.9558    0.0495    1.9482 C   0  0  0  0  0  0  0  0  0  0  0  0
    3.3644   -0.9092    0.8288 C   0  0  0  0  0  0  0  0  0  0  0  0
    4.6905   -1.6943    1.0428 C   0  0  2  0  0  0  0  0  0  0  0  0
    5.8733   -0.6831    1.0566 C   0  0  0  0  0  0  0  0  0  0  0  0
    4.8590   -2.7830   -0.1244 C   0  0  1  0  0  0  0  0  0  0  0  0
    5.2378   -2.3847   -1.5754 C   0  0  0  0  0  0  0  0  0  0  0  0
    4.6925   -3.4072   -2.6282 C   0  0  0  0  0  0  0  0  0  0  0  0
    3.6397   -2.6717   -3.4805 C   0  0  0  0  0  0  0  0  0  0  0  0
    3.3972   -1.3537   -2.7529 C   0  0  0  0  0  0  0  0  0  0  0  0
    4.7490   -1.0463   -2.1426 C   0  0  0  0  0  0  0  0  0  0  0  0
    6.6529   -2.4221   -1.5042 O   0  0  0  0  0  0  0  0  0  0  0  0
    7.0078   -3.6228   -0.6511 O   0  0  0  0  0  0  0  0  0  0  0  0
    5.8968   -3.9031    0.1997 C   0  0  1  0  0  0  0  0  0  0  0  0
    6.3820   -3.8944    1.6391 C   0  0  0  0  0  0  0  0  0  0  0  0
    5.1036   -3.8811    2.4564 C   0  0  1  0  0  0  0  0  0  0  0  0
    4.5018   -5.3116    2.3310 C   0  0  0  0  0  0  0  0  0  0  0  0
    4.5677   -5.9041    0.8976 C   0  0  0  0  0  0  0  0  0  0  0  0
    3.9769   -6.9458    0.6552 O   0  0  0  0  0  0  0  0  0  0  0  0
    5.3304   -5.2078   -0.0364 O   0  0  0  0  0  0  0  0  0  0  0  0
    4.5999   -2.3970    2.4939 C   0  0  2  0  0  0  0  0  0  0  0  0
   -1.0730    2.1622    2.0892 H   0  0  0  0  0  0  0  0  0  0  0  0
   -1.7139    1.4141    3.5589 H   0  0  0  0  0  0  0  0  0  0  0  0
   -1.2962    0.4154    2.1515 H   0  0  0  0  0  0  0  0  0  0  0  0
    3.6231    1.6981    4.9904 H   0  0  0  0  0  0  0  0  0  0  0  0
    1.9595    2.1131    5.3839 H   0  0  0  0  0  0  0  0  0  0  0  0
    2.5372    2.2071    3.7220 H   0  0  0  0  0  0  0  0  0  0  0  0
    3.3314   -0.1440    6.2677 H   0  0  0  0  0  0  0  0  0  0  0  0
    1.5994   -0.2893    6.4858 H   0  0  0  0  0  0  0  0  0  0  0  0
    2.7809   -2.4194    6.7806 H   0  0  0  0  0  0  0  0  0  0  0  0
    1.5554   -2.5329    5.5436 H   0  0  0  0  0  0  0  0  0  0  0  0
    4.5466   -2.0470    5.1458 H   0  0  0  0  0  0  0  0  0  0  0  0
    3.7640   -3.5919    4.8759 H   0  0  0  0  0  0  0  0  0  0  0  0
    2.1363   -3.1820    1.8340 H   0  0  0  0  0  0  0  0  0  0  0  0
    1.1479   -2.2942    2.9387 H   0  0  0  0  0  0  0  0  0  0  0  0
    1.9200   -3.7877    3.4270 H   0  0  0  0  0  0  0  0  0  0  0  0
    4.1198   -0.1400    3.6751 H   0  0  0  0  0  0  0  0  0  0  0  0
    1.9382    0.3549    1.7190 H   0  0  0  0  0  0  0  0  0  0  0  0
    3.5463    0.9535    1.8647 H   0  0  0  0  0  0  0  0  0  0  0  0
    2.5444   -1.6045    0.6419 H   0  0  0  0  0  0  0  0  0  0  0  0
    3.3646   -0.2872   -0.0521 H   0  0  0  0  0  0  0  0  0  0  0  0
    6.8499   -1.1613    1.0039 H   0  0  0  0  0  0  0  0  0  0  0  0
    5.8591   -0.0794    1.9633 H   0  0  0  0  0  0  0  0  0  0  0  0
    5.8712    0.0409    0.2430 H   0  0  0  0  0  0  0  0  0  0  0  0
    3.8788   -3.2550   -0.1889 H   0  0  0  0  0  0  0  0  0  0  0  0
    5.4841   -3.7997   -3.2710 H   0  0  0  0  0  0  0  0  0  0  0  0
    4.2223   -4.2755   -2.1620 H   0  0  0  0  0  0  0  0  0  0  0  0
    4.0448   -2.4650   -4.4682 H   0  0  0  0  0  0  0  0  0  0  0  0
    2.7205   -3.2421   -3.6186 H   0  0  0  0  0  0  0  0  0  0  0  0
    3.0615   -0.5564   -3.4099 H   0  0  0  0  0  0  0  0  0  0  0  0
    2.6524   -1.5028   -1.9818 H   0  0  0  0  0  0  0  0  0  0  0  0
    4.7572   -0.1844   -1.4710 H   0  0  0  0  0  0  0  0  0  0  0  0
    5.4011   -0.7717   -2.9765 H   0  0  0  0  0  0  0  0  0  0  0  0
    7.0050   -4.7637    1.8717 H   0  0  0  0  0  0  0  0  0  0  0  0
    6.9963   -3.0344    1.8658 H   0  0  0  0  0  0  0  0  0  0  0  0
    4.2098   -3.8183    1.8597 H   0  0  0  0  0  0  0  0  0  0  0  0
    5.1019   -5.9956    2.9440 H   0  0  0  0  0  0  0  0  0  0  0  0
    3.4727   -5.3896    2.7176 H   0  0  0  0  0  0  0  0  0  0  0  0
    5.3982   -1.9345    3.0796 H   0  0  0  0  0  0  0  0  0  0  0  0
  1  2  1  0
  1 33  1  0
  1 34  1  0
  1 35  1  0
  2  3  1  0
  3  4  2  0
  3  5  1  0
  5 12  1  0
  5  6  1  1
  5  7  1  0
  6 36  1  0
  6 37  1  0
  6 38  1  0
  7  8  1  0
  7 39  1  0
  7 40  1  0
  8  9  1  0
  8 41  1  0
  8 42  1  0
  9 10  1  0
  9 43  1  0
  9 44  1  0
 10 32  1  0
 10 11  1  6
 10 12  1  0
 11 45  1  0
 11 46  1  0
 11 47  1  0
 12 13  1  0
 12 48  1  1
 13 14  1  0
 13 49  1  0
 13 50  1  0
 14 15  1  0
 14 51  1  0
 14 52  1  0
 15 32  1  0
 15 16  1  1
 15 17  1  0
 16 53  1  0
 16 54  1  0
 16 55  1  0
 17 25  1  0
 17 18  1  0
 17 56  1  6
 18 22  1  0
 18 19  1  0
 18 23  1  0
 19 20  1  0
 19 57  1  0
 19 58  1  0
 20 21  1  0
 20 59  1  0
 20 60  1  0
 21 22  1  0
 21 61  1  0
 21 62  1  0
 22 63  1  0
 22 64  1  0
 23 24  1  0
 25 24  1  6
 25 31  1  0
 25 26  1  0
 26 27  1  0
 26 65  1  0
 26 66  1  0
 27 28  1  0
 27 32  1  0
 27 67  1  1
 28 29  1  0
 28 68  1  0
 28 69  1  0
 29 30  2  0
 29 31  1  0
 32 70  1  1
M  END
>  <i_m_ct_stereo_status>  (221) 
1

>  <s_m_source_file>  (221) 
/var/tmp/pbs.5076255.sched01/tmpc2azvghe/701e6xuegj.sdf

>  <i_m_source_file_index>  (221) 
25

>  <i_lp_mmshare_version>  (221) 
48012

>  <i_f3d_flags>  (221) 
0

>  <s_epik_input>  (221) 
W0NIM11PQyg9TylbQ0BAXShbQ0gzXSkoW0NIMl1bQ0gyXVtDSDJdMSlbQ0BIXShbQ0gyXVtDSDJdW0NAXTIzW0NIM10pW0NAQF0xKFtDSDNdKVtDQEhdM1tDQEhdKFtDSDJdQyg9TylPNClbQ0gyXVtDQF00KE9PNSlbQ0BASF0yQzU2W0NIMl1bQ0gyXVtDSDJdW0NIMl02

>  <s_epik_cmdline>  (221) 
J2VwaWtfcHl0aG9uJywgJy1waHQnLCAnMi4wJywgJy1waCcsICc3LjAnLCAnLXRuJywgJzgnLCAnLW1hJywgJzIwMCcsICctaW1hZScsICc8aW5maWxlLm1hZT4nLCAnLW9tYWUnLCAnPG91dGZpbGUubWFlPic=

>  <r_lp_tautomer_probability>  (221) 
1

>  <r_epik_Ionization_Penalty>  (221) 
1.11058e-10

>  <r_epik_Ionization_Penalty_Charging>  (221) 
0

>  <r_epik_Ionization_Penalty_Neutral>  (221) 
1.11058e-10

>  <r_epik_State_Penalty>  (221) 
-0

>  <r_epik_Charging_Adjusted_Penalty>  (221) 
0

>  <i_epik_Tot_Q>  (221) 
0

>  <i_epik_Tot_abs_Q>  (221) 
0

>  <s_epik_Chemistry_Notes>  (221) 
This compound has an ester and may undergo hydrolysis at high or low pH.

>  <s_lp_Force_Field>  (221) 
OPLS3e

>  <r_lp_Energy>  (221) 
147.343

>  <b_lp_Chiralities_Consistent>  (221) 
1

>  <s_lp_Variant>  (221) 
77:0-1

>  <s_i_glide_gridfile>  (221) 
pfpi4k_grid

>  <i_i_glide_lignum>  (221) 
25

>  <i_i_glide_rotatable_bonds>  (221) 
2

>  <r_i_docking_score>  (221) 
-3.13169

>  <r_i_glide_ligand_efficiency>  (221) 
-0.0978652

>  <r_i_glide_ligand_efficiency_sa>  (221) 
-0.310703

>  <r_i_glide_ligand_efficiency_ln>  (221) 
-0.70127

>  <r_i_glide_gscore>  (221) 
-3.13169

>  <r_i_glide_lipo>  (221) 
-0.503505

>  <r_i_glide_hbond>  (221) 
-0.122142

>  <r_i_glide_metal>  (221) 
-0

>  <r_i_glide_rewards>  (221) 
-0.579075

>  <r_i_glide_evdw>  (221) 
-34.8251

>  <r_i_glide_ecoul>  (221) 
-1.84378

>  <r_i_glide_erotb>  (221) 
0.100374

>  <r_i_glide_esite>  (221) 
-0.00951859

>  <r_i_glide_emodel>  (221) 
-43.2303

>  <r_i_glide_energy>  (221) 
-36.6688

>  <r_i_glide_einternal>  (221) 
0.582307

>  <r_i_glide_intrahb_reward>  (221) 
-0

>  <i_i_glide_confnum>  (221) 
4

>  <i_i_glide_posenum>  (221) 
2

>  <r_i_glide_eff_state_penalty>  (221) 
0

>  <ligand_id>  (221) 
77

>  <original_smiles>  (221) 
COC(=O)C1(C)CCCC2(C)C1CCC1(C)C3C4(CCCC4)OOC34CC(CC(=O)O4)C12

>  <smiles>  (221) 
[H]C([H])([H])OC(=O)C1(C([H])([H])[H])C([H])([H])C([H])([H])C([H])([H])C2(C([H])([H])[H])C1([H])C([H])([H])C([H])([H])C1(C([H])([H])[H])C3([H])C4(OOC35C([H])([H])C([H])([H])C([H])([H])C5([H])[H])OC(=O)C([H])([H])C([H])(C4([H])[H])C12[H]

$$$$
78:0:0
     RDKit          3D

 80 85  0  0  1  0  0  0  0  0999 V2000
    0.7334    0.6102    4.0856 C   0  0  0  0  0  0  0  0  0  0  0  0
    2.1238   -0.0838    3.9715 C   0  0  1  0  0  0  0  0  0  0  0  0
    2.9493    0.7526    2.9402 C   0  0  0  0  0  0  0  0  0  0  0  0
    3.0121    2.1244    3.2687 O   0  0  0  0  0  0  0  0  0  0  0  0
    2.8725   -0.0304    5.3207 C   0  0  0  0  0  0  0  0  0  0  0  0
    2.2643   -0.9364    6.3956 C   0  0  0  0  0  0  0  0  0  0  0  0
    2.1379   -2.4001    5.9342 C   0  0  0  0  0  0  0  0  0  0  0  0
    1.3603   -2.5964    4.5896 C   0  0  1  0  0  0  0  0  0  0  0  0
   -0.1479   -2.2407    4.7860 C   0  0  0  0  0  0  0  0  0  0  0  0
    1.9902   -1.6059    3.5246 C   0  0  2  0  0  0  0  0  0  0  0  0
    3.3352   -2.1826    3.0441 C   0  0  0  0  0  0  0  0  0  0  0  0
    3.2049   -3.5673    2.4287 C   0  0  0  0  0  0  0  0  0  0  0  0
    2.6928   -4.6695    3.3919 C   0  0  1  0  0  0  0  0  0  0  0  0
    3.6999   -4.8238    4.3807 O   0  0  0  0  0  0  0  0  0  0  0  0
    1.3813   -4.1092    4.0666 C   0  0  1  0  0  0  0  0  0  0  0  0
    0.7792   -5.1637    5.0290 C   0  0  0  0  0  0  0  0  0  0  0  0
    0.4114   -4.9229    6.1810 O   0  0  0  0  0  0  0  0  0  0  0  0
    0.6506   -6.5757    4.4776 C   0  0  0  0  0  0  0  0  0  0  0  0
   -0.3811   -7.2275    4.6537 O   0  0  0  0  0  0  0  0  0  0  0  0
    1.8710   -7.1131    3.7196 C   0  0  1  0  0  0  0  0  0  0  0  0
    1.6108   -8.5062    3.1362 C   0  0  1  0  0  0  0  0  0  0  0  0
    2.5764   -9.0871    2.1314 C   0  0  1  0  0  0  0  0  0  0  0  0
    3.7333   -8.2248    1.6401 C   0  0  0  0  0  0  0  0  0  0  0  0
    3.8496   -6.7939    2.2491 C   0  0  1  0  0  0  0  0  0  0  0  0
    4.5765   -6.0186    1.2872 O   0  0  0  0  0  0  0  0  0  0  0  0
    5.8536   -5.6117    1.5219 C   0  0  0  0  0  0  0  0  0  0  0  0
    6.5056   -5.9370    2.5133 O   0  0  0  0  0  0  0  0  0  0  0  0
    6.3589   -4.6679    0.4792 C   0  0  0  0  0  0  0  0  0  0  0  0
    7.7064   -4.2400    0.5220 C   0  0  0  0  0  0  0  0  0  0  0  0
    8.2158   -3.3627   -0.4546 C   0  0  0  0  0  0  0  0  0  0  0  0
    7.3851   -2.9052   -1.4922 C   0  0  0  0  0  0  0  0  0  0  0  0
    6.0339   -3.2965   -1.5323 C   0  0  0  0  0  0  0  0  0  0  0  0
    5.5254   -4.1754   -0.5549 C   0  0  0  0  0  0  0  0  0  0  0  0
    2.4949   -6.1092    2.6861 C   0  0  2  0  0  0  0  0  0  0  0  0
    1.5580   -5.9837    1.4490 C   0  0  0  0  0  0  0  0  0  0  0  0
    2.4654   -9.7124    3.5015 C   0  0  0  0  0  0  0  0  0  0  0  0
    3.6315   -9.6266    4.4719 C   0  0  0  0  0  0  0  0  0  0  0  0
    1.7793  -11.0642    3.6375 C   0  0  0  0  0  0  0  0  0  0  0  0
    0.7956    1.6977    4.1181 H   0  0  0  0  0  0  0  0  0  0  0  0
    0.2147    0.3656    5.0064 H   0  0  0  0  0  0  0  0  0  0  0  0
    0.0842    0.3620    3.2433 H   0  0  0  0  0  0  0  0  0  0  0  0
    3.9928    0.4357    2.9153 H   0  0  0  0  0  0  0  0  0  0  0  0
    2.5404    0.6353    1.9356 H   0  0  0  0  0  0  0  0  0  0  0  0
    3.6872    2.5320    2.7310 H   0  0  0  0  0  0  0  0  0  0  0  0
    3.9128   -0.3232    5.1756 H   0  0  0  0  0  0  0  0  0  0  0  0
    2.9023    0.9931    5.6902 H   0  0  0  0  0  0  0  0  0  0  0  0
    2.8974   -0.8986    7.2812 H   0  0  0  0  0  0  0  0  0  0  0  0
    1.3004   -0.5458    6.7164 H   0  0  0  0  0  0  0  0  0  0  0  0
    3.1450   -2.8037    5.8425 H   0  0  0  0  0  0  0  0  0  0  0  0
    1.6761   -2.9473    6.7521 H   0  0  0  0  0  0  0  0  0  0  0  0
   -0.5722   -1.8053    3.8826 H   0  0  0  0  0  0  0  0  0  0  0  0
   -0.3131   -1.5565    5.6118 H   0  0  0  0  0  0  0  0  0  0  0  0
   -0.7865   -3.0863    5.0135 H   0  0  0  0  0  0  0  0  0  0  0  0
    1.3493   -1.6189    2.6407 H   0  0  0  0  0  0  0  0  0  0  0  0
    3.7650   -1.5773    2.2524 H   0  0  0  0  0  0  0  0  0  0  0  0
    4.0717   -2.2080    3.8452 H   0  0  0  0  0  0  0  0  0  0  0  0
    2.5786   -3.4878    1.5381 H   0  0  0  0  0  0  0  0  0  0  0  0
    4.2129   -3.7714    2.1036 H   0  0  0  0  0  0  0  0  0  0  0  0
    3.4173   -5.4482    5.0371 H   0  0  0  0  0  0  0  0  0  0  0  0
    0.6520   -4.0821    3.2577 H   0  0  0  0  0  0  0  0  0  0  0  0
    2.6098   -7.2482    4.5031 H   0  0  0  0  0  0  0  0  0  0  0  0
    0.5653   -8.7160    2.9104 H   0  0  0  0  0  0  0  0  0  0  0  0
    2.1285   -9.6635    1.3269 H   0  0  0  0  0  0  0  0  0  0  0  0
    4.6622   -8.7706    1.8021 H   0  0  0  0  0  0  0  0  0  0  0  0
    3.6411   -8.1448    0.5592 H   0  0  0  0  0  0  0  0  0  0  0  0
    4.4294   -6.9058    3.1666 H   0  0  0  0  0  0  0  0  0  0  0  0
    8.3592   -4.5816    1.3129 H   0  0  0  0  0  0  0  0  0  0  0  0
    9.2505   -3.0500   -0.4251 H   0  0  0  0  0  0  0  0  0  0  0  0
    7.7913   -2.2757   -2.2705 H   0  0  0  0  0  0  0  0  0  0  0  0
    5.3930   -2.9432   -2.3261 H   0  0  0  0  0  0  0  0  0  0  0  0
    4.4881   -4.4650   -0.6166 H   0  0  0  0  0  0  0  0  0  0  0  0
    1.3095   -6.9517    1.0096 H   0  0  0  0  0  0  0  0  0  0  0  0
    2.0097   -5.4022    0.6412 H   0  0  0  0  0  0  0  0  0  0  0  0
    0.6109   -5.5268    1.7222 H   0  0  0  0  0  0  0  0  0  0  0  0
    4.3152  -10.4602    4.3082 H   0  0  0  0  0  0  0  0  0  0  0  0
    3.2620   -9.6686    5.4970 H   0  0  0  0  0  0  0  0  0  0  0  0
    4.1928   -8.7047    4.3362 H   0  0  0  0  0  0  0  0  0  0  0  0
    2.4817  -11.8734    3.4478 H   0  0  0  0  0  0  0  0  0  0  0  0
    0.9594  -11.1570    2.9303 H   0  0  0  0  0  0  0  0  0  0  0  0
    1.3811  -11.1872    4.6426 H   0  0  0  0  0  0  0  0  0  0  0  0
  2  1  1  1
  1 39  1  0
  1 40  1  0
  1 41  1  0
  2 10  1  0
  2  3  1  0
  2  5  1  0
  3  4  1  0
  3 42  1  0
  3 43  1  0
  4 44  1  0
  5  6  1  0
  5 45  1  0
  5 46  1  0
  6  7  1  0
  6 47  1  0
  6 48  1  0
  7  8  1  0
  7 49  1  0
  7 50  1  0
  8 15  1  0
  8  9  1  1
  8 10  1  0
  9 51  1  0
  9 52  1  0
  9 53  1  0
 10 11  1  0
 10 54  1  6
 11 12  1  0
 11 55  1  0
 11 56  1  0
 12 13  1  0
 12 57  1  0
 12 58  1  0
 13 34  1  0
 13 14  1  1
 13 15  1  0
 14 59  1  0
 15 16  1  0
 15 60  1  6
 16 17  2  0
 16 18  1  0
 18 19  2  0
 18 20  1  0
 20 34  1  0
 20 21  1  0
 20 61  1  1
 21 36  1  0
 21 22  1  0
 21 62  1  6
 22 23  1  0
 22 36  1  0
 22 63  1  6
 23 24  1  0
 23 64  1  0
 23 65  1  0
 24 25  1  0
 24 34  1  0
 24 66  1  1
 25 26  1  0
 26 27  2  0
 26 28  1  0
 28 33  1  0
 28 29  2  0
 29 30  1  0
 29 67  1  0
 30 31  2  0
 30 68  1  0
 31 32  1  0
 31 69  1  0
 32 33  2  0
 32 70  1  0
 33 71  1  0
 34 35  1  6
 35 72  1  0
 35 73  1  0
 35 74  1  0
 36 37  1  0
 36 38  1  0
 37 75  1  0
 37 76  1  0
 37 77  1  0
 38 78  1  0
 38 79  1  0
 38 80  1  0
M  END
>  <i_m_ct_stereo_status>  (222) 
1

>  <s_m_source_file>  (222) 
/var/tmp/pbs.5076255.sched01/tmpc2azvghe/701e6xuegj.sdf

>  <i_m_source_file_index>  (222) 
26

>  <i_lp_mmshare_version>  (222) 
48012

>  <i_f3d_flags>  (222) 
0

>  <s_epik_input>  (222) 
W0NIMl0xW0NIMl1bQ0gyXVtDQEBdKFtDSDNdKShbQ0gyXVtPSF0pW0NASF0oW0NAXTEyW0NIM10pW0NIMl1bQ0gyXVtDQEBdMyhbT0hdKVtDQEhdMkMoPU8pQyg9TylbQ0BIXTRbQ0BIXTVbQ0BIXShDNShbQ0gzXSlbQ0gzXSlbQ0gyXVtDQEhdKFtDQF0zNFtDSDNdKU9DKD1PKWM2W2NIXVtjSF1bY0hdW2NIXVtjSF02

>  <s_epik_cmdline>  (222) 
J2VwaWtfcHl0aG9uJywgJy1waHQnLCAnMi4wJywgJy1waCcsICc3LjAnLCAnLXRuJywgJzgnLCAnLW1hJywgJzIwMCcsICctaW1hZScsICc8aW5maWxlLm1hZT4nLCAnLW9tYWUnLCAnPG91dGZpbGUubWFlPic=

>  <r_lp_tautomer_probability>  (222) 
1

>  <r_epik_Ionization_Penalty>  (222) 
8.98692e-07

>  <r_epik_Ionization_Penalty_Charging>  (222) 
0

>  <r_epik_Ionization_Penalty_Neutral>  (222) 
8.98692e-07

>  <r_epik_State_Penalty>  (222) 
-0

>  <r_epik_Charging_Adjusted_Penalty>  (222) 
0

>  <i_epik_Tot_Q>  (222) 
0

>  <i_epik_Tot_abs_Q>  (222) 
0

>  <s_epik_Chemistry_Notes>  (222) 
This compound has an ester and may undergo hydrolysis at high or low pH.

>  <s_lp_Force_Field>  (222) 
OPLS3e

>  <r_lp_Energy>  (222) 
77.974

>  <b_lp_Chiralities_Consistent>  (222) 
1

>  <s_lp_Variant>  (222) 
78:0-1

>  <s_i_glide_gridfile>  (222) 
pfpi4k_grid

>  <i_i_glide_lignum>  (222) 
26

>  <i_i_glide_rotatable_bonds>  (222) 
6

>  <r_i_docking_score>  (222) 
-3.1381

>  <r_i_glide_ligand_efficiency>  (222) 
-0.0825817

>  <r_i_glide_ligand_efficiency_sa>  (222) 
-0.277638

>  <r_i_glide_ligand_efficiency_ln>  (222) 
-0.676667

>  <r_i_glide_gscore>  (222) 
-3.1381

>  <r_i_glide_lipo>  (222) 
-0.794268

>  <r_i_glide_hbond>  (222) 
-0.32

>  <r_i_glide_metal>  (222) 
-0

>  <r_i_glide_rewards>  (222) 
-0.0944819

>  <r_i_glide_evdw>  (222) 
-29.4299

>  <r_i_glide_ecoul>  (222) 
-4.92457

>  <r_i_glide_erotb>  (222) 
0.301118

>  <r_i_glide_esite>  (222) 
-0.020291

>  <r_i_glide_emodel>  (222) 
-40.8474

>  <r_i_glide_energy>  (222) 
-34.3545

>  <r_i_glide_einternal>  (222) 
1.86292

>  <r_i_glide_intrahb_reward>  (222) 
-0

>  <i_i_glide_confnum>  (222) 
4

>  <i_i_glide_posenum>  (222) 
14

>  <r_i_glide_eff_state_penalty>  (222) 
0

>  <ligand_id>  (222) 
78

>  <original_smiles>  (222) 
CC1(CO)CCCC2(C)C1CCC1(O)C2C(=O)C(=O)C2C3C(CC(OC(=O)c4ccccc4)C21C)C3(C)C

>  <smiles>  (222) 
[H]OC([H])([H])C1(C([H])([H])[H])C([H])([H])C([H])([H])C([H])([H])C2(C([H])([H])[H])C3([H])C(=O)C(=O)C4([H])C5([H])C([H])(C([H])([H])C([H])(OC(=O)c6c([H])c([H])c([H])c([H])c6[H])C4(C([H])([H])[H])C3(O[H])C([H])([H])C([H])([H])C12[H])C5(C([H])([H])[H])C([H])([H])[H]

$$$$
78:0:1
     RDKit          3D

 80 85  0  0  1  0  0  0  0  0999 V2000
    2.6359  -10.5629    5.1833 C   0  0  0  0  0  0  0  0  0  0  0  0
    2.6208   -9.7117    3.8701 C   0  0  1  0  0  0  0  0  0  0  0  0
    3.8224  -10.2004    3.0023 C   0  0  0  0  0  0  0  0  0  0  0  0
    3.9014  -11.6155    2.8824 O   0  0  0  0  0  0  0  0  0  0  0  0
    1.3264   -9.9701    3.0700 C   0  0  0  0  0  0  0  0  0  0  0  0
    0.0723   -9.3905    3.7311 C   0  0  0  0  0  0  0  0  0  0  0  0
    0.2015   -7.8852    4.0343 C   0  0  0  0  0  0  0  0  0  0  0  0
    1.4642   -7.4922    4.8743 C   0  0  1  0  0  0  0  0  0  0  0  0
    1.3297   -8.0453    6.3312 C   0  0  0  0  0  0  0  0  0  0  0  0
    2.7242   -8.1505    4.1768 C   0  0  2  0  0  0  0  0  0  0  0  0
    3.0871   -7.3338    2.9121 C   0  0  0  0  0  0  0  0  0  0  0  0
    3.3810   -5.8614    3.2015 C   0  0  0  0  0  0  0  0  0  0  0  0
    2.2018   -5.0772    3.8295 C   0  0  1  0  0  0  0  0  0  0  0  0
    1.1818   -5.0125    2.8538 O   0  0  0  0  0  0  0  0  0  0  0  0
    1.6521   -5.9125    5.0433 C   0  0  1  0  0  0  0  0  0  0  0  0
    0.4747   -5.1632    5.7207 C   0  0  0  0  0  0  0  0  0  0  0  0
   -0.6007   -5.6853    6.0027 O   0  0  0  0  0  0  0  0  0  0  0  0
    0.6877   -3.6884    6.0168 C   0  0  0  0  0  0  0  0  0  0  0  0
    0.3063   -3.1843    7.0705 O   0  0  0  0  0  0  0  0  0  0  0  0
    1.3341   -2.8698    4.8928 C   0  0  1  0  0  0  0  0  0  0  0  0
    1.5905   -1.4243    5.3264 C   0  0  1  0  0  0  0  0  0  0  0  0
    2.4520   -0.5354    4.4719 C   0  0  1  0  0  0  0  0  0  0  0  0
    3.1322   -1.1281    3.2543 C   0  0  0  0  0  0  0  0  0  0  0  0
    2.8584   -2.6334    2.9561 C   0  0  1  0  0  0  0  0  0  0  0  0
    3.9999   -3.0035    2.1798 O   0  0  0  0  0  0  0  0  0  0  0  0
    3.9013   -3.1982    0.8431 C   0  0  0  0  0  0  0  0  0  0  0  0
    2.8297   -3.4034    0.2727 O   0  0  0  0  0  0  0  0  0  0  0  0
    5.2243   -3.1541    0.1554 C   0  0  0  0  0  0  0  0  0  0  0  0
    5.2867   -3.1563   -1.2599 C   0  0  0  0  0  0  0  0  0  0  0  0
    6.5262   -3.0517   -1.9227 C   0  0  0  0  0  0  0  0  0  0  0  0
    7.7239   -2.9857   -1.1881 C   0  0  0  0  0  0  0  0  0  0  0  0
    7.6783   -2.9953    0.2199 C   0  0  0  0  0  0  0  0  0  0  0  0
    6.4379   -3.0802    0.8820 C   0  0  0  0  0  0  0  0  0  0  0  0
    2.5718   -3.5536    4.2100 C   0  0  2  0  0  0  0  0  0  0  0  0
    3.7920   -3.5202    5.1758 C   0  0  0  0  0  0  0  0  0  0  0  0
    0.9786   -0.2296    4.5990 C   0  0  0  0  0  0  0  0  0  0  0  0
    0.0731   -0.3857    3.3942 C   0  0  0  0  0  0  0  0  0  0  0  0
    0.5459    0.9715    5.4193 C   0  0  0  0  0  0  0  0  0  0  0  0
    2.8228  -11.6247    5.0238 H   0  0  0  0  0  0  0  0  0  0  0  0
    1.6766  -10.5771    5.6902 H   0  0  0  0  0  0  0  0  0  0  0  0
    3.3946  -10.2144    5.8860 H   0  0  0  0  0  0  0  0  0  0  0  0
    3.7483   -9.8325    1.9767 H   0  0  0  0  0  0  0  0  0  0  0  0
    4.7654   -9.8497    3.4177 H   0  0  0  0  0  0  0  0  0  0  0  0
    3.8598  -11.8459    1.9455 H   0  0  0  0  0  0  0  0  0  0  0  0
    1.4112   -9.5372    2.0724 H   0  0  0  0  0  0  0  0  0  0  0  0
    1.1919  -11.0399    2.9164 H   0  0  0  0  0  0  0  0  0  0  0  0
   -0.7794   -9.5500    3.0695 H   0  0  0  0  0  0  0  0  0  0  0  0
   -0.1691   -9.9443    4.6373 H   0  0  0  0  0  0  0  0  0  0  0  0
    0.2128   -7.3598    3.0814 H   0  0  0  0  0  0  0  0  0  0  0  0
   -0.7215   -7.5869    4.5256 H   0  0  0  0  0  0  0  0  0  0  0  0
    2.2985   -8.3251    6.7439 H   0  0  0  0  0  0  0  0  0  0  0  0
    0.6689   -8.9047    6.3976 H   0  0  0  0  0  0  0  0  0  0  0  0
    0.9195   -7.3452    7.0543 H   0  0  0  0  0  0  0  0  0  0  0  0
    3.5730   -8.0199    4.8485 H   0  0  0  0  0  0  0  0  0  0  0  0
    3.9909   -7.7161    2.4464 H   0  0  0  0  0  0  0  0  0  0  0  0
    2.3043   -7.4010    2.1595 H   0  0  0  0  0  0  0  0  0  0  0  0
    4.2562   -5.8213    3.8472 H   0  0  0  0  0  0  0  0  0  0  0  0
    3.6742   -5.4371    2.2474 H   0  0  0  0  0  0  0  0  0  0  0  0
    1.4547   -4.3944    2.1901 H   0  0  0  0  0  0  0  0  0  0  0  0
    2.4387   -5.8441    5.7904 H   0  0  0  0  0  0  0  0  0  0  0  0
    0.5469   -2.8296    4.1439 H   0  0  0  0  0  0  0  0  0  0  0  0
    1.7563   -1.2947    6.3955 H   0  0  0  0  0  0  0  0  0  0  0  0
    3.1069    0.1441    5.0101 H   0  0  0  0  0  0  0  0  0  0  0  0
    2.8742   -0.5288    2.3824 H   0  0  0  0  0  0  0  0  0  0  0  0
    4.2036   -0.9841    3.3922 H   0  0  0  0  0  0  0  0  0  0  0  0
    1.9525   -2.6599    2.3492 H   0  0  0  0  0  0  0  0  0  0  0  0
    4.3793   -3.2138   -1.8404 H   0  0  0  0  0  0  0  0  0  0  0  0
    6.5638   -3.0556   -3.0033 H   0  0  0  0  0  0  0  0  0  0  0  0
    8.6717   -2.9280   -1.6990 H   0  0  0  0  0  0  0  0  0  0  0  0
    8.5906   -2.9380    0.7920 H   0  0  0  0  0  0  0  0  0  0  0  0
    6.4296   -3.0819    1.9592 H   0  0  0  0  0  0  0  0  0  0  0  0
    4.0017   -2.5134    5.5399 H   0  0  0  0  0  0  0  0  0  0  0  0
    4.7106   -3.8509    4.6870 H   0  0  0  0  0  0  0  0  0  0  0  0
    3.6456   -4.1348    6.0654 H   0  0  0  0  0  0  0  0  0  0  0  0
    0.0605    0.5325    2.8070 H   0  0  0  0  0  0  0  0  0  0  0  0
   -0.9389   -0.6107    3.7260 H   0  0  0  0  0  0  0  0  0  0  0  0
    0.4202   -1.1873    2.7477 H   0  0  0  0  0  0  0  0  0  0  0  0
    0.5637    1.8758    4.8162 H   0  0  0  0  0  0  0  0  0  0  0  0
    1.2060    1.1204    6.2712 H   0  0  0  0  0  0  0  0  0  0  0  0
   -0.4641    0.8286    5.7913 H   0  0  0  0  0  0  0  0  0  0  0  0
  2  1  1  1
  1 39  1  0
  1 40  1  0
  1 41  1  0
  2 10  1  0
  2  3  1  0
  2  5  1  0
  3  4  1  0
  3 42  1  0
  3 43  1  0
  4 44  1  0
  5  6  1  0
  5 45  1  0
  5 46  1  0
  6  7  1  0
  6 47  1  0
  6 48  1  0
  7  8  1  0
  7 49  1  0
  7 50  1  0
  8 15  1  0
  8  9  1  1
  8 10  1  0
  9 51  1  0
  9 52  1  0
  9 53  1  0
 10 11  1  0
 10 54  1  1
 11 12  1  0
 11 55  1  0
 11 56  1  0
 12 13  1  0
 12 57  1  0
 12 58  1  0
 13 34  1  0
 13 14  1  6
 13 15  1  0
 14 59  1  0
 15 16  1  0
 15 60  1  1
 16 17  2  0
 16 18  1  0
 18 19  2  0
 18 20  1  0
 20 34  1  0
 20 21  1  0
 20 61  1  6
 21 36  1  0
 21 22  1  0
 21 62  1  1
 22 23  1  0
 22 36  1  0
 22 63  1  1
 23 24  1  0
 23 64  1  0
 23 65  1  0
 24 25  1  0
 24 34  1  0
 24 66  1  6
 25 26  1  0
 26 27  2  0
 26 28  1  0
 28 33  1  0
 28 29  2  0
 29 30  1  0
 29 67  1  0
 30 31  2  0
 30 68  1  0
 31 32  1  0
 31 69  1  0
 32 33  2  0
 32 70  1  0
 33 71  1  0
 34 35  1  1
 35 72  1  0
 35 73  1  0
 35 74  1  0
 36 37  1  0
 36 38  1  0
 37 75  1  0
 37 76  1  0
 37 77  1  0
 38 78  1  0
 38 79  1  0
 38 80  1  0
M  END
>  <i_m_ct_stereo_status>  (223) 
1

>  <s_m_source_file>  (223) 
/var/tmp/pbs.5076255.sched01/tmpc2azvghe/701e6xuegj.sdf

>  <i_m_source_file_index>  (223) 
26

>  <i_lp_mmshare_version>  (223) 
48012

>  <i_f3d_flags>  (223) 
0

>  <s_epik_input>  (223) 
W0NIMl0xW0NIMl1bQ0gyXVtDQEBdKFtDSDNdKShbQ0gyXVtPSF0pW0NASF0oW0NAXTEyW0NIM10pW0NIMl1bQ0gyXVtDQEBdMyhbT0hdKVtDQEhdMkMoPU8pQyg9TylbQ0BIXTRbQ0BIXTVbQ0BIXShDNShbQ0gzXSlbQ0gzXSlbQ0gyXVtDQEhdKFtDQF0zNFtDSDNdKU9DKD1PKWM2W2NIXVtjSF1bY0hdW2NIXVtjSF02

>  <s_epik_cmdline>  (223) 
J2VwaWtfcHl0aG9uJywgJy1waHQnLCAnMi4wJywgJy1waCcsICc3LjAnLCAnLXRuJywgJzgnLCAnLW1hJywgJzIwMCcsICctaW1hZScsICc8aW5maWxlLm1hZT4nLCAnLW9tYWUnLCAnPG91dGZpbGUubWFlPic=

>  <r_lp_tautomer_probability>  (223) 
1

>  <r_epik_Ionization_Penalty>  (223) 
8.98692e-07

>  <r_epik_Ionization_Penalty_Charging>  (223) 
0

>  <r_epik_Ionization_Penalty_Neutral>  (223) 
8.98692e-07

>  <r_epik_State_Penalty>  (223) 
-0

>  <r_epik_Charging_Adjusted_Penalty>  (223) 
0

>  <i_epik_Tot_Q>  (223) 
0

>  <i_epik_Tot_abs_Q>  (223) 
0

>  <s_epik_Chemistry_Notes>  (223) 
This compound has an ester and may undergo hydrolysis at high or low pH.

>  <s_lp_Force_Field>  (223) 
OPLS3e

>  <r_lp_Energy>  (223) 
77.974

>  <b_lp_Chiralities_Consistent>  (223) 
1

>  <s_lp_Variant>  (223) 
78:0-1

>  <s_i_glide_gridfile>  (223) 
pfpi4k_grid

>  <i_i_glide_lignum>  (223) 
26

>  <i_i_glide_rotatable_bonds>  (223) 
6

>  <r_i_docking_score>  (223) 
-2.88593

>  <r_i_glide_ligand_efficiency>  (223) 
-0.0759455

>  <r_i_glide_ligand_efficiency_sa>  (223) 
-0.255327

>  <r_i_glide_ligand_efficiency_ln>  (223) 
-0.622292

>  <r_i_glide_gscore>  (223) 
-2.88593

>  <r_i_glide_lipo>  (223) 
-0.486013

>  <r_i_glide_hbond>  (223) 
-0.16

>  <r_i_glide_metal>  (223) 
-0

>  <r_i_glide_rewards>  (223) 
-0.00120068

>  <r_i_glide_evdw>  (223) 
-27.5834

>  <r_i_glide_ecoul>  (223) 
-7.68897

>  <r_i_glide_erotb>  (223) 
0.301118

>  <r_i_glide_esite>  (223) 
-0.00732157

>  <r_i_glide_emodel>  (223) 
-39.6326

>  <r_i_glide_energy>  (223) 
-35.2723

>  <r_i_glide_einternal>  (223) 
4.98791

>  <r_i_glide_intrahb_reward>  (223) 
-0

>  <i_i_glide_confnum>  (223) 
3

>  <i_i_glide_posenum>  (223) 
4

>  <r_i_glide_eff_state_penalty>  (223) 
0

>  <ligand_id>  (223) 
78

>  <original_smiles>  (223) 
CC1(CO)CCCC2(C)C1CCC1(O)C2C(=O)C(=O)C2C3C(CC(OC(=O)c4ccccc4)C21C)C3(C)C

>  <smiles>  (223) 
[H]OC([H])([H])C1(C([H])([H])[H])C([H])([H])C([H])([H])C([H])([H])C2(C([H])([H])[H])C3([H])C(=O)C(=O)C4([H])C5([H])C([H])(C([H])([H])C([H])(OC(=O)c6c([H])c([H])c([H])c([H])c6[H])C4(C([H])([H])[H])C3(O[H])C([H])([H])C([H])([H])C12[H])C5(C([H])([H])[H])C([H])([H])[H]

$$$$
78:0:2
     RDKit          3D

 80 85  0  0  1  0  0  0  0  0999 V2000
   -0.2391    0.9672    3.3169 C   0  0  0  0  0  0  0  0  0  0  0  0
    1.2328    0.4528    3.2922 C   0  0  1  0  0  0  0  0  0  0  0  0
    1.9139    1.1412    2.0661 C   0  0  0  0  0  0  0  0  0  0  0  0
    1.8205    2.5522    2.0844 O   0  0  0  0  0  0  0  0  0  0  0  0
    1.9796    0.9034    4.5692 C   0  0  0  0  0  0  0  0  0  0  0  0
    1.5166    0.1805    5.8400 C   0  0  0  0  0  0  0  0  0  0  0  0
    1.5975   -1.3524    5.7095 C   0  0  0  0  0  0  0  0  0  0  0  0
    0.8459   -1.9421    4.4716 C   0  0  1  0  0  0  0  0  0  0  0  0
   -0.6939   -1.7580    4.6604 C   0  0  0  0  0  0  0  0  0  0  0  0
    1.3200   -1.1357    3.1910 C   0  0  2  0  0  0  0  0  0  0  0  0
    2.7366   -1.6151    2.7910 C   0  0  0  0  0  0  0  0  0  0  0  0
    2.8172   -3.1107    2.4980 C   0  0  0  0  0  0  0  0  0  0  0  0
    2.4471   -4.0279    3.6908 C   0  0  1  0  0  0  0  0  0  0  0  0
    3.4728   -3.8314    4.6527 O   0  0  0  0  0  0  0  0  0  0  0  0
    1.0761   -3.5139    4.2814 C   0  0  1  0  0  0  0  0  0  0  0  0
    0.6348   -4.4062    5.4681 C   0  0  0  0  0  0  0  0  0  0  0  0
    0.2446   -3.9713    6.5546 O   0  0  0  0  0  0  0  0  0  0  0  0
    0.7048   -5.9073    5.2421 C   0  0  0  0  0  0  0  0  0  0  0  0
   -0.2103   -6.6428    5.6158 O   0  0  0  0  0  0  0  0  0  0  0  0
    1.9761   -6.4268    4.5640 C   0  0  1  0  0  0  0  0  0  0  0  0
    1.9061   -7.9346    4.3073 C   0  0  1  0  0  0  0  0  0  0  0  0
    2.9297   -8.5848    3.4101 C   0  0  1  0  0  0  0  0  0  0  0  0
    3.9454   -7.7038    2.6988 C   0  0  0  0  0  0  0  0  0  0  0  0
    3.8653   -6.1715    2.9745 C   0  0  1  0  0  0  0  0  0  0  0  0
    4.4618   -5.5372    1.8389 O   0  0  0  0  0  0  0  0  0  0  0  0
    5.7809   -5.2090    1.8289 C   0  0  0  0  0  0  0  0  0  0  0  0
    6.5599   -5.4967    2.7386 O   0  0  0  0  0  0  0  0  0  0  0  0
    6.1833   -4.4391    0.6151 C   0  0  0  0  0  0  0  0  0  0  0  0
    7.5229   -3.9984    0.4757 C   0  0  0  0  0  0  0  0  0  0  0  0
    7.9260   -3.2700   -0.6611 C   0  0  0  0  0  0  0  0  0  0  0  0
    6.9944   -2.9741   -1.6698 C   0  0  0  0  0  0  0  0  0  0  0  0
    5.6553   -3.3938   -1.5400 C   0  0  0  0  0  0  0  0  0  0  0  0
    5.2559   -4.1209   -0.4052 C   0  0  0  0  0  0  0  0  0  0  0  0
    2.4349   -5.5967    3.3151 C   0  0  2  0  0  0  0  0  0  0  0  0
    1.4718   -5.8665    2.1192 C   0  0  0  0  0  0  0  0  0  0  0  0
    2.9262   -8.9057    4.8871 C   0  0  0  0  0  0  0  0  0  0  0  0
    4.0786   -8.4506    5.7668 C   0  0  0  0  0  0  0  0  0  0  0  0
    2.4382  -10.2761    5.3369 C   0  0  0  0  0  0  0  0  0  0  0  0
   -0.3225    2.0336    3.1140 H   0  0  0  0  0  0  0  0  0  0  0  0
   -0.7110    0.8625    4.2887 H   0  0  0  0  0  0  0  0  0  0  0  0
   -0.8615    0.4630    2.5769 H   0  0  0  0  0  0  0  0  0  0  0  0
    2.9894    0.9643    2.0732 H   0  0  0  0  0  0  0  0  0  0  0  0
    1.5195    0.7555    1.1248 H   0  0  0  0  0  0  0  0  0  0  0  0
    1.0250    2.8494    1.6548 H   0  0  0  0  0  0  0  0  0  0  0  0
    3.0493    0.7309    4.4496 H   0  0  0  0  0  0  0  0  0  0  0  0
    1.8708    1.9779    4.7086 H   0  0  0  0  0  0  0  0  0  0  0  0
    2.1464    0.4979    6.6715 H   0  0  0  0  0  0  0  0  0  0  0  0
    0.5110    0.4979    6.1104 H   0  0  0  0  0  0  0  0  0  0  0  0
    2.6504   -1.6240    5.6664 H   0  0  0  0  0  0  0  0  0  0  0  0
    1.2246   -1.7668    6.6425 H   0  0  0  0  0  0  0  0  0  0  0  0
   -1.1764   -1.5668    3.7081 H   0  0  0  0  0  0  0  0  0  0  0  0
   -0.9514   -0.9424    5.3285 H   0  0  0  0  0  0  0  0  0  0  0  0
   -1.2110   -2.6183    5.0745 H   0  0  0  0  0  0  0  0  0  0  0  0
    0.6779   -1.4290    2.3579 H   0  0  0  0  0  0  0  0  0  0  0  0
    3.0655   -1.1433    1.8699 H   0  0  0  0  0  0  0  0  0  0  0  0
    3.4731   -1.3546    3.5487 H   0  0  0  0  0  0  0  0  0  0  0  0
    2.1864   -3.3102    1.6319 H   0  0  0  0  0  0  0  0  0  0  0  0
    3.8422   -3.2766    2.1849 H   0  0  0  0  0  0  0  0  0  0  0  0
    3.2733   -4.3208    5.4378 H   0  0  0  0  0  0  0  0  0  0  0  0
    0.3445   -3.7611    3.5143 H   0  0  0  0  0  0  0  0  0  0  0  0
    2.7344   -6.2842    5.3281 H   0  0  0  0  0  0  0  0  0  0  0  0
    0.8979   -8.3279    4.1730 H   0  0  0  0  0  0  0  0  0  0  0  0
    2.5556   -9.3778    2.7676 H   0  0  0  0  0  0  0  0  0  0  0  0
    4.9441   -8.0693    2.9356 H   0  0  0  0  0  0  0  0  0  0  0  0
    3.8205   -7.8791    1.6303 H   0  0  0  0  0  0  0  0  0  0  0  0
    4.4757   -5.9786    3.8577 H   0  0  0  0  0  0  0  0  0  0  0  0
    8.2529   -4.2224    1.2387 H   0  0  0  0  0  0  0  0  0  0  0  0
    8.9550   -2.9519   -0.7740 H   0  0  0  0  0  0  0  0  0  0  0  0
    7.3075   -2.4445   -2.5558 H   0  0  0  0  0  0  0  0  0  0  0  0
    4.9406   -3.1733   -2.3186 H   0  0  0  0  0  0  0  0  0  0  0  0
    4.2253   -4.4360   -0.3385 H   0  0  0  0  0  0  0  0  0  0  0  0
    1.3614   -6.9308    1.9080 H   0  0  0  0  0  0  0  0  0  0  0  0
    1.8346   -5.4224    1.1900 H   0  0  0  0  0  0  0  0  0  0  0  0
    0.4664   -5.4939    2.3092 H   0  0  0  0  0  0  0  0  0  0  0  0
    4.8751   -9.1960    5.7608 H   0  0  0  0  0  0  0  0  0  0  0  0
    3.7326   -8.3149    6.7927 H   0  0  0  0  0  0  0  0  0  0  0  0
    4.5033   -7.5118    5.4153 H   0  0  0  0  0  0  0  0  0  0  0  0
    3.2433  -11.0089    5.3006 H   0  0  0  0  0  0  0  0  0  0  0  0
    1.6313  -10.6335    4.7004 H   0  0  0  0  0  0  0  0  0  0  0  0
    2.0662  -10.2322    6.3597 H   0  0  0  0  0  0  0  0  0  0  0  0
  2  1  1  1
  1 39  1  0
  1 40  1  0
  1 41  1  0
  2 10  1  0
  2  3  1  0
  2  5  1  0
  3  4  1  0
  3 42  1  0
  3 43  1  0
  4 44  1  0
  5  6  1  0
  5 45  1  0
  5 46  1  0
  6  7  1  0
  6 47  1  0
  6 48  1  0
  7  8  1  0
  7 49  1  0
  7 50  1  0
  8 15  1  0
  8  9  1  1
  8 10  1  0
  9 51  1  0
  9 52  1  0
  9 53  1  0
 10 11  1  0
 10 54  1  6
 11 12  1  0
 11 55  1  0
 11 56  1  0
 12 13  1  0
 12 57  1  0
 12 58  1  0
 13 34  1  0
 13 14  1  1
 13 15  1  0
 14 59  1  0
 15 16  1  0
 15 60  1  6
 16 17  2  0
 16 18  1  0
 18 19  2  0
 18 20  1  0
 20 34  1  0
 20 21  1  0
 20 61  1  1
 21 36  1  0
 21 22  1  0
 21 62  1  6
 22 23  1  0
 22 36  1  0
 22 63  1  6
 23 24  1  0
 23 64  1  0
 23 65  1  0
 24 25  1  0
 24 34  1  0
 24 66  1  1
 25 26  1  0
 26 27  2  0
 26 28  1  0
 28 33  1  0
 28 29  2  0
 29 30  1  0
 29 67  1  0
 30 31  2  0
 30 68  1  0
 31 32  1  0
 31 69  1  0
 32 33  2  0
 32 70  1  0
 33 71  1  0
 34 35  1  6
 35 72  1  0
 35 73  1  0
 35 74  1  0
 36 37  1  0
 36 38  1  0
 37 75  1  0
 37 76  1  0
 37 77  1  0
 38 78  1  0
 38 79  1  0
 38 80  1  0
M  END
>  <i_m_ct_stereo_status>  (224) 
1

>  <s_m_source_file>  (224) 
/var/tmp/pbs.5076255.sched01/tmpc2azvghe/701e6xuegj.sdf

>  <i_m_source_file_index>  (224) 
26

>  <i_lp_mmshare_version>  (224) 
48012

>  <i_f3d_flags>  (224) 
0

>  <s_epik_input>  (224) 
W0NIMl0xW0NIMl1bQ0gyXVtDQEBdKFtDSDNdKShbQ0gyXVtPSF0pW0NASF0oW0NAXTEyW0NIM10pW0NIMl1bQ0gyXVtDQEBdMyhbT0hdKVtDQEhdMkMoPU8pQyg9TylbQ0BIXTRbQ0BIXTVbQ0BIXShDNShbQ0gzXSlbQ0gzXSlbQ0gyXVtDQEhdKFtDQF0zNFtDSDNdKU9DKD1PKWM2W2NIXVtjSF1bY0hdW2NIXVtjSF02

>  <s_epik_cmdline>  (224) 
J2VwaWtfcHl0aG9uJywgJy1waHQnLCAnMi4wJywgJy1waCcsICc3LjAnLCAnLXRuJywgJzgnLCAnLW1hJywgJzIwMCcsICctaW1hZScsICc8aW5maWxlLm1hZT4nLCAnLW9tYWUnLCAnPG91dGZpbGUubWFlPic=

>  <r_lp_tautomer_probability>  (224) 
1

>  <r_epik_Ionization_Penalty>  (224) 
8.98692e-07

>  <r_epik_Ionization_Penalty_Charging>  (224) 
0

>  <r_epik_Ionization_Penalty_Neutral>  (224) 
8.98692e-07

>  <r_epik_State_Penalty>  (224) 
-0

>  <r_epik_Charging_Adjusted_Penalty>  (224) 
0

>  <i_epik_Tot_Q>  (224) 
0

>  <i_epik_Tot_abs_Q>  (224) 
0

>  <s_epik_Chemistry_Notes>  (224) 
This compound has an ester and may undergo hydrolysis at high or low pH.

>  <s_lp_Force_Field>  (224) 
OPLS3e

>  <r_lp_Energy>  (224) 
77.974

>  <b_lp_Chiralities_Consistent>  (224) 
1

>  <s_lp_Variant>  (224) 
78:0-1

>  <s_i_glide_gridfile>  (224) 
pfpi4k_grid

>  <i_i_glide_lignum>  (224) 
26

>  <i_i_glide_rotatable_bonds>  (224) 
6

>  <r_i_docking_score>  (224) 
-2.7165

>  <r_i_glide_ligand_efficiency>  (224) 
-0.0714869

>  <r_i_glide_ligand_efficiency_sa>  (224) 
-0.240337

>  <r_i_glide_ligand_efficiency_ln>  (224) 
-0.585757

>  <r_i_glide_gscore>  (224) 
-2.7165

>  <r_i_glide_lipo>  (224) 
-0.649234

>  <r_i_glide_hbond>  (224) 
-0.149748

>  <r_i_glide_metal>  (224) 
-0

>  <r_i_glide_rewards>  (224) 
-0.064784

>  <r_i_glide_evdw>  (224) 
-27.6588

>  <r_i_glide_ecoul>  (224) 
-5.08376

>  <r_i_glide_erotb>  (224) 
0.301118

>  <r_i_glide_esite>  (224) 
-0.00834877

>  <r_i_glide_emodel>  (224) 
-38.4462

>  <r_i_glide_energy>  (224) 
-32.7426

>  <r_i_glide_einternal>  (224) 
1.52374

>  <r_i_glide_intrahb_reward>  (224) 
-0

>  <i_i_glide_confnum>  (224) 
4

>  <i_i_glide_posenum>  (224) 
19

>  <r_i_glide_eff_state_penalty>  (224) 
0

>  <ligand_id>  (224) 
78

>  <original_smiles>  (224) 
CC1(CO)CCCC2(C)C1CCC1(O)C2C(=O)C(=O)C2C3C(CC(OC(=O)c4ccccc4)C21C)C3(C)C

>  <smiles>  (224) 
[H]OC([H])([H])C1(C([H])([H])[H])C([H])([H])C([H])([H])C([H])([H])C2(C([H])([H])[H])C3([H])C(=O)C(=O)C4([H])C5([H])C([H])(C([H])([H])C([H])(OC(=O)c6c([H])c([H])c([H])c([H])c6[H])C4(C([H])([H])[H])C3(O[H])C([H])([H])C([H])([H])C12[H])C5(C([H])([H])[H])C([H])([H])[H]

$$$$
79:0:0
     RDKit          3D

 40 44  0  0  1  0  0  0  0  0999 V2000
    5.4846   -5.1330    1.8628 C   0  0  0  0  0  0  0  0  0  0  0  0
    4.4183   -4.7745    0.8553 C   0  0  0  0  0  0  0  0  0  0  0  0
    3.5952   -5.9873    0.4930 C   0  0  0  0  0  0  0  0  0  0  0  0
    3.7935   -3.4062    0.9599 C   0  0  1  0  0  0  0  0  0  0  0  0
    4.1861   -1.9795    1.2856 C   0  0  0  0  0  0  0  0  0  0  0  0
    3.7367   -1.0864    0.0942 C   0  0  0  0  0  0  0  0  0  0  0  0
    4.2211   -1.6074   -1.3088 C   0  0  2  0  0  0  0  0  0  0  0  0
    5.6734   -1.1385   -1.4469 C   0  0  0  0  0  0  0  0  0  0  0  0
    3.3641   -1.1478   -2.5145 C   0  0  1  0  0  0  0  0  0  0  0  0
    3.8870   -1.2731   -3.9454 C   0  0  0  0  0  0  0  0  0  0  0  0
    3.6479   -2.7583   -3.7629 C   0  0  1  0  0  0  0  0  0  0  0  0
    4.5833   -3.5878   -2.8493 C   0  0  0  0  0  0  0  0  0  0  0  0
    4.0853   -3.1426   -1.4465 C   0  0  2  0  0  0  0  0  0  0  0  0
    2.5772   -3.2408   -1.7094 C   0  0  0  0  0  0  0  0  0  0  0  0
    2.5815   -2.3380   -2.8595 N   0  0  1  0  0  0  0  0  0  0  0  0
    4.7106   -3.7767   -0.2211 C   0  0  2  0  0  0  0  0  0  0  0  0
    5.0152   -5.5086    2.7720 H   0  0  0  0  0  0  0  0  0  0  0  0
    6.0622   -4.2461    2.1144 H   0  0  0  0  0  0  0  0  0  0  0  0
    6.1584   -5.8916    1.4605 H   0  0  0  0  0  0  0  0  0  0  0  0
    2.8379   -5.7109   -0.2330 H   0  0  0  0  0  0  0  0  0  0  0  0
    3.1066   -6.4004    1.3788 H   0  0  0  0  0  0  0  0  0  0  0  0
    4.2345   -6.7466    0.0424 H   0  0  0  0  0  0  0  0  0  0  0  0
    2.7151   -3.4919    0.9107 H   0  0  0  0  0  0  0  0  0  0  0  0
    3.6812   -1.6780    2.2033 H   0  0  0  0  0  0  0  0  0  0  0  0
    5.2623   -1.8999    1.4700 H   0  0  0  0  0  0  0  0  0  0  0  0
    2.6436   -1.0039    0.1042 H   0  0  0  0  0  0  0  0  0  0  0  0
    4.0856   -0.0709    0.2563 H   0  0  0  0  0  0  0  0  0  0  0  0
    6.1951   -1.5779   -2.2891 H   0  0  0  0  0  0  0  0  0  0  0  0
    6.2667   -1.3154   -0.5512 H   0  0  0  0  0  0  0  0  0  0  0  0
    5.6626   -0.0755   -1.6445 H   0  0  0  0  0  0  0  0  0  0  0  0
    2.7263   -0.2844   -2.3644 H   0  0  0  0  0  0  0  0  0  0  0  0
    3.2338   -0.8036   -4.6947 H   0  0  0  0  0  0  0  0  0  0  0  0
    4.9400   -1.0368   -4.0922 H   0  0  0  0  0  0  0  0  0  0  0  0
    3.2741   -3.2593   -4.6554 H   0  0  0  0  0  0  0  0  0  0  0  0
    4.4376   -4.6596   -3.0007 H   0  0  0  0  0  0  0  0  0  0  0  0
    5.6425   -3.4101   -3.0479 H   0  0  0  0  0  0  0  0  0  0  0  0
    2.2326   -4.2398   -1.9696 H   0  0  0  0  0  0  0  0  0  0  0  0
    1.9423   -2.8560   -0.9234 H   0  0  0  0  0  0  0  0  0  0  0  0
    5.7618   -3.5149   -0.1864 H   0  0  0  0  0  0  0  0  0  0  0  0
    1.7108   -2.1113   -3.3087 H   0  0  0  0  0  0  0  0  0  0  0  0
  1  2  1  0
  1 17  1  0
  1 18  1  0
  1 19  1  0
  2 16  1  0
  2  3  1  0
  2  4  1  0
  3 20  1  0
  3 21  1  0
  3 22  1  0
  4 16  1  0
  4  5  1  0
  4 23  1  6
  5  6  1  0
  5 24  1  0
  5 25  1  0
  6  7  1  0
  6 26  1  0
  6 27  1  0
  7 13  1  0
  7  8  1  6
  7  9  1  0
  8 28  1  0
  8 29  1  0
  8 30  1  0
  9 15  1  0
  9 10  1  0
  9 31  1  1
 10 11  1  0
 10 32  1  0
 10 33  1  0
 11 15  1  0
 11 12  1  0
 11 34  1  6
 13 12  1  6
 12 35  1  0
 12 36  1  0
 13 14  1  0
 13 16  1  0
 14 15  1  0
 14 37  1  0
 14 38  1  0
 15 40  1  6
 16 39  1  1
M  CHG  1  15   1
M  END
>  <i_m_ct_stereo_status>  (225) 
1

>  <s_m_source_file>  (225) 
/var/tmp/pbs.5076255.sched01/tmpc2azvghe/701e6xuegj.sdf

>  <i_m_source_file_index>  (225) 
27

>  <i_lp_mmshare_version>  (225) 
48012

>  <i_f3d_flags>  (225) 
0

>  <s_epik_input>  (225) 
W0NIM11DMShbQ0gzXSlbQ0BASF0yW0NAQEhdMVtDSDJdW0NIMl1bQ0BdKFtDQF0yMzQpKFtDSDNdKVtDQEBIXTVOKFtDSDJdNClbQ0BASF0oW0NIMl01KVtDSDJdMw==

>  <s_epik_cmdline>  (225) 
J2VwaWtfcHl0aG9uJywgJy1waHQnLCAnMi4wJywgJy1waCcsICc3LjAnLCAnLXRuJywgJzgnLCAnLW1hJywgJzIwMCcsICctaW1hZScsICc8aW5maWxlLm1hZT4nLCAnLW9tYWUnLCAnPG91dGZpbGUubWFlPic=

>  <r_lp_tautomer_probability>  (225) 
1

>  <r_epik_Ionization_Penalty>  (225) 
4.51241e-05

>  <r_epik_Ionization_Penalty_Charging>  (225) 
4.51241e-05

>  <r_epik_Ionization_Penalty_Neutral>  (225) 
0

>  <r_epik_State_Penalty>  (225) 
-0

>  <r_epik_Charging_Adjusted_Penalty>  (225) 
4.51241e-05

>  <i_epik_Tot_Q>  (225) 
1

>  <i_epik_Tot_abs_Q>  (225) 
1

>  <s_lp_Force_Field>  (225) 
OPLS3e

>  <r_lp_Energy>  (225) 
93.2606

>  <b_lp_Chiralities_Consistent>  (225) 
1

>  <s_lp_Variant>  (225) 
79:0-1

>  <s_i_glide_gridfile>  (225) 
pfpi4k_grid

>  <i_i_glide_lignum>  (225) 
27

>  <i_i_glide_rotatable_bonds>  (225) 
0

>  <r_i_docking_score>  (225) 
-3.88645

>  <r_i_glide_ligand_efficiency>  (225) 
-0.242903

>  <r_i_glide_ligand_efficiency_sa>  (225) 
-0.612077

>  <r_i_glide_ligand_efficiency_ln>  (225) 
-1.03018

>  <r_i_glide_gscore>  (225) 
-3.88645

>  <r_i_glide_lipo>  (225) 
-0.494844

>  <r_i_glide_hbond>  (225) 
0

>  <r_i_glide_metal>  (225) 
-0

>  <r_i_glide_rewards>  (225) 
-1.92029

>  <r_i_glide_evdw>  (225) 
-16.555

>  <r_i_glide_ecoul>  (225) 
-4.13035

>  <r_i_glide_erotb>  (225) 
0

>  <r_i_glide_esite>  (225) 
-0.0240094

>  <r_i_glide_emodel>  (225) 
-26.1032

>  <r_i_glide_energy>  (225) 
-20.6854

>  <r_i_glide_einternal>  (225) 
0

>  <r_i_glide_intrahb_reward>  (225) 
-0

>  <i_i_glide_confnum>  (225) 
1

>  <i_i_glide_posenum>  (225) 
6

>  <r_i_glide_eff_state_penalty>  (225) 
0

>  <ligand_id>  (225) 
79

>  <original_smiles>  (225) 
CC1(C)C2CCC3(C)C4CC5CC3(CN54)C21

>  <smiles>  (225) 
[H]C([H])([H])C1(C([H])([H])[H])C2([H])C([H])([H])C([H])([H])C3(C([H])([H])[H])C4(C([H])([H])C5([H])C([H])([H])C3([H])[N+]5([H])C4([H])[H])C21[H]

$$$$
79:0:1
     RDKit          3D

 40 44  0  0  1  0  0  0  0  0999 V2000
    3.8379   -1.0056   -3.0902 C   0  0  0  0  0  0  0  0  0  0  0  0
    4.2707   -2.3101   -2.4541 C   0  0  0  0  0  0  0  0  0  0  0  0
    4.3004   -3.4259   -3.4755 C   0  0  0  0  0  0  0  0  0  0  0  0
    5.2980   -2.2257   -1.3450 C   0  0  1  0  0  0  0  0  0  0  0  0
    5.6441   -1.3529   -0.1567 C   0  0  0  0  0  0  0  0  0  0  0  0
    5.6996   -2.2657    1.1084 C   0  0  0  0  0  0  0  0  0  0  0  0
    4.4061   -3.1347    1.3184 C   0  0  2  0  0  0  0  0  0  0  0  0
    3.3609   -2.2083    2.0039 C   0  0  0  0  0  0  0  0  0  0  0  0
    4.6370   -4.4343    2.1321 C   0  0  1  0  0  0  0  0  0  0  0  0
    3.4313   -5.2015    2.6856 C   0  0  0  0  0  0  0  0  0  0  0  0
    3.2242   -5.6404    1.2394 C   0  0  1  0  0  0  0  0  0  0  0  0
    2.6839   -4.6335    0.2029 C   0  0  0  0  0  0  0  0  0  0  0  0
    3.9366   -3.7627   -0.0325 C   0  0  2  0  0  0  0  0  0  0  0  0
    4.9501   -4.9035   -0.1861 C   0  0  0  0  0  0  0  0  0  0  0  0
    4.6810   -5.5111    1.1166 N   0  0  1  0  0  0  0  0  0  0  0  0
    3.8467   -2.6437   -1.0561 C   0  0  2  0  0  0  0  0  0  0  0  0
    4.5402   -0.7104   -3.8711 H   0  0  0  0  0  0  0  0  0  0  0  0
    3.8249   -0.2184   -2.3359 H   0  0  0  0  0  0  0  0  0  0  0  0
    2.8360   -1.0863   -3.5134 H   0  0  0  0  0  0  0  0  0  0  0  0
    4.6186   -4.3586   -3.0075 H   0  0  0  0  0  0  0  0  0  0  0  0
    4.9971   -3.1988   -4.2804 H   0  0  0  0  0  0  0  0  0  0  0  0
    3.3043   -3.5839   -3.8955 H   0  0  0  0  0  0  0  0  0  0  0  0
    6.0885   -2.9459   -1.5386 H   0  0  0  0  0  0  0  0  0  0  0  0
    6.6159   -0.8952   -0.3174 H   0  0  0  0  0  0  0  0  0  0  0  0
    4.9283   -0.5377   -0.0467 H   0  0  0  0  0  0  0  0  0  0  0  0
    6.5742   -2.9091    1.0361 H   0  0  0  0  0  0  0  0  0  0  0  0
    5.8835   -1.6490    1.9883 H   0  0  0  0  0  0  0  0  0  0  0  0
    2.3557   -2.6248    2.0448 H   0  0  0  0  0  0  0  0  0  0  0  0
    3.2714   -1.2464    1.4983 H   0  0  0  0  0  0  0  0  0  0  0  0
    3.6526   -2.0014    3.0330 H   0  0  0  0  0  0  0  0  0  0  0  0
    5.4927   -4.4327    2.8066 H   0  0  0  0  0  0  0  0  0  0  0  0
    3.6962   -6.0202    3.3620 H   0  0  0  0  0  0  0  0  0  0  0  0
    2.6194   -4.5903    3.0794 H   0  0  0  0  0  0  0  0  0  0  0  0
    2.8692   -6.6686    1.1354 H   0  0  0  0  0  0  0  0  0  0  0  0
    2.3805   -5.1393   -0.7124 H   0  0  0  0  0  0  0  0  0  0  0  0
    1.8195   -4.0819    0.5639 H   0  0  0  0  0  0  0  0  0  0  0  0
    4.7155   -5.5837   -1.0077 H   0  0  0  0  0  0  0  0  0  0  0  0
    6.0005   -4.6219   -0.2557 H   0  0  0  0  0  0  0  0  0  0  0  0
    3.1210   -1.8991   -0.7221 H   0  0  0  0  0  0  0  0  0  0  0  0
    5.1977   -6.3339    1.3960 H   0  0  0  0  0  0  0  0  0  0  0  0
  1  2  1  0
  1 17  1  0
  1 18  1  0
  1 19  1  0
  2 16  1  0
  2  3  1  0
  2  4  1  0
  3 20  1  0
  3 21  1  0
  3 22  1  0
  4 16  1  0
  4  5  1  0
  4 23  1  6
  5  6  1  0
  5 24  1  0
  5 25  1  0
  6  7  1  0
  6 26  1  0
  6 27  1  0
  7 13  1  0
  7  8  1  1
  7  9  1  0
  8 28  1  0
  8 29  1  0
  8 30  1  0
  9 15  1  0
  9 10  1  0
  9 31  1  1
 10 11  1  0
 10 32  1  0
 10 33  1  0
 11 15  1  0
 11 12  1  0
 11 34  1  1
 13 12  1  1
 12 35  1  0
 12 36  1  0
 13 14  1  0
 13 16  1  0
 14 15  1  0
 14 37  1  0
 14 38  1  0
 15 40  1  1
 16 39  1  1
M  CHG  1  15   1
M  END
>  <i_m_ct_stereo_status>  (226) 
1

>  <s_m_source_file>  (226) 
/var/tmp/pbs.5076255.sched01/tmpc2azvghe/701e6xuegj.sdf

>  <i_m_source_file_index>  (226) 
27

>  <i_lp_mmshare_version>  (226) 
48012

>  <i_f3d_flags>  (226) 
0

>  <s_epik_input>  (226) 
W0NIM11DMShbQ0gzXSlbQ0BASF0yW0NAQEhdMVtDSDJdW0NIMl1bQ0BdKFtDQF0yMzQpKFtDSDNdKVtDQEBIXTVOKFtDSDJdNClbQ0BASF0oW0NIMl01KVtDSDJdMw==

>  <s_epik_cmdline>  (226) 
J2VwaWtfcHl0aG9uJywgJy1waHQnLCAnMi4wJywgJy1waCcsICc3LjAnLCAnLXRuJywgJzgnLCAnLW1hJywgJzIwMCcsICctaW1hZScsICc8aW5maWxlLm1hZT4nLCAnLW9tYWUnLCAnPG91dGZpbGUubWFlPic=

>  <r_lp_tautomer_probability>  (226) 
1

>  <r_epik_Ionization_Penalty>  (226) 
4.51241e-05

>  <r_epik_Ionization_Penalty_Charging>  (226) 
4.51241e-05

>  <r_epik_Ionization_Penalty_Neutral>  (226) 
0

>  <r_epik_State_Penalty>  (226) 
-0

>  <r_epik_Charging_Adjusted_Penalty>  (226) 
4.51241e-05

>  <i_epik_Tot_Q>  (226) 
1

>  <i_epik_Tot_abs_Q>  (226) 
1

>  <s_lp_Force_Field>  (226) 
OPLS3e

>  <r_lp_Energy>  (226) 
93.2606

>  <b_lp_Chiralities_Consistent>  (226) 
1

>  <s_lp_Variant>  (226) 
79:0-1

>  <s_i_glide_gridfile>  (226) 
pfpi4k_grid

>  <i_i_glide_lignum>  (226) 
27

>  <i_i_glide_rotatable_bonds>  (226) 
0

>  <r_i_docking_score>  (226) 
-3.7678

>  <r_i_glide_ligand_efficiency>  (226) 
-0.235487

>  <r_i_glide_ligand_efficiency_sa>  (226) 
-0.593391

>  <r_i_glide_ligand_efficiency_ln>  (226) 
-0.99873

>  <r_i_glide_gscore>  (226) 
-3.7678

>  <r_i_glide_lipo>  (226) 
-0.452065

>  <r_i_glide_hbond>  (226) 
0

>  <r_i_glide_metal>  (226) 
-0

>  <r_i_glide_rewards>  (226) 
-1.92029

>  <r_i_glide_evdw>  (226) 
-21.1889

>  <r_i_glide_ecoul>  (226) 
-2.24001

>  <r_i_glide_erotb>  (226) 
0

>  <r_i_glide_esite>  (226) 
0

>  <r_i_glide_emodel>  (226) 
-28.7338

>  <r_i_glide_energy>  (226) 
-23.4289

>  <r_i_glide_einternal>  (226) 
0

>  <r_i_glide_intrahb_reward>  (226) 
-0

>  <i_i_glide_confnum>  (226) 
1

>  <i_i_glide_posenum>  (226) 
8

>  <r_i_glide_eff_state_penalty>  (226) 
0

>  <ligand_id>  (226) 
79

>  <original_smiles>  (226) 
CC1(C)C2CCC3(C)C4CC5CC3(CN54)C21

>  <smiles>  (226) 
[H]C([H])([H])C1(C([H])([H])[H])C2([H])C([H])([H])C([H])([H])C3(C([H])([H])[H])C4(C([H])([H])C5([H])C([H])([H])C3([H])[N+]5([H])C4([H])[H])C21[H]

$$$$
79:0:2
     RDKit          3D

 40 44  0  0  1  0  0  0  0  0999 V2000
    4.7995   -6.2997    1.0270 C   0  0  0  0  0  0  0  0  0  0  0  0
    4.1182   -5.0027    0.6398 C   0  0  0  0  0  0  0  0  0  0  0  0
    2.7259   -4.9341    1.2503 C   0  0  0  0  0  0  0  0  0  0  0  0
    4.9809   -3.7831    0.5363 C   0  0  1  0  0  0  0  0  0  0  0  0
    6.3544   -3.3828    0.0338 C   0  0  0  0  0  0  0  0  0  0  0  0
    6.1768   -2.2271   -1.0065 C   0  0  0  0  0  0  0  0  0  0  0  0
    5.1485   -2.5359   -2.1472 C   0  0  2  0  0  0  0  0  0  0  0  0
    5.8517   -3.4534   -3.1544 C   0  0  0  0  0  0  0  0  0  0  0  0
    4.4983   -1.2796   -2.8054 C   0  0  1  0  0  0  0  0  0  0  0  0
    3.7404   -1.4407   -4.1219 C   0  0  0  0  0  0  0  0  0  0  0  0
    2.6557   -2.0826   -3.2817 C   0  0  1  0  0  0  0  0  0  0  0  0
    2.8655   -3.4530   -2.7013 C   0  0  0  0  0  0  0  0  0  0  0  0
    3.8878   -3.2162   -1.5631 C   0  0  2  0  0  0  0  0  0  0  0  0
    3.2163   -2.0294   -0.9184 C   0  0  0  0  0  0  0  0  0  0  0  0
    3.1481   -1.2217   -2.1766 N   0  0  1  0  0  0  0  0  0  0  0  0
    4.3315   -4.4087   -0.7112 C   0  0  2  0  0  0  0  0  0  0  0  0
    4.9095   -6.3608    2.1129 H   0  0  0  0  0  0  0  0  0  0  0  0
    5.7958   -6.3368    0.5866 H   0  0  0  0  0  0  0  0  0  0  0  0
    4.2322   -7.1657    0.6748 H   0  0  0  0  0  0  0  0  0  0  0  0
    2.2437   -3.9972    0.9835 H   0  0  0  0  0  0  0  0  0  0  0  0
    2.7833   -4.9902    2.3383 H   0  0  0  0  0  0  0  0  0  0  0  0
    2.1128   -5.7573    0.8834 H   0  0  0  0  0  0  0  0  0  0  0  0
    4.5318   -2.9565    1.0928 H   0  0  0  0  0  0  0  0  0  0  0  0
    6.9552   -3.0317    0.8737 H   0  0  0  0  0  0  0  0  0  0  0  0
    6.8809   -4.2362   -0.4038 H   0  0  0  0  0  0  0  0  0  0  0  0
    5.8635   -1.3183   -0.4815 H   0  0  0  0  0  0  0  0  0  0  0  0
    7.1353   -1.9944   -1.4552 H   0  0  0  0  0  0  0  0  0  0  0  0
    5.2217   -3.8848   -3.9384 H   0  0  0  0  0  0  0  0  0  0  0  0
    6.3668   -4.2657   -2.6585 H   0  0  0  0  0  0  0  0  0  0  0  0
    6.6228   -2.8599   -3.5977 H   0  0  0  0  0  0  0  0  0  0  0  0
    5.0424   -0.3398   -2.7171 H   0  0  0  0  0  0  0  0  0  0  0  0
    3.4005   -0.5081   -4.5818 H   0  0  0  0  0  0  0  0  0  0  0  0
    4.1663   -2.1554   -4.8108 H   0  0  0  0  0  0  0  0  0  0  0  0
    1.6745   -1.9500   -3.7322 H   0  0  0  0  0  0  0  0  0  0  0  0
    1.9309   -3.8173   -2.2956 H   0  0  0  0  0  0  0  0  0  0  0  0
    3.1846   -4.1213   -3.4776 H   0  0  0  0  0  0  0  0  0  0  0  0
    2.2586   -2.3577   -0.5484 H   0  0  0  0  0  0  0  0  0  0  0  0
    3.7614   -1.4832   -0.1726 H   0  0  0  0  0  0  0  0  0  0  0  0
    4.8884   -5.1294   -1.3269 H   0  0  0  0  0  0  0  0  0  0  0  0
    2.6767   -0.3234   -2.1652 H   0  0  0  0  0  0  0  0  0  0  0  0
  1  2  1  0
  1 17  1  0
  1 18  1  0
  1 19  1  0
  2 16  1  0
  2  3  1  0
  2  4  1  0
  3 20  1  0
  3 21  1  0
  3 22  1  0
  4 16  1  0
  4  5  1  0
  4 23  1  1
  5  6  1  0
  5 24  1  0
  5 25  1  0
  6  7  1  0
  6 26  1  0
  6 27  1  0
  7 13  1  0
  7  8  1  6
  7  9  1  0
  8 28  1  0
  8 29  1  0
  8 30  1  0
  9 15  1  0
  9 10  1  0
  9 31  1  6
 10 11  1  0
 10 32  1  0
 10 33  1  0
 11 15  1  0
 11 12  1  0
 11 34  1  6
 13 12  1  6
 12 35  1  0
 12 36  1  0
 13 14  1  0
 13 16  1  0
 14 15  1  0
 14 37  1  0
 14 38  1  0
 15 40  1  1
 16 39  1  6
M  CHG  1  15   1
M  END
>  <i_m_ct_stereo_status>  (227) 
1

>  <s_m_source_file>  (227) 
/var/tmp/pbs.5076255.sched01/tmpc2azvghe/701e6xuegj.sdf

>  <i_m_source_file_index>  (227) 
27

>  <i_lp_mmshare_version>  (227) 
48012

>  <i_f3d_flags>  (227) 
0

>  <s_epik_input>  (227) 
W0NIM11DMShbQ0gzXSlbQ0BASF0yW0NAQEhdMVtDSDJdW0NIMl1bQ0BdKFtDQF0yMzQpKFtDSDNdKVtDQEBIXTVOKFtDSDJdNClbQ0BASF0oW0NIMl01KVtDSDJdMw==

>  <s_epik_cmdline>  (227) 
J2VwaWtfcHl0aG9uJywgJy1waHQnLCAnMi4wJywgJy1waCcsICc3LjAnLCAnLXRuJywgJzgnLCAnLW1hJywgJzIwMCcsICctaW1hZScsICc8aW5maWxlLm1hZT4nLCAnLW9tYWUnLCAnPG91dGZpbGUubWFlPic=

>  <r_lp_tautomer_probability>  (227) 
1

>  <r_epik_Ionization_Penalty>  (227) 
4.51241e-05

>  <r_epik_Ionization_Penalty_Charging>  (227) 
4.51241e-05

>  <r_epik_Ionization_Penalty_Neutral>  (227) 
0

>  <r_epik_State_Penalty>  (227) 
-0

>  <r_epik_Charging_Adjusted_Penalty>  (227) 
4.51241e-05

>  <i_epik_Tot_Q>  (227) 
1

>  <i_epik_Tot_abs_Q>  (227) 
1

>  <s_lp_Force_Field>  (227) 
OPLS3e

>  <r_lp_Energy>  (227) 
93.2606

>  <b_lp_Chiralities_Consistent>  (227) 
1

>  <s_lp_Variant>  (227) 
79:0-1

>  <s_i_glide_gridfile>  (227) 
pfpi4k_grid

>  <i_i_glide_lignum>  (227) 
27

>  <i_i_glide_rotatable_bonds>  (227) 
0

>  <r_i_docking_score>  (227) 
-3.52147

>  <r_i_glide_ligand_efficiency>  (227) 
-0.220092

>  <r_i_glide_ligand_efficiency_sa>  (227) 
-0.554596

>  <r_i_glide_ligand_efficiency_ln>  (227) 
-0.933435

>  <r_i_glide_gscore>  (227) 
-3.52147

>  <r_i_glide_lipo>  (227) 
-0.573096

>  <r_i_glide_hbond>  (227) 
0

>  <r_i_glide_metal>  (227) 
-0

>  <r_i_glide_rewards>  (227) 
-1.92029

>  <r_i_glide_evdw>  (227) 
-10.1931

>  <r_i_glide_ecoul>  (227) 
-2.87196

>  <r_i_glide_erotb>  (227) 
0

>  <r_i_glide_esite>  (227) 
-0.0876342

>  <r_i_glide_emodel>  (227) 
-16.8787

>  <r_i_glide_energy>  (227) 
-13.065

>  <r_i_glide_einternal>  (227) 
0

>  <r_i_glide_intrahb_reward>  (227) 
-0

>  <i_i_glide_confnum>  (227) 
2

>  <i_i_glide_posenum>  (227) 
10

>  <r_i_glide_eff_state_penalty>  (227) 
0

>  <ligand_id>  (227) 
79

>  <original_smiles>  (227) 
CC1(C)C2CCC3(C)C4CC5CC3(CN54)C21

>  <smiles>  (227) 
[H]C([H])([H])C1(C([H])([H])[H])C2([H])C([H])([H])C([H])([H])C3(C([H])([H])[H])C4(C([H])([H])C5([H])C([H])([H])C3([H])[N+]5([H])C4([H])[H])C21[H]

$$$$
80:0:0
     RDKit          3D

 50 53  0  0  1  0  0  0  0  0999 V2000
    4.5167   -0.6586   -2.6546 C   0  0  0  0  0  0  0  0  0  0  0  0
    4.2409   -1.6409   -1.7803 C   0  0  0  0  0  0  0  0  0  0  0  0
    3.9998   -1.4587   -0.3407 C   0  0  0  0  0  0  0  0  0  0  0  0
    4.1617   -0.4621    0.3354 O   0  0  0  0  0  0  0  0  0  0  0  0
    3.5847   -2.8160    0.2660 C   0  0  2  0  0  0  0  0  0  0  0  0
    2.6155   -2.6402    1.4360 C   0  0  0  0  0  0  0  0  0  0  0  0
    2.2944   -3.9851    2.0769 C   0  0  0  0  0  0  0  0  0  0  0  0
    3.5364   -4.6381    2.7363 C   0  0  1  0  0  0  0  0  0  0  0  0
    3.1691   -5.9130    3.6063 C   0  0  1  0  0  0  0  0  0  0  0  0
    4.2789   -6.2756    4.6391 C   0  0  0  0  0  0  0  0  0  0  0  0
    1.8730   -5.6590    4.4545 C   0  0  0  0  0  0  0  0  0  0  0  0
    2.0096   -5.1639    5.5902 O   0  0  0  0  0  0  0  0  0  0  0  0
    0.7569   -5.9088    3.9357 O   0  0  0  0  0  0  0  0  0  0  0  0
    2.9131   -7.1285    2.6776 C   0  0  0  0  0  0  0  0  0  0  0  0
    4.0564   -7.3921    1.6849 C   0  0  0  0  0  0  0  0  0  0  0  0
    4.3549   -6.1505    0.8319 C   0  0  0  0  0  0  0  0  0  0  0  0
    4.6756   -4.8678    1.6501 C   0  0  2  0  0  0  0  0  0  0  0  0
    6.0481   -5.0486    2.3686 C   0  0  0  0  0  0  0  0  0  0  0  0
    4.8577   -3.6023    0.7112 C   0  0  1  0  0  0  0  0  0  0  0  0
    5.8477   -3.7847   -0.4966 C   0  0  0  0  0  0  0  0  0  0  0  0
    5.1806   -3.9662   -1.8861 C   0  0  0  0  0  0  0  0  0  0  0  0
    3.9327   -3.0808   -2.0858 C   0  0  1  0  0  0  0  0  0  0  0  0
    2.9316   -3.4493   -0.9789 C   0  0  0  0  0  0  0  0  0  0  0  0
    4.6193   -0.8690   -3.7016 H   0  0  0  0  0  0  0  0  0  0  0  0
    4.6275    0.3577   -2.3395 H   0  0  0  0  0  0  0  0  0  0  0  0
    3.0459   -1.9823    2.1908 H   0  0  0  0  0  0  0  0  0  0  0  0
    1.7052   -2.1470    1.0999 H   0  0  0  0  0  0  0  0  0  0  0  0
    1.5007   -3.7630    2.7905 H   0  0  0  0  0  0  0  0  0  0  0  0
    1.8642   -4.6599    1.3378 H   0  0  0  0  0  0  0  0  0  0  0  0
    3.8945   -3.8902    3.4417 H   0  0  0  0  0  0  0  0  0  0  0  0
    5.1587   -6.7380    4.2025 H   0  0  0  0  0  0  0  0  0  0  0  0
    3.9229   -6.9985    5.3768 H   0  0  0  0  0  0  0  0  0  0  0  0
    4.6161   -5.3985    5.1931 H   0  0  0  0  0  0  0  0  0  0  0  0
    2.7419   -8.0266    3.2789 H   0  0  0  0  0  0  0  0  0  0  0  0
    1.9980   -6.9851    2.0987 H   0  0  0  0  0  0  0  0  0  0  0  0
    4.9500   -7.7413    2.2024 H   0  0  0  0  0  0  0  0  0  0  0  0
    3.7669   -8.2094    1.0252 H   0  0  0  0  0  0  0  0  0  0  0  0
    5.1547   -6.3810    0.1292 H   0  0  0  0  0  0  0  0  0  0  0  0
    3.4672   -5.9979    0.2341 H   0  0  0  0  0  0  0  0  0  0  0  0
    6.8874   -4.6318    1.8141 H   0  0  0  0  0  0  0  0  0  0  0  0
    6.3144   -6.0884    2.5345 H   0  0  0  0  0  0  0  0  0  0  0  0
    6.0599   -4.5482    3.3360 H   0  0  0  0  0  0  0  0  0  0  0  0
    5.3796   -2.9004    1.3590 H   0  0  0  0  0  0  0  0  0  0  0  0
    6.5008   -2.9100   -0.5512 H   0  0  0  0  0  0  0  0  0  0  0  0
    6.5155   -4.6277   -0.3304 H   0  0  0  0  0  0  0  0  0  0  0  0
    5.9143   -3.7620   -2.6734 H   0  0  0  0  0  0  0  0  0  0  0  0
    4.9093   -5.0172   -2.0036 H   0  0  0  0  0  0  0  0  0  0  0  0
    3.5049   -3.2048   -3.0814 H   0  0  0  0  0  0  0  0  0  0  0  0
    2.7309   -4.5154   -0.9253 H   0  0  0  0  0  0  0  0  0  0  0  0
    1.9722   -2.9781   -1.2042 H   0  0  0  0  0  0  0  0  0  0  0  0
  1  2  2  0
  1 24  1  0
  1 25  1  0
  2 22  1  0
  2  3  1  0
  3  4  2  0
  3  5  1  0
  5 19  1  0
  5 23  1  0
  5  6  1  1
  6  7  1  0
  6 26  1  0
  6 27  1  0
  7  8  1  0
  7 28  1  0
  7 29  1  0
  8 17  1  0
  8  9  1  0
  8 30  1  1
  9 10  1  1
  9 11  1  0
  9 14  1  0
 10 31  1  0
 10 32  1  0
 10 33  1  0
 11 12  2  0
 11 13  1  0
 14 15  1  0
 14 34  1  0
 14 35  1  0
 15 16  1  0
 15 36  1  0
 15 37  1  0
 16 17  1  0
 16 38  1  0
 16 39  1  0
 17 18  1  1
 17 19  1  0
 18 40  1  0
 18 41  1  0
 18 42  1  0
 19 20  1  0
 19 43  1  1
 20 21  1  0
 20 44  1  0
 20 45  1  0
 21 22  1  0
 21 46  1  0
 21 47  1  0
 22 23  1  0
 22 48  1  6
 23 49  1  0
 23 50  1  0
M  CHG  1  13  -1
M  END
>  <i_m_ct_stereo_status>  (228) 
1

>  <s_m_source_file>  (228) 
/var/tmp/pbs.5076255.sched01/tmpc2azvghe/701e6xuegj.sdf

>  <i_m_source_file_index>  (228) 
28

>  <i_lp_mmshare_version>  (228) 
48012

>  <i_f3d_flags>  (228) 
0

>  <s_epik_input>  (228) 
Tz1DMUMoPVtDSDJdKVtDQEhdKFtDSDJdMilbQ0gyXVtDSDJdW0NAQEhdKFtDQEBdMTIzKVtDQEBdNChbQ0gzXSlbQ0BASF0oW0NIMl1bQ0gyXTMpW0NAQF0oW0NIM10pKEMoPU8pW09IXSlbQ0gyXVtDSDJdW0NIMl00

>  <s_epik_cmdline>  (228) 
J2VwaWtfcHl0aG9uJywgJy1waHQnLCAnMi4wJywgJy1waCcsICc3LjAnLCAnLXRuJywgJzgnLCAnLW1hJywgJzIwMCcsICctaW1hZScsICc8aW5maWxlLm1hZT4nLCAnLW9tYWUnLCAnPG91dGZpbGUubWFlPic=

>  <r_epik_Ionization_Penalty>  (228) 
0.00518942

>  <r_epik_Ionization_Penalty_Charging>  (228) 
0.00518942

>  <r_epik_Ionization_Penalty_Neutral>  (228) 
0

>  <r_epik_State_Penalty>  (228) 
0.00378217

>  <r_epik_Charging_Adjusted_Penalty>  (228) 
0.00897159

>  <i_epik_Tot_Q>  (228) 
-1

>  <i_epik_Tot_abs_Q>  (228) 
1

>  <s_lp_Force_Field>  (228) 
OPLS3e

>  <r_lp_Energy>  (228) 
62.9725

>  <b_lp_Chiralities_Consistent>  (228) 
1

>  <s_lp_Variant>  (228) 
80:0-1

>  <s_i_glide_gridfile>  (228) 
pfpi4k_grid

>  <i_i_glide_lignum>  (228) 
28

>  <i_i_glide_rotatable_bonds>  (228) 
1

>  <r_i_docking_score>  (228) 
-2.72264

>  <r_i_glide_ligand_efficiency>  (228) 
-0.118376

>  <r_i_glide_ligand_efficiency_sa>  (228) 
-0.336645

>  <r_i_glide_ligand_efficiency_ln>  (228) 
-0.65836

>  <r_i_glide_gscore>  (228) 
-2.72264

>  <r_i_glide_lipo>  (228) 
-0.356923

>  <r_i_glide_hbond>  (228) 
0

>  <r_i_glide_metal>  (228) 
-0

>  <r_i_glide_rewards>  (228) 
-1.25846

>  <r_i_glide_evdw>  (228) 
-21.5366

>  <r_i_glide_ecoul>  (228) 
0.133835

>  <r_i_glide_erotb>  (228) 
0

>  <r_i_glide_esite>  (228) 
-0.0505099

>  <r_i_glide_emodel>  (228) 
-24.8903

>  <r_i_glide_energy>  (228) 
-21.4028

>  <r_i_glide_einternal>  (228) 
0.761321

>  <r_i_glide_intrahb_reward>  (228) 
-0

>  <i_i_glide_confnum>  (228) 
1

>  <i_i_glide_posenum>  (228) 
27

>  <r_i_glide_eff_state_penalty>  (228) 
0

>  <ligand_id>  (228) 
80

>  <original_smiles>  (228) 
C=C1C(=O)C23CCC4C(C)(C(=O)O)CCCC4(C)C2CCC1C3

>  <smiles>  (228) 
[H]C([H])=C1C(=O)C23C([H])([H])C([H])([H])C4([H])C(C(=O)[O-])(C([H])([H])[H])C([H])([H])C([H])([H])C([H])([H])C4(C([H])([H])[H])C2([H])C([H])([H])C([H])([H])C1([H])C3([H])[H]

$$$$
80:0:1
     RDKit          3D

 50 53  0  0  1  0  0  0  0  0999 V2000
    4.3905   -0.7521   -2.4238 C   0  0  0  0  0  0  0  0  0  0  0  0
    4.6074   -1.5109   -1.3382 C   0  0  0  0  0  0  0  0  0  0  0  0
    4.9240   -2.9374   -1.3756 C   0  0  0  0  0  0  0  0  0  0  0  0
    5.0119   -3.6500   -2.3765 O   0  0  0  0  0  0  0  0  0  0  0  0
    5.1964   -3.4188    0.0633 C   0  0  2  0  0  0  0  0  0  0  0  0
    6.2105   -4.5597    0.0955 C   0  0  0  0  0  0  0  0  0  0  0  0
    6.4123   -5.0674    1.5164 C   0  0  0  0  0  0  0  0  0  0  0  0
    5.1186   -5.7295    2.0789 C   0  0  1  0  0  0  0  0  0  0  0  0
    5.3553   -6.4845    3.4581 C   0  0  1  0  0  0  0  0  0  0  0  0
    4.2578   -7.5380    3.7763 C   0  0  0  0  0  0  0  0  0  0  0  0
    6.6660   -7.3254    3.4148 C   0  0  0  0  0  0  0  0  0  0  0  0
    6.8071   -8.1034    2.4444 O   0  0  0  0  0  0  0  0  0  0  0  0
    7.4985   -7.1916    4.3403 O   0  0  0  0  0  0  0  0  0  0  0  0
    5.4495   -5.4544    4.6150 C   0  0  0  0  0  0  0  0  0  0  0  0
    4.2609   -4.4869    4.6652 C   0  0  0  0  0  0  0  0  0  0  0  0
    4.0838   -3.7509    3.3296 C   0  0  0  0  0  0  0  0  0  0  0  0
    3.9238   -4.6814    2.0904 C   0  0  2  0  0  0  0  0  0  0  0  0
    2.5628   -5.4410    2.1816 C   0  0  0  0  0  0  0  0  0  0  0  0
    3.8498   -3.8473    0.7411 C   0  0  1  0  0  0  0  0  0  0  0  0
    2.8238   -2.6585    0.7445 C   0  0  0  0  0  0  0  0  0  0  0  0
    3.4289   -1.2366    0.8825 C   0  0  0  0  0  0  0  0  0  0  0  0
    4.7514   -1.0693    0.1023 C   0  0  1  0  0  0  0  0  0  0  0  0
    5.7461   -2.0988    0.6492 C   0  0  0  0  0  0  0  0  0  0  0  0
    4.2312    0.3080   -2.3409 H   0  0  0  0  0  0  0  0  0  0  0  0
    4.3842   -1.1768   -3.4132 H   0  0  0  0  0  0  0  0  0  0  0  0
    5.8541   -5.3875   -0.5218 H   0  0  0  0  0  0  0  0  0  0  0  0
    7.1671   -4.2386   -0.3195 H   0  0  0  0  0  0  0  0  0  0  0  0
    7.2485   -5.7642    1.4610 H   0  0  0  0  0  0  0  0  0  0  0  0
    6.7465   -4.2600    2.1642 H   0  0  0  0  0  0  0  0  0  0  0  0
    4.8658   -6.5026    1.3520 H   0  0  0  0  0  0  0  0  0  0  0  0
    3.3198   -7.1000    4.1002 H   0  0  0  0  0  0  0  0  0  0  0  0
    4.5586   -8.1979    4.5941 H   0  0  0  0  0  0  0  0  0  0  0  0
    4.0469   -8.1746    2.9145 H   0  0  0  0  0  0  0  0  0  0  0  0
    5.5287   -5.9699    5.5753 H   0  0  0  0  0  0  0  0  0  0  0  0
    6.3650   -4.8678    4.5119 H   0  0  0  0  0  0  0  0  0  0  0  0
    3.3486   -5.0073    4.9574 H   0  0  0  0  0  0  0  0  0  0  0  0
    4.4402   -3.7538    5.4509 H   0  0  0  0  0  0  0  0  0  0  0  0
    3.2453   -3.0619    3.4132 H   0  0  0  0  0  0  0  0  0  0  0  0
    4.9676   -3.1373    3.2208 H   0  0  0  0  0  0  0  0  0  0  0  0
    1.7622   -4.9492    1.6349 H   0  0  0  0  0  0  0  0  0  0  0  0
    2.1887   -5.5318    3.1966 H   0  0  0  0  0  0  0  0  0  0  0  0
    2.6286   -6.4451    1.7627 H   0  0  0  0  0  0  0  0  0  0  0  0
    3.4309   -4.5678    0.0348 H   0  0  0  0  0  0  0  0  0  0  0  0
    2.2785   -2.6881   -0.2017 H   0  0  0  0  0  0  0  0  0  0  0  0
    2.0538   -2.7843    1.5018 H   0  0  0  0  0  0  0  0  0  0  0  0
    2.6975   -0.5068    0.5251 H   0  0  0  0  0  0  0  0  0  0  0  0
    3.5960   -1.0089    1.9357 H   0  0  0  0  0  0  0  0  0  0  0  0
    5.1354   -0.0528    0.1829 H   0  0  0  0  0  0  0  0  0  0  0  0
    5.8351   -2.0635    1.7284 H   0  0  0  0  0  0  0  0  0  0  0  0
    6.7454   -1.8948    0.2572 H   0  0  0  0  0  0  0  0  0  0  0  0
  1  2  2  0
  1 24  1  0
  1 25  1  0
  2 22  1  0
  2  3  1  0
  3  4  2  0
  3  5  1  0
  5 19  1  0
  5 23  1  0
  5  6  1  6
  6  7  1  0
  6 26  1  0
  6 27  1  0
  7  8  1  0
  7 28  1  0
  7 29  1  0
  8 17  1  0
  8  9  1  0
  8 30  1  6
  9 10  1  1
  9 11  1  0
  9 14  1  0
 10 31  1  0
 10 32  1  0
 10 33  1  0
 11 12  2  0
 11 13  1  0
 14 15  1  0
 14 34  1  0
 14 35  1  0
 15 16  1  0
 15 36  1  0
 15 37  1  0
 16 17  1  0
 16 38  1  0
 16 39  1  0
 17 18  1  1
 17 19  1  0
 18 40  1  0
 18 41  1  0
 18 42  1  0
 19 20  1  0
 19 43  1  6
 20 21  1  0
 20 44  1  0
 20 45  1  0
 21 22  1  0
 21 46  1  0
 21 47  1  0
 22 23  1  0
 22 48  1  6
 23 49  1  0
 23 50  1  0
M  CHG  1  13  -1
M  END
>  <i_m_ct_stereo_status>  (229) 
1

>  <s_m_source_file>  (229) 
/var/tmp/pbs.5076255.sched01/tmpc2azvghe/701e6xuegj.sdf

>  <i_m_source_file_index>  (229) 
28

>  <i_lp_mmshare_version>  (229) 
48012

>  <i_f3d_flags>  (229) 
0

>  <s_epik_input>  (229) 
Tz1DMUMoPVtDSDJdKVtDQEhdKFtDSDJdMilbQ0gyXVtDSDJdW0NAQEhdKFtDQEBdMTIzKVtDQEBdNChbQ0gzXSlbQ0BASF0oW0NIMl1bQ0gyXTMpW0NAQF0oW0NIM10pKEMoPU8pW09IXSlbQ0gyXVtDSDJdW0NIMl00

>  <s_epik_cmdline>  (229) 
J2VwaWtfcHl0aG9uJywgJy1waHQnLCAnMi4wJywgJy1waCcsICc3LjAnLCAnLXRuJywgJzgnLCAnLW1hJywgJzIwMCcsICctaW1hZScsICc8aW5maWxlLm1hZT4nLCAnLW9tYWUnLCAnPG91dGZpbGUubWFlPic=

>  <r_epik_Ionization_Penalty>  (229) 
0.00518942

>  <r_epik_Ionization_Penalty_Charging>  (229) 
0.00518942

>  <r_epik_Ionization_Penalty_Neutral>  (229) 
0

>  <r_epik_State_Penalty>  (229) 
0.00378217

>  <r_epik_Charging_Adjusted_Penalty>  (229) 
0.00897159

>  <i_epik_Tot_Q>  (229) 
-1

>  <i_epik_Tot_abs_Q>  (229) 
1

>  <s_lp_Force_Field>  (229) 
OPLS3e

>  <r_lp_Energy>  (229) 
62.9725

>  <b_lp_Chiralities_Consistent>  (229) 
1

>  <s_lp_Variant>  (229) 
80:0-1

>  <s_i_glide_gridfile>  (229) 
pfpi4k_grid

>  <i_i_glide_lignum>  (229) 
28

>  <i_i_glide_rotatable_bonds>  (229) 
1

>  <r_i_docking_score>  (229) 
-2.53468

>  <r_i_glide_ligand_efficiency>  (229) 
-0.110204

>  <r_i_glide_ligand_efficiency_sa>  (229) 
-0.313405

>  <r_i_glide_ligand_efficiency_ln>  (229) 
-0.61291

>  <r_i_glide_gscore>  (229) 
-2.53468

>  <r_i_glide_lipo>  (229) 
-0.313745

>  <r_i_glide_hbond>  (229) 
0

>  <r_i_glide_metal>  (229) 
-0

>  <r_i_glide_rewards>  (229) 
-1.2677

>  <r_i_glide_evdw>  (229) 
-22.1239

>  <r_i_glide_ecoul>  (229) 
1.01969

>  <r_i_glide_erotb>  (229) 
0

>  <r_i_glide_esite>  (229) 
0

>  <r_i_glide_emodel>  (229) 
-24.7785

>  <r_i_glide_energy>  (229) 
-21.1042

>  <r_i_glide_einternal>  (229) 
0.352049

>  <r_i_glide_intrahb_reward>  (229) 
-0

>  <i_i_glide_confnum>  (229) 
1

>  <i_i_glide_posenum>  (229) 
29

>  <r_i_glide_eff_state_penalty>  (229) 
0

>  <ligand_id>  (229) 
80

>  <original_smiles>  (229) 
C=C1C(=O)C23CCC4C(C)(C(=O)O)CCCC4(C)C2CCC1C3

>  <smiles>  (229) 
[H]C([H])=C1C(=O)C23C([H])([H])C([H])([H])C4([H])C(C(=O)[O-])(C([H])([H])[H])C([H])([H])C([H])([H])C([H])([H])C4(C([H])([H])[H])C2([H])C([H])([H])C([H])([H])C1([H])C3([H])[H]

$$$$
83:0:0
     RDKit          3D

108116  0  0  1  0  0  0  0  0999 V2000
    1.1428   -6.0085    3.5798 C   0  0  0  0  0  0  0  0  0  0  0  0
    1.9121   -5.2194    2.5389 C   0  0  0  0  0  0  0  0  0  0  0  0
    1.7100   -5.4428    1.3462 O   0  0  0  0  0  0  0  0  0  0  0  0
    2.7967   -4.3204    3.0978 O   0  0  0  0  0  0  0  0  0  0  0  0
    3.6224   -3.4130    2.3332 C   0  0  2  0  0  0  0  0  0  0  0  0
    4.6948   -2.7505    3.2542 C   0  0  0  0  0  0  0  0  0  0  0  0
    5.3934   -3.3863    4.0135 O   0  0  0  0  0  0  0  0  0  0  0  0
    4.8179   -1.2003    3.0120 C   0  0  2  0  0  0  0  0  0  0  0  0
    6.1695   -0.8532    2.7770 O   0  0  0  0  0  0  0  0  0  0  0  0
    4.1217   -0.1598    4.0786 C   0  0  2  0  0  0  0  0  0  0  0  0
    4.3102   -0.4077    5.7611 C   0  0  1  0  0  0  0  0  0  0  0  0
    5.7922   -0.8208    6.1400 C   0  0  0  0  0  0  0  0  0  0  0  0
    5.9962   -1.3362    7.5809 C   0  0  0  0  0  0  0  0  0  0  0  0
    6.8838    0.2435    5.8667 C   0  0  0  0  0  0  0  0  0  0  0  0
    4.0079    0.8915    6.3772 C   0  0  0  0  0  0  0  0  0  0  0  0
    2.5151    0.9949    6.1546 C   0  0  1  0  0  0  0  0  0  0  0  0
    2.4356    2.3850    6.0074 O   0  0  0  0  0  0  0  0  0  0  0  0
    1.7156   -0.3460    5.3587 C   0  0  1  0  0  0  0  0  0  0  0  0
    1.8414   -1.9168    5.7552 C   0  0  1  0  0  0  0  0  0  0  0  0
    2.8441   -2.8624    5.4537 O   0  0  0  0  0  0  0  0  0  0  0  0
    1.9265   -1.2721    7.0569 C   0  0  1  0  0  0  0  0  0  0  0  0
    1.6412   -2.2057    8.0741 O   0  0  0  0  0  0  0  0  0  0  0  0
    3.4475   -1.0891    6.8409 O   0  0  0  0  0  0  0  0  0  0  0  0
    0.5983   -0.4538    6.3323 C   0  0  1  0  0  0  0  0  0  0  0  0
   -0.4643    0.8145    6.2806 C   0  0  1  0  0  0  0  0  0  0  0  0
   -1.7312    0.0668    5.6953 C   0  0  0  0  0  0  0  0  0  0  0  0
   -0.9675    1.4632    7.6562 C   0  0  0  0  0  0  0  0  0  0  0  0
   -0.3876    1.3636    8.8860 C   0  0  0  0  0  0  0  0  0  0  0  0
    0.5410    0.2724    9.3465 C   0  0  0  0  0  0  0  0  0  0  0  0
   -0.6016    2.3371   10.0413 C   0  0  0  0  0  0  0  0  0  0  0  0
   -2.2718    2.3153    7.4679 C   0  0  1  0  0  0  0  0  0  0  0  0
   -3.1521    2.6943    8.6860 C   0  0  0  0  0  0  0  0  0  0  0  0
   -2.0800    3.4822    6.5123 C   0  0  1  0  0  0  0  0  0  0  0  0
   -1.2656    4.4711    7.1064 O   0  0  0  0  0  0  0  0  0  0  0  0
   -1.4973    3.0314    5.1657 C   0  0  0  0  0  0  0  0  0  0  0  0
   -0.2042    2.1430    5.2879 C   0  0  2  0  0  0  0  0  0  0  0  0
    0.6166    2.4674    3.8745 C   0  0  1  0  0  0  0  0  0  0  0  0
    1.0412    3.9706    3.8244 C   0  0  0  0  0  0  0  0  0  0  0  0
    1.7486    1.7382    2.9861 C   0  0  0  0  0  0  0  0  0  0  0  0
    1.7991    2.0699    1.7993 O   0  0  0  0  0  0  0  0  0  0  0  0
    2.7055    0.5400    3.3666 C   0  0  1  0  0  0  0  0  0  0  0  0
    3.4092    1.7193    3.7336 O   0  0  0  0  0  0  0  0  0  0  0  0
    1.6022   -0.3624    3.8317 C   0  0  2  0  0  0  0  0  0  0  0  0
    0.2367   -0.3111    3.4099 O   0  0  0  0  0  0  0  0  0  0  0  0
    1.7720   -1.7075    3.0171 C   0  0  1  0  0  0  0  0  0  0  0  0
    1.6753   -1.7815    1.5791 O   0  0  0  0  0  0  0  0  0  0  0  0
    2.9591   -2.0591    2.0765 C   0  0  2  0  0  0  0  0  0  0  0  0
    4.1304   -1.1744    1.6308 C   0  0  1  0  0  0  0  0  0  0  0  0
    3.8691    0.1060    1.0649 O   0  0  0  0  0  0  0  0  0  0  0  0
    4.8850   -1.7459    0.3666 C   0  0  0  0  0  0  0  0  0  0  0  0
    5.3116   -3.2207    0.3466 C   0  0  1  0  0  0  0  0  0  0  0  0
    6.8013   -3.4464    0.6822 C   0  0  0  0  0  0  0  0  0  0  0  0
    4.2814   -4.0828    1.0835 C   0  0  1  0  0  0  0  0  0  0  0  0
    4.9101   -5.2945    1.4528 O   0  0  0  0  0  0  0  0  0  0  0  0
    0.6369   -5.3317    4.2708 H   0  0  0  0  0  0  0  0  0  0  0  0
    1.8153   -6.6700    4.1306 H   0  0  0  0  0  0  0  0  0  0  0  0
    0.3930   -6.6292    3.0814 H   0  0  0  0  0  0  0  0  0  0  0  0
    6.5273   -1.4341    2.1169 H   0  0  0  0  0  0  0  0  0  0  0  0
    4.9865    0.5031    3.9963 H   0  0  0  0  0  0  0  0  0  0  0  0
    6.0463   -1.6726    5.5287 H   0  0  0  0  0  0  0  0  0  0  0  0
    5.7480   -0.5872    8.3326 H   0  0  0  0  0  0  0  0  0  0  0  0
    7.0365   -1.6170    7.7432 H   0  0  0  0  0  0  0  0  0  0  0  0
    5.4087   -2.2320    7.7805 H   0  0  0  0  0  0  0  0  0  0  0  0
    6.7903    1.1112    6.5221 H   0  0  0  0  0  0  0  0  0  0  0  0
    6.9227    0.6007    4.8379 H   0  0  0  0  0  0  0  0  0  0  0  0
    7.8622   -0.1849    6.0679 H   0  0  0  0  0  0  0  0  0  0  0  0
    4.2366    0.9272    7.4430 H   0  0  0  0  0  0  0  0  0  0  0  0
    4.5950    1.6961    5.9249 H   0  0  0  0  0  0  0  0  0  0  0  0
    2.1253    1.0844    7.1629 H   0  0  0  0  0  0  0  0  0  0  0  0
    2.7883    2.5694    5.1376 H   0  0  0  0  0  0  0  0  0  0  0  0
    0.9503   -2.5303    5.5713 H   0  0  0  0  0  0  0  0  0  0  0  0
    2.7026   -3.1618    4.5661 H   0  0  0  0  0  0  0  0  0  0  0  0
    2.1845   -2.9558    7.8649 H   0  0  0  0  0  0  0  0  0  0  0  0
   -0.1259   -1.2685    6.4383 H   0  0  0  0  0  0  0  0  0  0  0  0
   -1.5167   -0.6967    4.9525 H   0  0  0  0  0  0  0  0  0  0  0  0
   -2.4739    0.6741    5.1973 H   0  0  0  0  0  0  0  0  0  0  0  0
   -2.2721   -0.4581    6.4638 H   0  0  0  0  0  0  0  0  0  0  0  0
    0.5026    0.1588   10.4311 H   0  0  0  0  0  0  0  0  0  0  0  0
    1.5814    0.4445    9.0799 H   0  0  0  0  0  0  0  0  0  0  0  0
    0.1402   -0.6575    8.9625 H   0  0  0  0  0  0  0  0  0  0  0  0
    0.3092    2.4216   10.6331 H   0  0  0  0  0  0  0  0  0  0  0  0
   -1.3973    2.0179   10.7141 H   0  0  0  0  0  0  0  0  0  0  0  0
   -0.7798    3.3472    9.6805 H   0  0  0  0  0  0  0  0  0  0  0  0
   -2.9884    1.6662    6.9821 H   0  0  0  0  0  0  0  0  0  0  0  0
   -3.2464    1.8749    9.3940 H   0  0  0  0  0  0  0  0  0  0  0  0
   -4.1613    2.9417    8.3580 H   0  0  0  0  0  0  0  0  0  0  0  0
   -2.8135    3.5716    9.2290 H   0  0  0  0  0  0  0  0  0  0  0  0
   -3.0523    3.9309    6.3151 H   0  0  0  0  0  0  0  0  0  0  0  0
   -0.4179    4.0815    7.3027 H   0  0  0  0  0  0  0  0  0  0  0  0
   -2.2604    2.5528    4.5589 H   0  0  0  0  0  0  0  0  0  0  0  0
   -1.3355    3.9428    4.5977 H   0  0  0  0  0  0  0  0  0  0  0  0
    0.2695    2.7972    6.0011 H   0  0  0  0  0  0  0  0  0  0  0  0
   -0.2041    2.3966    3.1610 H   0  0  0  0  0  0  0  0  0  0  0  0
    2.1227    4.1015    3.8577 H   0  0  0  0  0  0  0  0  0  0  0  0
    0.6650    4.5807    4.6432 H   0  0  0  0  0  0  0  0  0  0  0  0
    0.7066    4.4297    2.8906 H   0  0  0  0  0  0  0  0  0  0  0  0
    3.8878    2.0381    2.9664 H   0  0  0  0  0  0  0  0  0  0  0  0
    0.2127   -0.1874    2.4632 H   0  0  0  0  0  0  0  0  0  0  0  0
    1.1541   -2.5165    3.4058 H   0  0  0  0  0  0  0  0  0  0  0  0
    3.0146    0.4187    1.3486 H   0  0  0  0  0  0  0  0  0  0  0  0
    4.2478   -1.5964   -0.5099 H   0  0  0  0  0  0  0  0  0  0  0  0
    5.7638   -1.1288    0.1817 H   0  0  0  0  0  0  0  0  0  0  0  0
    5.2603   -3.5294   -0.6986 H   0  0  0  0  0  0  0  0  0  0  0  0
    7.0315   -3.2660    1.7276 H   0  0  0  0  0  0  0  0  0  0  0  0
    7.4479   -2.8131    0.0742 H   0  0  0  0  0  0  0  0  0  0  0  0
    7.0960   -4.4727    0.4622 H   0  0  0  0  0  0  0  0  0  0  0  0
    3.5396   -4.3020    0.3181 H   0  0  0  0  0  0  0  0  0  0  0  0
    4.2665   -5.8721    1.8471 H   0  0  0  0  0  0  0  0  0  0  0  0
  1  2  1  0
  1 55  1  0
  1 56  1  0
  1 57  1  0
  2  3  2  0
  2  4  1  0
  5  4  1  1
  5 47  1  0
  5 53  1  0
  5  6  1  0
  6  7  2  0
  6  8  1  0
  8 48  1  0
  8  9  1  6
  8 10  1  0
  9 58  1  0
 10 41  1  0
 10 11  1  0
 10 59  1  6
 11 23  1  0
 11 12  1  6
 11 15  1  0
 12 13  1  0
 12 14  1  0
 12 60  1  0
 13 61  1  0
 13 62  1  0
 13 63  1  0
 14 64  1  0
 14 65  1  0
 14 66  1  0
 15 16  1  0
 15 67  1  0
 15 68  1  0
 16 17  1  0
 16 18  1  0
 16 69  1  1
 17 70  1  0
 18 24  1  0
 18 43  1  6
 18 19  1  0
 19 20  1  0
 19 21  1  0
 19 71  1  1
 20 72  1  0
 21 22  1  1
 21 23  1  0
 21 24  1  0
 22 73  1  0
 24 25  1  0
 24 74  1  6
 25 36  1  0
 25 26  1  6
 25 27  1  0
 26 75  1  0
 26 76  1  0
 26 77  1  0
 27 28  2  3
 27 31  1  0
 28 29  1  0
 28 30  1  0
 29 78  1  0
 29 79  1  0
 29 80  1  0
 30 81  1  0
 30 82  1  0
 30 83  1  0
 31 32  1  0
 31 33  1  0
 31 84  1  6
 32 85  1  0
 32 86  1  0
 32 87  1  0
 33 34  1  0
 33 35  1  0
 33 88  1  6
 34 89  1  0
 35 36  1  0
 35 90  1  0
 35 91  1  0
 36 37  1  0
 36 92  1  1
 37 38  1  0
 37 39  1  0
 37 93  1  6
 38 94  1  0
 38 95  1  0
 38 96  1  0
 39 40  2  0
 39 41  1  0
 41 42  1  6
 41 43  1  0
 42 97  1  0
 43 44  1  1
 43 45  1  0
 44 98  1  0
 45 47  1  0
 45 46  1  0
 45 99  1  1
 47 46  1  6
 47 48  1  0
 48 49  1  6
 48 50  1  0
 49100  1  0
 50 51  1  0
 50101  1  0
 50102  1  0
 51 52  1  0
 51 53  1  0
 51103  1  6
 52104  1  0
 52105  1  0
 52106  1  0
 53 54  1  0
 53107  1  6
 54108  1  0
M  END
>  <i_m_ct_stereo_status>  (230) 
1

>  <s_m_source_file>  (230) 
/var/tmp/pbs.5076255.sched01/tmpc2azvghe/701e6xuegj.sdf

>  <i_m_source_file_index>  (230) 
31

>  <i_lp_mmshare_version>  (230) 
48012

>  <i_f3d_flags>  (230) 
0

>  <s_epik_input>  (230) 
W0NAXTEyM1tDQEhdNFtDQEBdKFtPSF0pKFtDQEBIXTJbT0hdKU9bQ0BdKFtDSF0oW0NIM10pW0NIM10pKFtDSDJdW0NASF0xW09IXSlbQ0BIXTVbQ0BdNihbT0hdKVtDQF03KFtPSF0pW0NAQF04KFtDQEBdKEM2PU8pKE9DKD1PKVtDSDNdKVtDQEhdKFtPSF0pW0NAQEhdKFtDSDJdNylbQ0gzXSlbQ0BIXShPOClbQ0BdMyhbT0hdKVtDQF01KFtPSF0pQyg9TylbQ0BIXShbQ0gzXSlbQ0BASF05W0NAXTQoW0NIM10pQyg9QyhbQ0gzXSlbQ0gzXSlbQ0BASF0oW0NIM10pW0NAQEhdKFtPSF0pW0NIMl05

>  <s_epik_cmdline>  (230) 
J2VwaWtfcHl0aG9uJywgJy1waHQnLCAnMi4wJywgJy1waCcsICc3LjAnLCAnLXRuJywgJzgnLCAnLW1hJywgJzIwMCcsICctaW1hZScsICc8aW5maWxlLm1hZT4nLCAnLW9tYWUnLCAnPG91dGZpbGUubWFlPic=

>  <r_lp_tautomer_probability>  (230) 
1

>  <r_epik_Ionization_Penalty>  (230) 
1.58288e-05

>  <r_epik_Ionization_Penalty_Charging>  (230) 
0

>  <r_epik_Ionization_Penalty_Neutral>  (230) 
1.58288e-05

>  <r_epik_State_Penalty>  (230) 
-0

>  <r_epik_Charging_Adjusted_Penalty>  (230) 
0

>  <i_epik_Tot_Q>  (230) 
0

>  <i_epik_Tot_abs_Q>  (230) 
0

>  <s_epik_Chemistry_Notes>  (230) 
This compound has an ester and may undergo hydrolysis at high or low pH.

>  <s_lp_Force_Field>  (230) 
OPLS3e

>  <r_lp_Energy>  (230) 
635.326

>  <b_lp_Chiralities_Consistent>  (230) 
1

>  <s_lp_Variant>  (230) 
83:0-1

>  <s_i_glide_gridfile>  (230) 
pfpi4k_grid

>  <i_i_glide_lignum>  (230) 
31

>  <i_i_glide_rotatable_bonds>  (230) 
12

>  <r_i_docking_score>  (230) 
-4.31164

>  <r_i_glide_ligand_efficiency>  (230) 
-0.0798452

>  <r_i_glide_ligand_efficiency_sa>  (230) 
-0.301796

>  <r_i_glide_ligand_efficiency_ln>  (230) 
-0.864232

>  <r_i_glide_gscore>  (230) 
-4.31164

>  <r_i_glide_lipo>  (230) 
-0.542655

>  <r_i_glide_hbond>  (230) 
-0.0973611

>  <r_i_glide_metal>  (230) 
-0

>  <r_i_glide_rewards>  (230) 
-1.54604

>  <r_i_glide_evdw>  (230) 
-27.6756

>  <r_i_glide_ecoul>  (230) 
-4.96269

>  <r_i_glide_erotb>  (230) 
0.0372225

>  <r_i_glide_esite>  (230) 
-0.0346257

>  <r_i_glide_emodel>  (230) 
-50.8291

>  <r_i_glide_energy>  (230) 
-32.6383

>  <r_i_glide_einternal>  (230) 
7.97427

>  <r_i_glide_intrahb_reward>  (230) 
-1.5

>  <i_i_glide_confnum>  (230) 
1

>  <i_i_glide_posenum>  (230) 
14

>  <r_i_glide_eff_state_penalty>  (230) 
0

>  <ligand_id>  (230) 
83

>  <original_smiles>  (230) 
CC(=O)OC12C(=O)C3(O)C4C5(C(C)C)CC(O)C67C(O)C(O)(O5)C6C5(C)C(=C(C)C)C(C)C(O)CC5C(C)C(=O)C4(O)C7(O)C4OC41C3(O)CC(C)C2O

>  <smiles>  (230) 
[H]OC1([H])C([H])([H])C2([H])C([H])(C([H])([H])[H])C(=O)C3(O[H])C4([H])C5(O[H])C(=O)C6(OC(=O)C([H])([H])[H])C([H])(O[H])C([H])(C([H])([H])[H])C([H])([H])C5(O[H])C65OC5([H])C3(O[H])C35C([H])(O[H])C([H])([H])C4(C([H])(C([H])([H])[H])C([H])([H])[H])OC(O[H])(C3([H])O[H])C5([H])C2(C([H])([H])[H])C(=C(C([H])([H])[H])C([H])([H])[H])C1([H])C([H])([H])[H]

$$$$
83:0:1
     RDKit          3D

108116  0  0  1  0  0  0  0  0999 V2000
    2.3186   -6.3718    1.3792 C   0  0  0  0  0  0  0  0  0  0  0  0
    1.1122   -6.2696    2.3519 C   0  0  0  0  0  0  0  0  0  0  0  0
   -0.0424   -6.3526    1.9153 O   0  0  0  0  0  0  0  0  0  0  0  0
    1.3718   -6.0492    3.6978 O   0  0  0  0  0  0  0  0  0  0  0  0
    2.6811   -5.8733    4.2786 C   0  0  2  0  0  0  0  0  0  0  0  0
    2.5431   -5.6123    5.8041 C   0  0  0  0  0  0  0  0  0  0  0  0
    1.8341   -6.2916    6.5489 O   0  0  0  0  0  0  0  0  0  0  0  0
    3.5305   -4.4991    6.2814 C   0  0  2  0  0  0  0  0  0  0  0  0
    4.2346   -5.0121    7.4038 O   0  0  0  0  0  0  0  0  0  0  0  0
    2.9332   -2.9914    6.5547 C   0  0  2  0  0  0  0  0  0  0  0  0
    1.4852   -2.8030    7.4788 C   0  0  1  0  0  0  0  0  0  0  0  0
    1.4497   -3.7735    8.7380 C   0  0  0  0  0  0  0  0  0  0  0  0
    0.1005   -3.8122    9.5075 C   0  0  0  0  0  0  0  0  0  0  0  0
    2.5688   -3.5819    9.7887 C   0  0  0  0  0  0  0  0  0  0  0  0
    1.4940   -1.4036    7.9434 C   0  0  0  0  0  0  0  0  0  0  0  0
    1.2592   -0.6514    6.6504 C   0  0  1  0  0  0  0  0  0  0  0  0
    1.9989    0.5026    6.9521 O   0  0  0  0  0  0  0  0  0  0  0  0
    1.0165   -1.5722    5.1930 C   0  0  1  0  0  0  0  0  0  0  0  0
   -0.0160   -2.8205    5.0021 C   0  0  1  0  0  0  0  0  0  0  0  0
    0.1257   -4.1811    5.3705 O   0  0  0  0  0  0  0  0  0  0  0  0
   -0.7241   -1.9676    5.9418 C   0  0  1  0  0  0  0  0  0  0  0  0
   -2.0832   -2.2944    5.9797 O   0  0  0  0  0  0  0  0  0  0  0  0
   -0.0020   -2.6570    7.1095 O   0  0  0  0  0  0  0  0  0  0  0  0
   -0.1992   -0.8509    4.7324 C   0  0  1  0  0  0  0  0  0  0  0  0
    0.1162    0.6984    4.2318 C   0  0  1  0  0  0  0  0  0  0  0  0
   -0.1604    0.5510    2.6764 C   0  0  0  0  0  0  0  0  0  0  0  0
   -0.8681    1.8703    4.7142 C   0  0  0  0  0  0  0  0  0  0  0  0
   -1.7377    1.8562    5.7585 C   0  0  0  0  0  0  0  0  0  0  0  0
   -2.3209    0.6324    6.4055 C   0  0  0  0  0  0  0  0  0  0  0  0
   -2.2917    3.0919    6.4661 C   0  0  0  0  0  0  0  0  0  0  0  0
   -0.7149    3.1636    3.8255 C   0  0  1  0  0  0  0  0  0  0  0  0
   -1.8284    4.2423    3.8172 C   0  0  0  0  0  0  0  0  0  0  0  0
    0.6857    3.7667    3.8616 C   0  0  1  0  0  0  0  0  0  0  0  0
    0.9219    4.3466    5.1311 O   0  0  0  0  0  0  0  0  0  0  0  0
    1.7626    2.7181    3.5467 C   0  0  0  0  0  0  0  0  0  0  0  0
    1.6427    1.3815    4.3718 C   0  0  2  0  0  0  0  0  0  0  0  0
    3.2178    0.8423    4.4453 C   0  0  1  0  0  0  0  0  0  0  0  0
    4.1033    1.8500    5.2452 C   0  0  0  0  0  0  0  0  0  0  0  0
    3.9829   -0.5550    4.6917 C   0  0  0  0  0  0  0  0  0  0  0  0
    5.1292   -0.6094    4.2236 O   0  0  0  0  0  0  0  0  0  0  0  0
    3.3948   -1.8994    5.2739 C   0  0  1  0  0  0  0  0  0  0  0  0
    3.8672   -1.1804    6.4099 O   0  0  0  0  0  0  0  0  0  0  0  0
    2.2298   -1.9736    4.3302 C   0  0  2  0  0  0  0  0  0  0  0  0
    2.1456   -1.3838    3.0297 O   0  0  0  0  0  0  0  0  0  0  0  0
    2.3456   -3.3812    3.6541 C   0  0  1  0  0  0  0  0  0  0  0  0
    3.5235   -3.7903    2.8723 O   0  0  0  0  0  0  0  0  0  0  0  0
    3.3256   -4.5225    4.0595 C   0  0  2  0  0  0  0  0  0  0  0  0
    4.4594   -4.5312    5.0518 C   0  0  1  0  0  0  0  0  0  0  0  0
    5.4021   -3.5008    4.9353 O   0  0  0  0  0  0  0  0  0  0  0  0
    5.4762   -5.7197    4.8798 C   0  0  0  0  0  0  0  0  0  0  0  0
    4.9277   -7.1503    4.7818 C   0  0  1  0  0  0  0  0  0  0  0  0
    5.0134   -7.9964    6.0692 C   0  0  0  0  0  0  0  0  0  0  0  0
    3.5850   -7.1514    4.0423 C   0  0  1  0  0  0  0  0  0  0  0  0
    2.8644   -8.3638    4.3395 O   0  0  0  0  0  0  0  0  0  0  0  0
    2.8682   -7.2704    1.5808 H   0  0  0  0  0  0  0  0  0  0  0  0
    2.9447   -5.4737    1.4649 H   0  0  0  0  0  0  0  0  0  0  0  0
    2.0005   -6.4403    0.3268 H   0  0  0  0  0  0  0  0  0  0  0  0
    4.8961   -4.3908    7.6508 H   0  0  0  0  0  0  0  0  0  0  0  0
    3.5859   -2.9094    7.4237 H   0  0  0  0  0  0  0  0  0  0  0  0
    1.5492   -4.7880    8.3722 H   0  0  0  0  0  0  0  0  0  0  0  0
   -0.1719   -2.8491    9.9391 H   0  0  0  0  0  0  0  0  0  0  0  0
    0.1506   -4.5088   10.3452 H   0  0  0  0  0  0  0  0  0  0  0  0
   -0.7315   -4.1601    8.8925 H   0  0  0  0  0  0  0  0  0  0  0  0
    2.4850   -2.6281   10.3073 H   0  0  0  0  0  0  0  0  0  0  0  0
    3.5710   -3.6423    9.3845 H   0  0  0  0  0  0  0  0  0  0  0  0
    2.5231   -4.3695   10.5412 H   0  0  0  0  0  0  0  0  0  0  0  0
    0.7010   -1.1806    8.6601 H   0  0  0  0  0  0  0  0  0  0  0  0
    2.4235   -1.1672    8.4584 H   0  0  0  0  0  0  0  0  0  0  0  0
    0.3499   -0.0967    6.8443 H   0  0  0  0  0  0  0  0  0  0  0  0
    2.9132    0.2796    6.8634 H   0  0  0  0  0  0  0  0  0  0  0  0
   -0.4394   -2.9586    3.9990 H   0  0  0  0  0  0  0  0  0  0  0  0
    0.7643   -4.5565    4.7951 H   0  0  0  0  0  0  0  0  0  0  0  0
   -2.1218   -3.2388    5.9840 H   0  0  0  0  0  0  0  0  0  0  0  0
   -0.8956   -1.1315    3.9410 H   0  0  0  0  0  0  0  0  0  0  0  0
    0.1698   -0.3828    2.2343 H   0  0  0  0  0  0  0  0  0  0  0  0
    0.2854    1.2881    2.0230 H   0  0  0  0  0  0  0  0  0  0  0  0
   -1.2295    0.6094    2.4622 H   0  0  0  0  0  0  0  0  0  0  0  0
   -3.2737    0.8587    6.8779 H   0  0  0  0  0  0  0  0  0  0  0  0
   -1.6659    0.2022    7.1522 H   0  0  0  0  0  0  0  0  0  0  0  0
   -2.5851   -0.0411    5.5994 H   0  0  0  0  0  0  0  0  0  0  0  0
   -2.4486    2.8874    7.5235 H   0  0  0  0  0  0  0  0  0  0  0  0
   -3.2440    3.4091    6.0467 H   0  0  0  0  0  0  0  0  0  0  0  0
   -1.5680    3.9038    6.4577 H   0  0  0  0  0  0  0  0  0  0  0  0
   -0.8536    2.8548    2.7979 H   0  0  0  0  0  0  0  0  0  0  0  0
   -2.8212    3.7907    3.7960 H   0  0  0  0  0  0  0  0  0  0  0  0
   -1.7483    4.8525    2.9147 H   0  0  0  0  0  0  0  0  0  0  0  0
   -1.7553    4.9383    4.6493 H   0  0  0  0  0  0  0  0  0  0  0  0
    0.7554    4.5705    3.1243 H   0  0  0  0  0  0  0  0  0  0  0  0
    1.7520    4.7859    5.0984 H   0  0  0  0  0  0  0  0  0  0  0  0
    1.8086    2.5225    2.4821 H   0  0  0  0  0  0  0  0  0  0  0  0
    2.7122    3.2302    3.6947 H   0  0  0  0  0  0  0  0  0  0  0  0
    1.5242    1.8893    5.3127 H   0  0  0  0  0  0  0  0  0  0  0  0
    3.5158    0.9907    3.4089 H   0  0  0  0  0  0  0  0  0  0  0  0
    4.4790    1.4446    6.1849 H   0  0  0  0  0  0  0  0  0  0  0  0
    3.6121    2.7821    5.5156 H   0  0  0  0  0  0  0  0  0  0  0  0
    4.9901    2.1129    4.6761 H   0  0  0  0  0  0  0  0  0  0  0  0
    3.6353   -1.6506    7.1812 H   0  0  0  0  0  0  0  0  0  0  0  0
    2.1620   -0.4450    3.1051 H   0  0  0  0  0  0  0  0  0  0  0  0
    1.4605   -3.6449    3.0866 H   0  0  0  0  0  0  0  0  0  0  0  0
    5.8254   -3.5698    4.0961 H   0  0  0  0  0  0  0  0  0  0  0  0
    6.0709   -5.5655    3.9703 H   0  0  0  0  0  0  0  0  0  0  0  0
    6.2055   -5.7076    5.6868 H   0  0  0  0  0  0  0  0  0  0  0  0
    5.6108   -7.6776    4.1212 H   0  0  0  0  0  0  0  0  0  0  0  0
    4.2969   -7.6342    6.8060 H   0  0  0  0  0  0  0  0  0  0  0  0
    6.0301   -7.9554    6.4762 H   0  0  0  0  0  0  0  0  0  0  0  0
    4.7862   -9.0459    5.8408 H   0  0  0  0  0  0  0  0  0  0  0  0
    3.9611   -7.1899    3.0554 H   0  0  0  0  0  0  0  0  0  0  0  0
    2.6323   -8.4477    5.2582 H   0  0  0  0  0  0  0  0  0  0  0  0
  1  2  1  0
  1 55  1  0
  1 56  1  0
  1 57  1  0
  2  3  2  0
  2  4  1  0
  5  4  1  6
  5 47  1  0
  5 53  1  0
  5  6  1  0
  6  7  2  0
  6  8  1  0
  8 48  1  0
  8  9  1  1
  8 10  1  0
  9 58  1  0
 10 41  1  0
 10 11  1  0
 10 59  1  1
 11 23  1  0
 11 12  1  1
 11 15  1  0
 12 13  1  0
 12 14  1  0
 12 60  1  0
 13 61  1  0
 13 62  1  0
 13 63  1  0
 14 64  1  0
 14 65  1  0
 14 66  1  0
 15 16  1  0
 15 67  1  0
 15 68  1  0
 16 17  1  0
 16 18  1  0
 16 69  1  1
 17 70  1  0
 18 24  1  0
 18 43  1  6
 18 19  1  0
 19 20  1  0
 19 21  1  0
 19 71  1  6
 20 72  1  0
 21 22  1  1
 21 23  1  0
 21 24  1  0
 22 73  1  0
 24 25  1  0
 24 74  1  6
 25 36  1  0
 25 26  1  6
 25 27  1  0
 26 75  1  0
 26 76  1  0
 26 77  1  0
 27 28  2  3
 27 31  1  0
 28 29  1  0
 28 30  1  0
 29 78  1  0
 29 79  1  0
 29 80  1  0
 30 81  1  0
 30 82  1  0
 30 83  1  0
 31 32  1  0
 31 33  1  0
 31 84  1  6
 32 85  1  0
 32 86  1  0
 32 87  1  0
 33 34  1  0
 33 35  1  0
 33 88  1  6
 34 89  1  0
 35 36  1  0
 35 90  1  0
 35 91  1  0
 36 37  1  0
 36 92  1  1
 37 38  1  0
 37 39  1  0
 37 93  1  6
 38 94  1  0
 38 95  1  0
 38 96  1  0
 39 40  2  0
 39 41  1  0
 41 42  1  6
 41 43  1  0
 42 97  1  0
 43 44  1  6
 43 45  1  0
 44 98  1  0
 45 47  1  0
 45 46  1  0
 45 99  1  6
 47 46  1  6
 47 48  1  0
 48 49  1  6
 48 50  1  0
 49100  1  0
 50 51  1  0
 50101  1  0
 50102  1  0
 51 52  1  0
 51 53  1  0
 51103  1  6
 52104  1  0
 52105  1  0
 52106  1  0
 53 54  1  0
 53107  1  6
 54108  1  0
M  END
>  <i_m_ct_stereo_status>  (231) 
1

>  <s_m_source_file>  (231) 
/var/tmp/pbs.5076255.sched01/tmpc2azvghe/701e6xuegj.sdf

>  <i_m_source_file_index>  (231) 
31

>  <i_lp_mmshare_version>  (231) 
48012

>  <i_f3d_flags>  (231) 
0

>  <s_epik_input>  (231) 
W0NAXTEyM1tDQEhdNFtDQEBdKFtPSF0pKFtDQEBIXTJbT0hdKU9bQ0BdKFtDSF0oW0NIM10pW0NIM10pKFtDSDJdW0NASF0xW09IXSlbQ0BIXTVbQ0BdNihbT0hdKVtDQF03KFtPSF0pW0NAQF04KFtDQEBdKEM2PU8pKE9DKD1PKVtDSDNdKVtDQEhdKFtPSF0pW0NAQEhdKFtDSDJdNylbQ0gzXSlbQ0BIXShPOClbQ0BdMyhbT0hdKVtDQF01KFtPSF0pQyg9TylbQ0BIXShbQ0gzXSlbQ0BASF05W0NAXTQoW0NIM10pQyg9QyhbQ0gzXSlbQ0gzXSlbQ0BASF0oW0NIM10pW0NAQEhdKFtPSF0pW0NIMl05

>  <s_epik_cmdline>  (231) 
J2VwaWtfcHl0aG9uJywgJy1waHQnLCAnMi4wJywgJy1waCcsICc3LjAnLCAnLXRuJywgJzgnLCAnLW1hJywgJzIwMCcsICctaW1hZScsICc8aW5maWxlLm1hZT4nLCAnLW9tYWUnLCAnPG91dGZpbGUubWFlPic=

>  <r_lp_tautomer_probability>  (231) 
1

>  <r_epik_Ionization_Penalty>  (231) 
1.58288e-05

>  <r_epik_Ionization_Penalty_Charging>  (231) 
0

>  <r_epik_Ionization_Penalty_Neutral>  (231) 
1.58288e-05

>  <r_epik_State_Penalty>  (231) 
-0

>  <r_epik_Charging_Adjusted_Penalty>  (231) 
0

>  <i_epik_Tot_Q>  (231) 
0

>  <i_epik_Tot_abs_Q>  (231) 
0

>  <s_epik_Chemistry_Notes>  (231) 
This compound has an ester and may undergo hydrolysis at high or low pH.

>  <s_lp_Force_Field>  (231) 
OPLS3e

>  <r_lp_Energy>  (231) 
635.326

>  <b_lp_Chiralities_Consistent>  (231) 
1

>  <s_lp_Variant>  (231) 
83:0-1

>  <s_i_glide_gridfile>  (231) 
pfpi4k_grid

>  <i_i_glide_lignum>  (231) 
31

>  <i_i_glide_rotatable_bonds>  (231) 
12

>  <r_i_docking_score>  (231) 
-3.16738

>  <r_i_glide_ligand_efficiency>  (231) 
-0.0586552

>  <r_i_glide_ligand_efficiency_sa>  (231) 
-0.221703

>  <r_i_glide_ligand_efficiency_ln>  (231) 
-0.634875

>  <r_i_glide_gscore>  (231) 
-3.16738

>  <r_i_glide_lipo>  (231) 
-0.111154

>  <r_i_glide_hbond>  (231) 
-0.279303

>  <r_i_glide_metal>  (231) 
-0

>  <r_i_glide_rewards>  (231) 
-0.5

>  <r_i_glide_evdw>  (231) 
-24.9145

>  <r_i_glide_ecoul>  (231) 
-6.49361

>  <r_i_glide_erotb>  (231) 
0.0372225

>  <r_i_glide_esite>  (231) 
-0.0943773

>  <r_i_glide_emodel>  (231) 
-37.5943

>  <r_i_glide_energy>  (231) 
-31.4081

>  <r_i_glide_einternal>  (231) 
6.80377

>  <r_i_glide_intrahb_reward>  (231) 
-0.5

>  <i_i_glide_confnum>  (231) 
1

>  <i_i_glide_posenum>  (231) 
1

>  <r_i_glide_eff_state_penalty>  (231) 
0

>  <ligand_id>  (231) 
83

>  <original_smiles>  (231) 
CC(=O)OC12C(=O)C3(O)C4C5(C(C)C)CC(O)C67C(O)C(O)(O5)C6C5(C)C(=C(C)C)C(C)C(O)CC5C(C)C(=O)C4(O)C7(O)C4OC41C3(O)CC(C)C2O

>  <smiles>  (231) 
[H]OC1([H])C([H])([H])C2([H])C([H])(C([H])([H])[H])C(=O)C3(O[H])C4([H])C5(O[H])C(=O)C6(OC(=O)C([H])([H])[H])C([H])(O[H])C([H])(C([H])([H])[H])C([H])([H])C5(O[H])C65OC5([H])C3(O[H])C35C([H])(O[H])C([H])([H])C4(C([H])(C([H])([H])[H])C([H])([H])[H])OC(O[H])(C3([H])O[H])C5([H])C2(C([H])([H])[H])C(=C(C([H])([H])[H])C([H])([H])[H])C1([H])C([H])([H])[H]

$$$$
83:0:2
     RDKit          3D

108116  0  0  1  0  0  0  0  0999 V2000
    0.2498   -7.6447    6.5371 C   0  0  0  0  0  0  0  0  0  0  0  0
    1.1912   -7.0616    5.4941 C   0  0  0  0  0  0  0  0  0  0  0  0
    1.0186   -7.2493    4.2921 O   0  0  0  0  0  0  0  0  0  0  0  0
    2.1990   -6.3482    6.0512 O   0  0  0  0  0  0  0  0  0  0  0  0
    3.3810   -5.9963    5.3212 C   0  0  2  0  0  0  0  0  0  0  0  0
    4.2689   -5.0797    6.2045 C   0  0  0  0  0  0  0  0  0  0  0  0
    4.5017   -5.3100    7.3722 O   0  0  0  0  0  0  0  0  0  0  0  0
    4.9273   -3.9227    5.3914 C   0  0  2  0  0  0  0  0  0  0  0  0
    6.3043   -3.9353    5.7038 O   0  0  0  0  0  0  0  0  0  0  0  0
    4.3080   -2.3996    5.4716 C   0  0  2  0  0  0  0  0  0  0  0  0
    3.9110   -1.7484    7.0042 C   0  0  1  0  0  0  0  0  0  0  0  0
    5.0116   -2.0553    8.1063 C   0  0  0  0  0  0  0  0  0  0  0  0
    4.6462   -1.6438    9.5538 C   0  0  0  0  0  0  0  0  0  0  0  0
    6.4342   -1.5025    7.8257 C   0  0  0  0  0  0  0  0  0  0  0  0
    3.8236   -0.2941    6.8146 C   0  0  0  0  0  0  0  0  0  0  0  0
    2.5667   -0.1688    5.9827 C   0  0  1  0  0  0  0  0  0  0  0  0
    2.9435    0.9523    5.2291 O   0  0  0  0  0  0  0  0  0  0  0  0
    1.6858   -1.6336    5.6062 C   0  0  1  0  0  0  0  0  0  0  0  0
    1.2094   -2.7692    6.6597 C   0  0  1  0  0  0  0  0  0  0  0  0
    1.9296   -3.8346    7.2139 O   0  0  0  0  0  0  0  0  0  0  0  0
    1.1037   -1.5606    7.4644 C   0  0  1  0  0  0  0  0  0  0  0  0
    0.2579   -1.7837    8.5788 O   0  0  0  0  0  0  0  0  0  0  0  0
    2.6093   -1.7223    7.8151 O   0  0  0  0  0  0  0  0  0  0  0  0
    0.3509   -1.0954    5.9836 C   0  0  1  0  0  0  0  0  0  0  0  0
   -0.2240    0.0704    4.9538 C   0  0  1  0  0  0  0  0  0  0  0  0
   -1.4271   -0.7247    4.3106 C   0  0  0  0  0  0  0  0  0  0  0  0
   -0.8970    1.3884    5.5516 C   0  0  0  0  0  0  0  0  0  0  0  0
   -0.7728    1.8840    6.8167 C   0  0  0  0  0  0  0  0  0  0  0  0
   -0.3944    1.1011    8.0439 C   0  0  0  0  0  0  0  0  0  0  0  0
   -1.0251    3.3320    7.2163 C   0  0  0  0  0  0  0  0  0  0  0  0
   -1.7697    2.1466    4.4907 C   0  0  1  0  0  0  0  0  0  0  0  0
   -2.8315    3.1756    4.9368 C   0  0  0  0  0  0  0  0  0  0  0  0
   -0.9778    2.6179    3.2758 C   0  0  1  0  0  0  0  0  0  0  0  0
   -0.1304    3.6958    3.6205 O   0  0  0  0  0  0  0  0  0  0  0  0
   -0.1705    1.4720    2.6467 C   0  0  0  0  0  0  0  0  0  0  0  0
    0.6972    0.6442    3.6712 C   0  0  2  0  0  0  0  0  0  0  0  0
    1.9563    0.0939    2.7310 C   0  0  1  0  0  0  0  0  0  0  0  0
    2.8023    1.2902    2.2040 C   0  0  0  0  0  0  0  0  0  0  0  0
    3.0334   -1.1012    2.7812 C   0  0  0  0  0  0  0  0  0  0  0  0
    3.5015   -1.4227    1.6830 O   0  0  0  0  0  0  0  0  0  0  0  0
    3.4389   -2.0216    4.0072 C   0  0  1  0  0  0  0  0  0  0  0  0
    4.3047   -0.9014    4.0927 O   0  0  0  0  0  0  0  0  0  0  0  0
    2.0360   -2.4267    4.3417 C   0  0  2  0  0  0  0  0  0  0  0  0
    0.9319   -2.4528    3.4424 O   0  0  0  0  0  0  0  0  0  0  0  0
    2.0282   -4.0093    4.3255 C   0  0  1  0  0  0  0  0  0  0  0  0
    2.3496   -4.8088    3.1435 O   0  0  0  0  0  0  0  0  0  0  0  0
    3.2626   -4.9229    4.2276 C   0  0  2  0  0  0  0  0  0  0  0  0
    4.7308   -4.5487    3.9899 C   0  0  1  0  0  0  0  0  0  0  0  0
    5.0233   -3.7253    2.8730 O   0  0  0  0  0  0  0  0  0  0  0  0
    5.6154   -5.7699    3.5390 C   0  0  0  0  0  0  0  0  0  0  0  0
    5.5527   -7.0685    4.3549 C   0  0  1  0  0  0  0  0  0  0  0  0
    6.7435   -7.2292    5.3321 C   0  0  0  0  0  0  0  0  0  0  0  0
    4.1376   -7.2969    4.9137 C   0  0  1  0  0  0  0  0  0  0  0  0
    4.2455   -8.1925    6.0036 O   0  0  0  0  0  0  0  0  0  0  0  0
   -0.1369   -6.8613    7.1902 H   0  0  0  0  0  0  0  0  0  0  0  0
    0.7867   -8.3752    7.1467 H   0  0  0  0  0  0  0  0  0  0  0  0
   -0.5791   -8.1573    6.0473 H   0  0  0  0  0  0  0  0  0  0  0  0
    6.6614   -4.7961    5.5239 H   0  0  0  0  0  0  0  0  0  0  0  0
    5.3289   -2.0028    5.4436 H   0  0  0  0  0  0  0  0  0  0  0  0
    5.1146   -3.1313    8.1599 H   0  0  0  0  0  0  0  0  0  0  0  0
    4.4925   -0.5706    9.6647 H   0  0  0  0  0  0  0  0  0  0  0  0
    5.4514   -1.9104   10.2376 H   0  0  0  0  0  0  0  0  0  0  0  0
    3.7593   -2.1552    9.9269 H   0  0  0  0  0  0  0  0  0  0  0  0
    6.4657   -0.4131    7.8647 H   0  0  0  0  0  0  0  0  0  0  0  0
    6.8666   -1.8027    6.8748 H   0  0  0  0  0  0  0  0  0  0  0  0
    7.1311   -1.8713    8.5806 H   0  0  0  0  0  0  0  0  0  0  0  0
    3.7063    0.2668    7.7414 H   0  0  0  0  0  0  0  0  0  0  0  0
    4.7301    0.1027    6.3499 H   0  0  0  0  0  0  0  0  0  0  0  0
    1.9349    0.4753    6.5872 H   0  0  0  0  0  0  0  0  0  0  0  0
    3.5167    0.6474    4.5285 H   0  0  0  0  0  0  0  0  0  0  0  0
    0.2681   -3.2903    6.4334 H   0  0  0  0  0  0  0  0  0  0  0  0
    2.7281   -3.4439    7.5528 H   0  0  0  0  0  0  0  0  0  0  0  0
    0.6954   -2.4588    9.0796 H   0  0  0  0  0  0  0  0  0  0  0  0
   -0.5819   -1.6508    6.1314 H   0  0  0  0  0  0  0  0  0  0  0  0
   -1.2338   -1.7764    4.1186 H   0  0  0  0  0  0  0  0  0  0  0  0
   -1.7731   -0.3494    3.3589 H   0  0  0  0  0  0  0  0  0  0  0  0
   -2.3125   -0.7121    4.9505 H   0  0  0  0  0  0  0  0  0  0  0  0
   -0.7900    1.5730    8.9451 H   0  0  0  0  0  0  0  0  0  0  0  0
    0.6798    1.0023    8.1787 H   0  0  0  0  0  0  0  0  0  0  0  0
   -0.9102    0.1532    7.9762 H   0  0  0  0  0  0  0  0  0  0  0  0
   -0.3504    3.6171    8.0230 H   0  0  0  0  0  0  0  0  0  0  0  0
   -2.0440    3.4952    7.5649 H   0  0  0  0  0  0  0  0  0  0  0  0
   -0.7740    4.0115    6.4042 H   0  0  0  0  0  0  0  0  0  0  0  0
   -2.4744    1.4246    4.0992 H   0  0  0  0  0  0  0  0  0  0  0  0
   -3.3793    2.8502    5.8200 H   0  0  0  0  0  0  0  0  0  0  0  0
   -3.5676    3.3083    4.1443 H   0  0  0  0  0  0  0  0  0  0  0  0
   -2.4221    4.1609    5.1218 H   0  0  0  0  0  0  0  0  0  0  0  0
   -1.6662    2.9989    2.5198 H   0  0  0  0  0  0  0  0  0  0  0  0
    0.2001    4.0548    2.7970 H   0  0  0  0  0  0  0  0  0  0  0  0
   -0.8216    0.8333    2.0562 H   0  0  0  0  0  0  0  0  0  0  0  0
    0.4146    1.9258    1.8514 H   0  0  0  0  0  0  0  0  0  0  0  0
    1.1080    1.5236    4.1425 H   0  0  0  0  0  0  0  0  0  0  0  0
    1.3961   -0.2517    1.8601 H   0  0  0  0  0  0  0  0  0  0  0  0
    3.8066    1.2971    2.6261 H   0  0  0  0  0  0  0  0  0  0  0  0
    2.3981    2.2760    2.4255 H   0  0  0  0  0  0  0  0  0  0  0  0
    2.9144    1.2115    1.1246 H   0  0  0  0  0  0  0  0  0  0  0  0
    4.7440   -0.9245    4.9359 H   0  0  0  0  0  0  0  0  0  0  0  0
    1.2217   -2.8414    2.6224 H   0  0  0  0  0  0  0  0  0  0  0  0
    1.1253   -4.4255    4.7663 H   0  0  0  0  0  0  0  0  0  0  0  0
    4.7634   -4.1874    2.0845 H   0  0  0  0  0  0  0  0  0  0  0  0
    5.3633   -6.0395    2.5090 H   0  0  0  0  0  0  0  0  0  0  0  0
    6.6561   -5.4409    3.4890 H   0  0  0  0  0  0  0  0  0  0  0  0
    5.7272   -7.8716    3.6372 H   0  0  0  0  0  0  0  0  0  0  0  0
    6.7089   -6.5534    6.1838 H   0  0  0  0  0  0  0  0  0  0  0  0
    7.6967   -7.0765    4.8237 H   0  0  0  0  0  0  0  0  0  0  0  0
    6.7885   -8.2441    5.7261 H   0  0  0  0  0  0  0  0  0  0  0  0
    3.5624   -7.8068    4.1391 H   0  0  0  0  0  0  0  0  0  0  0  0
    4.7127   -7.7617    6.7153 H   0  0  0  0  0  0  0  0  0  0  0  0
  1  2  1  0
  1 55  1  0
  1 56  1  0
  1 57  1  0
  2  3  2  0
  2  4  1  0
  5  4  1  1
  5 47  1  0
  5 53  1  0
  5  6  1  0
  6  7  2  0
  6  8  1  0
  8 48  1  0
  8  9  1  1
  8 10  1  0
  9 58  1  0
 10 41  1  0
 10 11  1  0
 10 59  1  6
 11 23  1  0
 11 12  1  1
 11 15  1  0
 12 13  1  0
 12 14  1  0
 12 60  1  0
 13 61  1  0
 13 62  1  0
 13 63  1  0
 14 64  1  0
 14 65  1  0
 14 66  1  0
 15 16  1  0
 15 67  1  0
 15 68  1  0
 16 17  1  0
 16 18  1  0
 16 69  1  1
 17 70  1  0
 18 24  1  0
 18 43  1  6
 18 19  1  0
 19 20  1  0
 19 21  1  0
 19 71  1  6
 20 72  1  0
 21 22  1  1
 21 23  1  0
 21 24  1  0
 22 73  1  0
 24 25  1  0
 24 74  1  6
 25 36  1  0
 25 26  1  6
 25 27  1  0
 26 75  1  0
 26 76  1  0
 26 77  1  0
 27 28  2  3
 27 31  1  0
 28 29  1  0
 28 30  1  0
 29 78  1  0
 29 79  1  0
 29 80  1  0
 30 81  1  0
 30 82  1  0
 30 83  1  0
 31 32  1  0
 31 33  1  0
 31 84  1  6
 32 85  1  0
 32 86  1  0
 32 87  1  0
 33 34  1  0
 33 35  1  0
 33 88  1  6
 34 89  1  0
 35 36  1  0
 35 90  1  0
 35 91  1  0
 36 37  1  0
 36 92  1  1
 37 38  1  0
 37 39  1  0
 37 93  1  6
 38 94  1  0
 38 95  1  0
 38 96  1  0
 39 40  2  0
 39 41  1  0
 41 42  1  6
 41 43  1  0
 42 97  1  0
 43 44  1  6
 43 45  1  0
 44 98  1  0
 45 47  1  0
 45 46  1  0
 45 99  1  1
 47 46  1  6
 47 48  1  0
 48 49  1  6
 48 50  1  0
 49100  1  0
 50 51  1  0
 50101  1  0
 50102  1  0
 51 52  1  0
 51 53  1  0
 51103  1  6
 52104  1  0
 52105  1  0
 52106  1  0
 53 54  1  0
 53107  1  6
 54108  1  0
M  END
>  <i_m_ct_stereo_status>  (232) 
1

>  <s_m_source_file>  (232) 
/var/tmp/pbs.5076255.sched01/tmpc2azvghe/701e6xuegj.sdf

>  <i_m_source_file_index>  (232) 
31

>  <i_lp_mmshare_version>  (232) 
48012

>  <i_f3d_flags>  (232) 
0

>  <s_epik_input>  (232) 
W0NAXTEyM1tDQEhdNFtDQEBdKFtPSF0pKFtDQEBIXTJbT0hdKU9bQ0BdKFtDSF0oW0NIM10pW0NIM10pKFtDSDJdW0NASF0xW09IXSlbQ0BIXTVbQ0BdNihbT0hdKVtDQF03KFtPSF0pW0NAQF04KFtDQEBdKEM2PU8pKE9DKD1PKVtDSDNdKVtDQEhdKFtPSF0pW0NAQEhdKFtDSDJdNylbQ0gzXSlbQ0BIXShPOClbQ0BdMyhbT0hdKVtDQF01KFtPSF0pQyg9TylbQ0BIXShbQ0gzXSlbQ0BASF05W0NAXTQoW0NIM10pQyg9QyhbQ0gzXSlbQ0gzXSlbQ0BASF0oW0NIM10pW0NAQEhdKFtPSF0pW0NIMl05

>  <s_epik_cmdline>  (232) 
J2VwaWtfcHl0aG9uJywgJy1waHQnLCAnMi4wJywgJy1waCcsICc3LjAnLCAnLXRuJywgJzgnLCAnLW1hJywgJzIwMCcsICctaW1hZScsICc8aW5maWxlLm1hZT4nLCAnLW9tYWUnLCAnPG91dGZpbGUubWFlPic=

>  <r_lp_tautomer_probability>  (232) 
1

>  <r_epik_Ionization_Penalty>  (232) 
1.58288e-05

>  <r_epik_Ionization_Penalty_Charging>  (232) 
0

>  <r_epik_Ionization_Penalty_Neutral>  (232) 
1.58288e-05

>  <r_epik_State_Penalty>  (232) 
-0

>  <r_epik_Charging_Adjusted_Penalty>  (232) 
0

>  <i_epik_Tot_Q>  (232) 
0

>  <i_epik_Tot_abs_Q>  (232) 
0

>  <s_epik_Chemistry_Notes>  (232) 
This compound has an ester and may undergo hydrolysis at high or low pH.

>  <s_lp_Force_Field>  (232) 
OPLS3e

>  <r_lp_Energy>  (232) 
635.326

>  <b_lp_Chiralities_Consistent>  (232) 
1

>  <s_lp_Variant>  (232) 
83:0-1

>  <s_i_glide_gridfile>  (232) 
pfpi4k_grid

>  <i_i_glide_lignum>  (232) 
31

>  <i_i_glide_rotatable_bonds>  (232) 
12

>  <r_i_docking_score>  (232) 
-2.55355

>  <r_i_glide_ligand_efficiency>  (232) 
-0.0472879

>  <r_i_glide_ligand_efficiency_sa>  (232) 
-0.178737

>  <r_i_glide_ligand_efficiency_ln>  (232) 
-0.511837

>  <r_i_glide_gscore>  (232) 
-2.55355

>  <r_i_glide_lipo>  (232) 
-0.0471821

>  <r_i_glide_hbond>  (232) 
-0.148199

>  <r_i_glide_metal>  (232) 
-0

>  <r_i_glide_rewards>  (232) 
-0.5

>  <r_i_glide_evdw>  (232) 
-25.6843

>  <r_i_glide_ecoul>  (232) 
-3.9642

>  <r_i_glide_erotb>  (232) 
0.0372225

>  <r_i_glide_esite>  (232) 
-0.0165438

>  <r_i_glide_emodel>  (232) 
-36.9102

>  <r_i_glide_energy>  (232) 
-29.6485

>  <r_i_glide_einternal>  (232) 
4.33826

>  <r_i_glide_intrahb_reward>  (232) 
-0.5

>  <i_i_glide_confnum>  (232) 
1

>  <i_i_glide_posenum>  (232) 
7

>  <r_i_glide_eff_state_penalty>  (232) 
0

>  <ligand_id>  (232) 
83

>  <original_smiles>  (232) 
CC(=O)OC12C(=O)C3(O)C4C5(C(C)C)CC(O)C67C(O)C(O)(O5)C6C5(C)C(=C(C)C)C(C)C(O)CC5C(C)C(=O)C4(O)C7(O)C4OC41C3(O)CC(C)C2O

>  <smiles>  (232) 
[H]OC1([H])C([H])([H])C2([H])C([H])(C([H])([H])[H])C(=O)C3(O[H])C4([H])C5(O[H])C(=O)C6(OC(=O)C([H])([H])[H])C([H])(O[H])C([H])(C([H])([H])[H])C([H])([H])C5(O[H])C65OC5([H])C3(O[H])C35C([H])(O[H])C([H])([H])C4(C([H])(C([H])([H])[H])C([H])([H])[H])OC(O[H])(C3([H])O[H])C5([H])C2(C([H])([H])[H])C(=C(C([H])([H])[H])C([H])([H])[H])C1([H])C([H])([H])[H]

$$$$
85:0:0
     RDKit          3D

 35 37  0  0  1  0  0  0  0  0999 V2000
    3.8237   -0.7472   -3.8735 C   0  0  0  0  0  0  0  0  0  0  0  0
    3.8042   -1.9313   -2.8917 C   0  0  0  0  0  0  0  0  0  0  0  0
    2.8076   -3.0277   -3.3110 C   0  0  0  0  0  0  0  0  0  0  0  0
    5.0721   -2.5133   -2.8099 O   0  0  0  0  0  0  0  0  0  0  0  0
    5.5845   -2.0852   -1.5673 C   0  0  2  0  0  0  0  0  0  0  0  0
    6.6749   -2.9507   -0.8578 C   0  0  1  0  0  0  0  0  0  0  0  0
    7.9214   -3.1422   -1.7452 C   0  0  0  0  0  0  0  0  0  0  0  0
    9.0104   -3.7067   -1.0537 O   0  0  0  0  0  0  0  0  0  0  0  0
    6.9706   -2.3607    0.5618 C   0  0  1  0  0  0  0  0  0  0  0  0
    7.5971   -1.0930    0.4749 O   0  0  0  0  0  0  0  0  0  0  0  0
    5.6354   -2.1761    1.3036 C   0  0  1  0  0  0  0  0  0  0  0  0
    5.6869   -1.5636    2.5672 O   0  0  0  0  0  0  0  0  0  0  0  0
    4.3757   -1.1167    2.7563 C   0  0  0  0  0  0  0  0  0  0  0  0
    3.6591   -1.2395    1.5598 O   0  0  0  0  0  0  0  0  0  0  0  0
    4.6457   -1.2911    0.5634 C   0  0  2  0  0  0  0  0  0  0  0  0
    4.3102   -2.0355   -0.7346 C   0  0  1  0  0  0  0  0  0  0  0  0
    3.4502   -1.4103   -1.6481 O   0  0  0  0  0  0  0  0  0  0  0  0
    4.4980    0.0253   -3.5096 H   0  0  0  0  0  0  0  0  0  0  0  0
    2.8235   -0.3224   -3.9287 H   0  0  0  0  0  0  0  0  0  0  0  0
    4.1301   -1.0739   -4.8707 H   0  0  0  0  0  0  0  0  0  0  0  0
    2.8291   -3.8508   -2.6020 H   0  0  0  0  0  0  0  0  0  0  0  0
    3.0832   -3.4047   -4.2950 H   0  0  0  0  0  0  0  0  0  0  0  0
    1.7945   -2.6222   -3.3578 H   0  0  0  0  0  0  0  0  0  0  0  0
    5.9457   -1.0647   -1.7154 H   0  0  0  0  0  0  0  0  0  0  0  0
    6.2604   -3.9511   -0.7087 H   0  0  0  0  0  0  0  0  0  0  0  0
    7.6753   -3.8202   -2.5654 H   0  0  0  0  0  0  0  0  0  0  0  0
    8.2678   -2.2089   -2.1866 H   0  0  0  0  0  0  0  0  0  0  0  0
    9.8026   -3.3032   -1.4421 H   0  0  0  0  0  0  0  0  0  0  0  0
    7.6020   -3.0408    1.1314 H   0  0  0  0  0  0  0  0  0  0  0  0
    7.6647   -0.7253    1.3467 H   0  0  0  0  0  0  0  0  0  0  0  0
    5.1758   -3.1584    1.4566 H   0  0  0  0  0  0  0  0  0  0  0  0
    3.8793   -1.7227    3.5223 H   0  0  0  0  0  0  0  0  0  0  0  0
    4.4179   -0.0693    3.0780 H   0  0  0  0  0  0  0  0  0  0  0  0
    5.0399   -0.2831    0.3807 H   0  0  0  0  0  0  0  0  0  0  0  0
    3.9364   -3.0478   -0.5360 H   0  0  0  0  0  0  0  0  0  0  0  0
  1  2  1  0
  1 18  1  0
  1 19  1  0
  1 20  1  0
  2 17  1  0
  2  3  1  0
  2  4  1  0
  3 21  1  0
  3 22  1  0
  3 23  1  0
  4  5  1  0
  5 16  1  0
  5  6  1  0
  5 24  1  6
  6  7  1  0
  6  9  1  0
  6 25  1  1
  7  8  1  0
  7 26  1  0
  7 27  1  0
  8 28  1  0
  9 10  1  0
  9 11  1  0
  9 29  1  1
 10 30  1  0
 11 15  1  0
 11 12  1  0
 11 31  1  1
 12 13  1  0
 13 14  1  0
 13 32  1  0
 13 33  1  0
 14 15  1  0
 15 16  1  0
 15 34  1  6
 16 17  1  0
 16 35  1  1
M  END
>  <i_m_ct_stereo_status>  (233) 
1

>  <s_m_source_file>  (233) 
/var/tmp/pbs.5076255.sched01/tmpc2azvghe/701e6xuegj.sdf

>  <i_m_source_file_index>  (233) 
33

>  <i_lp_mmshare_version>  (233) 
48012

>  <i_f3d_flags>  (233) 
0

>  <s_epik_input>  (233) 
W0NIM11DKE8xKShbQ0gzXSlPW0NAQEhdKFtDQEhdMTIpW0NAQEhdM1tDQEhdKE9bQ0gyXU8zKVtDQEhdKFtPSF0pW0NAQEhdMltDSDJdW09IXQ==

>  <s_epik_cmdline>  (233) 
J2VwaWtfcHl0aG9uJywgJy1waHQnLCAnMi4wJywgJy1waCcsICc3LjAnLCAnLXRuJywgJzgnLCAnLW1hJywgJzIwMCcsICctaW1hZScsICc8aW5maWxlLm1hZT4nLCAnLW9tYWUnLCAnPG91dGZpbGUubWFlPic=

>  <r_lp_tautomer_probability>  (233) 
1

>  <r_epik_Ionization_Penalty>  (233) 
1.94793e-06

>  <r_epik_Ionization_Penalty_Charging>  (233) 
0

>  <r_epik_Ionization_Penalty_Neutral>  (233) 
1.94793e-06

>  <r_epik_State_Penalty>  (233) 
-0

>  <r_epik_Charging_Adjusted_Penalty>  (233) 
0

>  <i_epik_Tot_Q>  (233) 
0

>  <i_epik_Tot_abs_Q>  (233) 
0

>  <s_epik_Chemistry_Notes>  (233) 
This compound contains an acetal/aminal-like group ( X-CH(R)-Y where X, Y are N, S, or O) that may be acid/base labile, releasing an aldehyde.

>  <s_lp_Force_Field>  (233) 
OPLS3e

>  <r_lp_Energy>  (233) 
-3.53137

>  <b_lp_Chiralities_Consistent>  (233) 
1

>  <s_lp_Variant>  (233) 
85:0-1

>  <s_i_glide_gridfile>  (233) 
pfpi4k_grid

>  <i_i_glide_lignum>  (233) 
33

>  <i_i_glide_rotatable_bonds>  (233) 
3

>  <r_i_docking_score>  (233) 
-4.0157

>  <r_i_glide_ligand_efficiency>  (233) 
-0.236218

>  <r_i_glide_ligand_efficiency_sa>  (233) 
-0.607382

>  <r_i_glide_ligand_efficiency_ln>  (233) 
-1.04761

>  <r_i_glide_gscore>  (233) 
-4.0157

>  <r_i_glide_lipo>  (233) 
-0.596575

>  <r_i_glide_hbond>  (233) 
0

>  <r_i_glide_metal>  (233) 
-0

>  <r_i_glide_rewards>  (233) 
-1.81831

>  <r_i_glide_evdw>  (233) 
-17.8835

>  <r_i_glide_ecoul>  (233) 
-6.05177

>  <r_i_glide_erotb>  (233) 
0.20113

>  <r_i_glide_esite>  (233) 
0

>  <r_i_glide_emodel>  (233) 
-28.1944

>  <r_i_glide_energy>  (233) 
-23.9353

>  <r_i_glide_einternal>  (233) 
2.79494

>  <r_i_glide_intrahb_reward>  (233) 
-0

>  <i_i_glide_confnum>  (233) 
4

>  <i_i_glide_posenum>  (233) 
13

>  <r_i_glide_eff_state_penalty>  (233) 
0

>  <ligand_id>  (233) 
85

>  <original_smiles>  (233) 
CC1(C)OC2C(CO)C(O)C3OCOC3C2O1

>  <smiles>  (233) 
[H]OC([H])([H])C1([H])C([H])(O[H])C2([H])OC([H])([H])OC2([H])C2([H])OC(C([H])([H])[H])(C([H])([H])[H])OC21[H]

$$$$
85:0:1
     RDKit          3D

 35 37  0  0  1  0  0  0  0  0999 V2000
    3.8900   -5.0806    2.4743 C   0  0  0  0  0  0  0  0  0  0  0  0
    3.2105   -3.8059    1.9675 C   0  0  0  0  0  0  0  0  0  0  0  0
    2.1253   -3.2980    2.9289 C   0  0  0  0  0  0  0  0  0  0  0  0
    4.1646   -2.7898    1.8258 O   0  0  0  0  0  0  0  0  0  0  0  0
    4.3832   -2.6977    0.4392 C   0  0  2  0  0  0  0  0  0  0  0  0
    4.9124   -1.3529   -0.1272 C   0  0  1  0  0  0  0  0  0  0  0  0
    6.2453   -0.8834    0.4931 C   0  0  0  0  0  0  0  0  0  0  0  0
    7.3324   -1.7470    0.2167 O   0  0  0  0  0  0  0  0  0  0  0  0
    4.8814   -1.3733   -1.6955 C   0  0  1  0  0  0  0  0  0  0  0  0
    5.8603   -2.2623   -2.2020 O   0  0  0  0  0  0  0  0  0  0  0  0
    3.4926   -1.8511   -2.1774 C   0  0  1  0  0  0  0  0  0  0  0  0
    3.3203   -2.0764   -3.5527 O   0  0  0  0  0  0  0  0  0  0  0  0
    2.2146   -2.9290   -3.6028 C   0  0  0  0  0  0  0  0  0  0  0  0
    1.8954   -3.3791   -2.3189 O   0  0  0  0  0  0  0  0  0  0  0  0
    3.0805   -3.1964   -1.5865 C   0  0  2  0  0  0  0  0  0  0  0  0
    2.9748   -2.9935   -0.0719 C   0  0  1  0  0  0  0  0  0  0  0  0
    2.6407   -4.0999    0.7254 O   0  0  0  0  0  0  0  0  0  0  0  0
    4.6292   -5.4250    1.7511 H   0  0  0  0  0  0  0  0  0  0  0  0
    3.1359   -5.8630    2.5918 H   0  0  0  0  0  0  0  0  0  0  0  0
    4.3743   -4.9061    3.4339 H   0  0  0  0  0  0  0  0  0  0  0  0
    1.6826   -2.3719    2.5532 H   0  0  0  0  0  0  0  0  0  0  0  0
    2.5733   -3.0916    3.9055 H   0  0  0  0  0  0  0  0  0  0  0  0
    1.3406   -4.0449    3.0504 H   0  0  0  0  0  0  0  0  0  0  0  0
    5.0615   -3.5075    0.1610 H   0  0  0  0  0  0  0  0  0  0  0  0
    4.1886   -0.5880    0.1621 H   0  0  0  0  0  0  0  0  0  0  0  0
    6.4941    0.1128    0.1265 H   0  0  0  0  0  0  0  0  0  0  0  0
    6.1335   -0.8008    1.5756 H   0  0  0  0  0  0  0  0  0  0  0  0
    7.1365   -2.6107    0.5617 H   0  0  0  0  0  0  0  0  0  0  0  0
    5.0833   -0.3755   -2.0916 H   0  0  0  0  0  0  0  0  0  0  0  0
    5.6379   -3.1429   -1.9414 H   0  0  0  0  0  0  0  0  0  0  0  0
    2.7566   -1.0908   -1.8991 H   0  0  0  0  0  0  0  0  0  0  0  0
    1.3657   -2.4015   -4.0280 H   0  0  0  0  0  0  0  0  0  0  0  0
    2.4601   -3.7814   -4.2319 H   0  0  0  0  0  0  0  0  0  0  0  0
    3.7945   -3.9818   -1.8482 H   0  0  0  0  0  0  0  0  0  0  0  0
    2.2860   -2.1864    0.1804 H   0  0  0  0  0  0  0  0  0  0  0  0
  1  2  1  0
  1 18  1  0
  1 19  1  0
  1 20  1  0
  2 17  1  0
  2  3  1  0
  2  4  1  0
  3 21  1  0
  3 22  1  0
  3 23  1  0
  4  5  1  0
  5 16  1  0
  5  6  1  0
  5 24  1  6
  6  7  1  0
  6  9  1  0
  6 25  1  1
  7  8  1  0
  7 26  1  0
  7 27  1  0
  8 28  1  0
  9 10  1  0
  9 11  1  0
  9 29  1  6
 10 30  1  0
 11 15  1  0
 11 12  1  0
 11 31  1  1
 12 13  1  0
 13 14  1  0
 13 32  1  0
 13 33  1  0
 14 15  1  0
 15 16  1  0
 15 34  1  1
 16 17  1  0
 16 35  1  6
M  END
>  <i_m_ct_stereo_status>  (234) 
1

>  <s_m_source_file>  (234) 
/var/tmp/pbs.5076255.sched01/tmpc2azvghe/701e6xuegj.sdf

>  <i_m_source_file_index>  (234) 
33

>  <i_lp_mmshare_version>  (234) 
48012

>  <i_f3d_flags>  (234) 
0

>  <s_epik_input>  (234) 
W0NIM11DKE8xKShbQ0gzXSlPW0NAQEhdKFtDQEhdMTIpW0NAQEhdM1tDQEhdKE9bQ0gyXU8zKVtDQEhdKFtPSF0pW0NAQEhdMltDSDJdW09IXQ==

>  <s_epik_cmdline>  (234) 
J2VwaWtfcHl0aG9uJywgJy1waHQnLCAnMi4wJywgJy1waCcsICc3LjAnLCAnLXRuJywgJzgnLCAnLW1hJywgJzIwMCcsICctaW1hZScsICc8aW5maWxlLm1hZT4nLCAnLW9tYWUnLCAnPG91dGZpbGUubWFlPic=

>  <r_lp_tautomer_probability>  (234) 
1

>  <r_epik_Ionization_Penalty>  (234) 
1.94793e-06

>  <r_epik_Ionization_Penalty_Charging>  (234) 
0

>  <r_epik_Ionization_Penalty_Neutral>  (234) 
1.94793e-06

>  <r_epik_State_Penalty>  (234) 
-0

>  <r_epik_Charging_Adjusted_Penalty>  (234) 
0

>  <i_epik_Tot_Q>  (234) 
0

>  <i_epik_Tot_abs_Q>  (234) 
0

>  <s_epik_Chemistry_Notes>  (234) 
This compound contains an acetal/aminal-like group ( X-CH(R)-Y where X, Y are N, S, or O) that may be acid/base labile, releasing an aldehyde.

>  <s_lp_Force_Field>  (234) 
OPLS3e

>  <r_lp_Energy>  (234) 
-3.53137

>  <b_lp_Chiralities_Consistent>  (234) 
1

>  <s_lp_Variant>  (234) 
85:0-1

>  <s_i_glide_gridfile>  (234) 
pfpi4k_grid

>  <i_i_glide_lignum>  (234) 
33

>  <i_i_glide_rotatable_bonds>  (234) 
3

>  <r_i_docking_score>  (234) 
-3.5419

>  <r_i_glide_ligand_efficiency>  (234) 
-0.208347

>  <r_i_glide_ligand_efficiency_sa>  (234) 
-0.535719

>  <r_i_glide_ligand_efficiency_ln>  (234) 
-0.924003

>  <r_i_glide_gscore>  (234) 
-3.5419

>  <r_i_glide_lipo>  (234) 
-0.151801

>  <r_i_glide_hbond>  (234) 
0

>  <r_i_glide_metal>  (234) 
-0

>  <r_i_glide_rewards>  (234) 
-2.08538

>  <r_i_glide_evdw>  (234) 
-18.6791

>  <r_i_glide_ecoul>  (234) 
-4.38727

>  <r_i_glide_erotb>  (234) 
0.287329

>  <r_i_glide_esite>  (234) 
0

>  <r_i_glide_emodel>  (234) 
-27.7292

>  <r_i_glide_energy>  (234) 
-23.0664

>  <r_i_glide_einternal>  (234) 
1.62127

>  <r_i_glide_intrahb_reward>  (234) 
-0

>  <i_i_glide_confnum>  (234) 
6

>  <i_i_glide_posenum>  (234) 
8

>  <r_i_glide_eff_state_penalty>  (234) 
0

>  <ligand_id>  (234) 
85

>  <original_smiles>  (234) 
CC1(C)OC2C(CO)C(O)C3OCOC3C2O1

>  <smiles>  (234) 
[H]OC([H])([H])C1([H])C([H])(O[H])C2([H])OC([H])([H])OC2([H])C2([H])OC(C([H])([H])[H])(C([H])([H])[H])OC21[H]

$$$$
85:0:2
     RDKit          3D

 35 37  0  0  1  0  0  0  0  0999 V2000
    3.7927   -5.2313    2.4405 C   0  0  0  0  0  0  0  0  0  0  0  0
    3.0842   -3.9670    1.9411 C   0  0  0  0  0  0  0  0  0  0  0  0
    1.9009   -3.5600    2.8321 C   0  0  0  0  0  0  0  0  0  0  0  0
    3.9875   -2.9022    1.9373 O   0  0  0  0  0  0  0  0  0  0  0  0
    4.3216   -2.7088    0.5850 C   0  0  2  0  0  0  0  0  0  0  0  0
    4.8052   -1.2996    0.1434 C   0  0  1  0  0  0  0  0  0  0  0  0
    6.0774   -0.8352    0.8687 C   0  0  0  0  0  0  0  0  0  0  0  0
    5.8262   -0.6514    2.2428 O   0  0  0  0  0  0  0  0  0  0  0  0
    4.9638   -1.2682   -1.4123 C   0  0  1  0  0  0  0  0  0  0  0  0
    6.0827   -2.0573   -1.7838 O   0  0  0  0  0  0  0  0  0  0  0  0
    3.6639   -1.8008   -2.0638 C   0  0  1  0  0  0  0  0  0  0  0  0
    3.6166   -1.9429   -3.4615 O   0  0  0  0  0  0  0  0  0  0  0  0
    2.5499   -2.8318   -3.6472 C   0  0  0  0  0  0  0  0  0  0  0  0
    2.1418   -3.3533   -2.4162 O   0  0  0  0  0  0  0  0  0  0  0  0
    3.2560   -3.1837   -1.5792 C   0  0  2  0  0  0  0  0  0  0  0  0
    2.9878   -3.0543   -0.0741 C   0  0  1  0  0  0  0  0  0  0  0  0
    2.6385   -4.2142    0.6375 O   0  0  0  0  0  0  0  0  0  0  0  0
    4.6117   -5.4912    1.7736 H   0  0  0  0  0  0  0  0  0  0  0  0
    3.0829   -6.0566    2.4579 H   0  0  0  0  0  0  0  0  0  0  0  0
    4.1826   -5.0718    3.4445 H   0  0  0  0  0  0  0  0  0  0  0  0
    1.4469   -2.6421    2.4625 H   0  0  0  0  0  0  0  0  0  0  0  0
    2.2630   -3.3795    3.8429 H   0  0  0  0  0  0  0  0  0  0  0  0
    1.1516   -4.3495    2.8591 H   0  0  0  0  0  0  0  0  0  0  0  0
    5.0756   -3.4575    0.3281 H   0  0  0  0  0  0  0  0  0  0  0  0
    4.0221   -0.5823    0.3928 H   0  0  0  0  0  0  0  0  0  0  0  0
    6.8941   -1.5470    0.7382 H   0  0  0  0  0  0  0  0  0  0  0  0
    6.4059    0.1158    0.4589 H   0  0  0  0  0  0  0  0  0  0  0  0
    6.6227   -0.3105    2.6347 H   0  0  0  0  0  0  0  0  0  0  0  0
    5.1431   -0.2506   -1.7521 H   0  0  0  0  0  0  0  0  0  0  0  0
    5.8538   -2.9743   -1.7022 H   0  0  0  0  0  0  0  0  0  0  0  0
    2.8721   -1.0902   -1.8169 H   0  0  0  0  0  0  0  0  0  0  0  0
    1.7046   -2.3265   -4.1100 H   0  0  0  0  0  0  0  0  0  0  0  0
    2.8815   -3.6438   -4.2885 H   0  0  0  0  0  0  0  0  0  0  0  0
    4.0186   -3.9274   -1.8088 H   0  0  0  0  0  0  0  0  0  0  0  0
    2.2382   -2.2852    0.1364 H   0  0  0  0  0  0  0  0  0  0  0  0
  1  2  1  0
  1 18  1  0
  1 19  1  0
  1 20  1  0
  2 17  1  0
  2  3  1  0
  2  4  1  0
  3 21  1  0
  3 22  1  0
  3 23  1  0
  4  5  1  0
  5 16  1  0
  5  6  1  0
  5 24  1  6
  6  7  1  0
  6  9  1  0
  6 25  1  6
  7  8  1  0
  7 26  1  0
  7 27  1  0
  8 28  1  0
  9 10  1  0
  9 11  1  0
  9 29  1  6
 10 30  1  0
 11 15  1  0
 11 12  1  0
 11 31  1  1
 12 13  1  0
 13 14  1  0
 13 32  1  0
 13 33  1  0
 14 15  1  0
 15 16  1  0
 15 34  1  1
 16 17  1  0
 16 35  1  6
M  END
>  <i_m_ct_stereo_status>  (235) 
1

>  <s_m_source_file>  (235) 
/var/tmp/pbs.5076255.sched01/tmpc2azvghe/701e6xuegj.sdf

>  <i_m_source_file_index>  (235) 
33

>  <i_lp_mmshare_version>  (235) 
48012

>  <i_f3d_flags>  (235) 
0

>  <s_epik_input>  (235) 
W0NIM11DKE8xKShbQ0gzXSlPW0NAQEhdKFtDQEhdMTIpW0NAQEhdM1tDQEhdKE9bQ0gyXU8zKVtDQEhdKFtPSF0pW0NAQEhdMltDSDJdW09IXQ==

>  <s_epik_cmdline>  (235) 
J2VwaWtfcHl0aG9uJywgJy1waHQnLCAnMi4wJywgJy1waCcsICc3LjAnLCAnLXRuJywgJzgnLCAnLW1hJywgJzIwMCcsICctaW1hZScsICc8aW5maWxlLm1hZT4nLCAnLW9tYWUnLCAnPG91dGZpbGUubWFlPic=

>  <r_lp_tautomer_probability>  (235) 
1

>  <r_epik_Ionization_Penalty>  (235) 
1.94793e-06

>  <r_epik_Ionization_Penalty_Charging>  (235) 
0

>  <r_epik_Ionization_Penalty_Neutral>  (235) 
1.94793e-06

>  <r_epik_State_Penalty>  (235) 
-0

>  <r_epik_Charging_Adjusted_Penalty>  (235) 
0

>  <i_epik_Tot_Q>  (235) 
0

>  <i_epik_Tot_abs_Q>  (235) 
0

>  <s_epik_Chemistry_Notes>  (235) 
This compound contains an acetal/aminal-like group ( X-CH(R)-Y where X, Y are N, S, or O) that may be acid/base labile, releasing an aldehyde.

>  <s_lp_Force_Field>  (235) 
OPLS3e

>  <r_lp_Energy>  (235) 
-3.53137

>  <b_lp_Chiralities_Consistent>  (235) 
1

>  <s_lp_Variant>  (235) 
85:0-1

>  <s_i_glide_gridfile>  (235) 
pfpi4k_grid

>  <i_i_glide_lignum>  (235) 
33

>  <i_i_glide_rotatable_bonds>  (235) 
3

>  <r_i_docking_score>  (235) 
-3.49274

>  <r_i_glide_ligand_efficiency>  (235) 
-0.205455

>  <r_i_glide_ligand_efficiency_sa>  (235) 
-0.528283

>  <r_i_glide_ligand_efficiency_ln>  (235) 
-0.911178

>  <r_i_glide_gscore>  (235) 
-3.49274

>  <r_i_glide_lipo>  (235) 
-0.156259

>  <r_i_glide_hbond>  (235) 
0

>  <r_i_glide_metal>  (235) 
-0

>  <r_i_glide_rewards>  (235) 
-2.07256

>  <r_i_glide_evdw>  (235) 
-18.5835

>  <r_i_glide_ecoul>  (235) 
-4.14452

>  <r_i_glide_erotb>  (235) 
0.287329

>  <r_i_glide_esite>  (235) 
-0.000399874

>  <r_i_glide_emodel>  (235) 
-27.8242

>  <r_i_glide_energy>  (235) 
-22.728

>  <r_i_glide_einternal>  (235) 
0.4088

>  <r_i_glide_intrahb_reward>  (235) 
-0

>  <i_i_glide_confnum>  (235) 
2

>  <i_i_glide_posenum>  (235) 
18

>  <r_i_glide_eff_state_penalty>  (235) 
0

>  <ligand_id>  (235) 
85

>  <original_smiles>  (235) 
CC1(C)OC2C(CO)C(O)C3OCOC3C2O1

>  <smiles>  (235) 
[H]OC([H])([H])C1([H])C([H])(O[H])C2([H])OC([H])([H])OC2([H])C2([H])OC(C([H])([H])[H])(C([H])([H])[H])OC21[H]

$$$$
86:0:0
     RDKit          3D

 55 59  0  0  1  0  0  0  0  0999 V2000
    7.7530   -2.9894   -1.1083 C   0  0  0  0  0  0  0  0  0  0  0  0
    6.3791   -3.2710   -0.4580 C   0  0  2  0  0  0  0  0  0  0  0  0
    5.7967   -2.0216    0.2051 C   0  0  0  0  0  0  0  0  0  0  0  0
    6.4344   -0.9765    0.3300 O   0  0  0  0  0  0  0  0  0  0  0  0
    4.3446   -2.1382    0.6594 C   0  0  0  0  0  0  0  0  0  0  0  0
    3.9019   -3.6125    0.7686 C   0  0  0  0  0  0  0  0  0  0  0  0
    4.9815   -4.5498    1.3965 C   0  0  2  0  0  0  0  0  0  0  0  0
    5.3178   -3.9436    2.6321 O   0  0  0  0  0  0  0  0  0  0  0  0
    6.2373   -4.5611    0.4352 C   0  0  2  0  0  0  0  0  0  0  0  0
    7.5547   -5.0032    1.1256 C   0  0  0  0  0  0  0  0  0  0  0  0
    7.6437   -6.5100    1.3797 C   0  0  0  0  0  0  0  0  0  0  0  0
    6.8129   -7.0147    2.5350 C   0  0  2  0  0  0  0  0  0  0  0  0
    5.8641   -8.1591    2.2724 C   0  0  0  0  0  0  0  0  0  0  0  0
    5.3210   -6.8152    2.7268 C   0  0  1  0  0  0  0  0  0  0  0  0
    4.8063   -6.7460    4.1765 C   0  0  0  0  0  0  0  0  0  0  0  0
    3.3280   -7.1639    4.3736 C   0  0  0  0  0  0  0  0  0  0  0  0
    2.5946   -7.2251    3.0336 C   0  0  2  0  0  0  0  0  0  0  0  0
    2.9640   -5.9933    2.2228 C   0  0  2  0  0  0  0  0  0  0  0  0
    1.9787   -6.0276    1.2095 O   0  0  0  0  0  0  0  0  0  0  0  0
    0.8649   -6.6535    1.5949 C   0  0  0  0  0  0  0  0  0  0  0  0
   -0.1885   -6.6906    0.9680 O   0  0  0  0  0  0  0  0  0  0  0  0
    1.0605   -7.2542    2.9908 C   0  0  0  0  0  0  0  0  0  0  0  0
    0.5065   -8.6896    3.0771 C   0  0  0  0  0  0  0  0  0  0  0  0
    0.3666   -6.3452    4.0305 C   0  0  0  0  0  0  0  0  0  0  0  0
    4.4399   -5.9964    1.7343 C   0  0  1  0  0  0  0  0  0  0  0  0
    7.6707   -2.2181   -1.8695 H   0  0  0  0  0  0  0  0  0  0  0  0
    8.1461   -3.8608   -1.6311 H   0  0  0  0  0  0  0  0  0  0  0  0
    8.5010   -2.6636   -0.3839 H   0  0  0  0  0  0  0  0  0  0  0  0
    5.7018   -3.4286   -1.2975 H   0  0  0  0  0  0  0  0  0  0  0  0
    4.2489   -1.6489    1.6308 H   0  0  0  0  0  0  0  0  0  0  0  0
    3.6994   -1.5947   -0.0316 H   0  0  0  0  0  0  0  0  0  0  0  0
    2.9812   -3.5939    1.3445 H   0  0  0  0  0  0  0  0  0  0  0  0
    3.6382   -3.9842   -0.2227 H   0  0  0  0  0  0  0  0  0  0  0  0
    5.9522   -4.5034    3.0569 H   0  0  0  0  0  0  0  0  0  0  0  0
    6.0233   -5.3255   -0.3136 H   0  0  0  0  0  0  0  0  0  0  0  0
    8.3939   -4.8127    0.4617 H   0  0  0  0  0  0  0  0  0  0  0  0
    7.7723   -4.4311    2.0229 H   0  0  0  0  0  0  0  0  0  0  0  0
    7.3947   -7.0616    0.4856 H   0  0  0  0  0  0  0  0  0  0  0  0
    8.6849   -6.7748    1.5841 H   0  0  0  0  0  0  0  0  0  0  0  0
    7.3923   -7.0745    3.4505 H   0  0  0  0  0  0  0  0  0  0  0  0
    5.7019   -8.4700    1.2393 H   0  0  0  0  0  0  0  0  0  0  0  0
    5.8824   -8.9772    2.9880 H   0  0  0  0  0  0  0  0  0  0  0  0
    5.4256   -7.3989    4.7974 H   0  0  0  0  0  0  0  0  0  0  0  0
    4.9585   -5.7337    4.5534 H   0  0  0  0  0  0  0  0  0  0  0  0
    3.2682   -8.1366    4.8609 H   0  0  0  0  0  0  0  0  0  0  0  0
    2.8604   -6.4550    5.0564 H   0  0  0  0  0  0  0  0  0  0  0  0
    2.9538   -8.1060    2.5040 H   0  0  0  0  0  0  0  0  0  0  0  0
    2.7947   -5.1210    2.8582 H   0  0  0  0  0  0  0  0  0  0  0  0
    0.8523   -9.1868    3.9866 H   0  0  0  0  0  0  0  0  0  0  0  0
    0.8257   -9.2997    2.2254 H   0  0  0  0  0  0  0  0  0  0  0  0
   -0.5860   -8.7040    3.0914 H   0  0  0  0  0  0  0  0  0  0  0  0
    0.5888   -6.6639    5.0480 H   0  0  0  0  0  0  0  0  0  0  0  0
   -0.7201   -6.3851    3.9238 H   0  0  0  0  0  0  0  0  0  0  0  0
    0.6634   -5.2981    3.9306 H   0  0  0  0  0  0  0  0  0  0  0  0
    4.4311   -6.5709    0.8064 H   0  0  0  0  0  0  0  0  0  0  0  0
  1  2  1  0
  1 26  1  0
  1 27  1  0
  1 28  1  0
  2  9  1  0
  2  3  1  0
  2 29  1  6
  3  4  2  0
  3  5  1  0
  5  6  1  0
  5 30  1  0
  5 31  1  0
  6  7  1  0
  6 32  1  0
  6 33  1  0
  7 25  1  0
  7  8  1  1
  7  9  1  0
  8 34  1  0
  9 10  1  0
  9 35  1  6
 10 11  1  0
 10 36  1  0
 10 37  1  0
 11 12  1  0
 11 38  1  0
 11 39  1  0
 12 14  1  0
 12 13  1  0
 12 40  1  1
 14 13  1  6
 13 41  1  0
 13 42  1  0
 14 25  1  0
 14 15  1  0
 15 16  1  0
 15 43  1  0
 15 44  1  0
 16 17  1  0
 16 45  1  0
 16 46  1  0
 17 22  1  0
 17 18  1  0
 17 47  1  6
 18 19  1  0
 18 25  1  0
 18 48  1  1
 19 20  1  0
 20 21  2  0
 20 22  1  0
 22 23  1  0
 22 24  1  0
 23 49  1  0
 23 50  1  0
 23 51  1  0
 24 52  1  0
 24 53  1  0
 24 54  1  0
 25 55  1  6
M  END
>  <i_m_ct_stereo_status>  (236) 
1

>  <s_m_source_file>  (236) 
/var/tmp/pbs.5076255.sched01/tmpc2azvghe/701e6xuegj.sdf

>  <i_m_source_file_index>  (236) 
34

>  <i_lp_mmshare_version>  (236) 
48012

>  <i_f3d_flags>  (236) 
0

>  <s_epik_input>  (236) 
W0NIM11bQ0BASF0xQyg9TylbQ0gyXVtDSDJdW0NAXShbT0hdKShbQ0BASF0xW0NIMl1bQ0gyXVtDQEBIXShbQ0BAXTIzNClbQ0gyXTIpW0NAQEhdNFtDQEBIXTVbQ0BASF0oW0NIMl1bQ0gyXTMpQyhDKE81KT1PKShbQ0gzXSlbQ0gzXQ==

>  <s_epik_cmdline>  (236) 
J2VwaWtfcHl0aG9uJywgJy1waHQnLCAnMi4wJywgJy1waCcsICc3LjAnLCAnLXRuJywgJzgnLCAnLW1hJywgJzIwMCcsICctaW1hZScsICc8aW5maWxlLm1hZT4nLCAnLW9tYWUnLCAnPG91dGZpbGUubWFlPic=

>  <r_lp_tautomer_probability>  (236) 
1

>  <r_epik_Ionization_Penalty>  (236) 
1.03788e-06

>  <r_epik_Ionization_Penalty_Charging>  (236) 
0

>  <r_epik_Ionization_Penalty_Neutral>  (236) 
1.03788e-06

>  <r_epik_State_Penalty>  (236) 
-0

>  <r_epik_Charging_Adjusted_Penalty>  (236) 
0

>  <i_epik_Tot_Q>  (236) 
0

>  <i_epik_Tot_abs_Q>  (236) 
0

>  <s_epik_Chemistry_Notes>  (236) 
This compound has an ester and may undergo hydrolysis at high or low pH.

>  <s_lp_Force_Field>  (236) 
OPLS3e

>  <r_lp_Energy>  (236) 
36.9188

>  <b_lp_Chiralities_Consistent>  (236) 
1

>  <s_lp_Variant>  (236) 
86:0-1

>  <s_i_glide_gridfile>  (236) 
pfpi4k_grid

>  <i_i_glide_lignum>  (236) 
34

>  <i_i_glide_rotatable_bonds>  (236) 
1

>  <r_i_docking_score>  (236) 
-3.55578

>  <r_i_glide_ligand_efficiency>  (236) 
-0.142231

>  <r_i_glide_ligand_efficiency_sa>  (236) 
-0.415886

>  <r_i_glide_ligand_efficiency_ln>  (236) 
-0.842825

>  <r_i_glide_gscore>  (236) 
-3.55578

>  <r_i_glide_lipo>  (236) 
-0.457203

>  <r_i_glide_hbond>  (236) 
-0.159488

>  <r_i_glide_metal>  (236) 
-0

>  <r_i_glide_rewards>  (236) 
-1.0915

>  <r_i_glide_evdw>  (236) 
-28.3029

>  <r_i_glide_ecoul>  (236) 
-2.33713

>  <r_i_glide_erotb>  (236) 
0

>  <r_i_glide_esite>  (236) 
-0.0818642

>  <r_i_glide_emodel>  (236) 
-37.6569

>  <r_i_glide_energy>  (236) 
-30.6401

>  <r_i_glide_einternal>  (236) 
0.0115961

>  <r_i_glide_intrahb_reward>  (236) 
-0

>  <i_i_glide_confnum>  (236) 
1

>  <i_i_glide_posenum>  (236) 
15

>  <r_i_glide_eff_state_penalty>  (236) 
0

>  <ligand_id>  (236) 
86

>  <original_smiles>  (236) 
CC1C(=O)CCC2(O)C1CCC1CC13CCC1C(OC(=O)C1(C)C)C23

>  <smiles>  (236) 
[H]OC12C([H])([H])C([H])([H])C(=O)C([H])(C([H])([H])[H])C1([H])C([H])([H])C([H])([H])C1([H])C([H])([H])C13C([H])([H])C([H])([H])C1([H])C([H])(OC(=O)C1(C([H])([H])[H])C([H])([H])[H])C23[H]

$$$$
86:0:1
     RDKit          3D

 55 59  0  0  1  0  0  0  0  0999 V2000
    7.6266   -2.9692   -1.2923 C   0  0  0  0  0  0  0  0  0  0  0  0
    6.2614   -3.2523   -0.6266 C   0  0  2  0  0  0  0  0  0  0  0  0
    5.6488   -1.9911   -0.0157 C   0  0  0  0  0  0  0  0  0  0  0  0
    6.2592   -0.9273    0.0776 O   0  0  0  0  0  0  0  0  0  0  0  0
    4.2026   -2.1218    0.4423 C   0  0  0  0  0  0  0  0  0  0  0  0
    3.7968   -3.6006    0.6219 C   0  0  0  0  0  0  0  0  0  0  0  0
    4.9048   -4.4777    1.2920 C   0  0  2  0  0  0  0  0  0  0  0  0
    5.2345   -3.7941    2.4936 O   0  0  0  0  0  0  0  0  0  0  0  0
    6.1529   -4.5056    0.3240 C   0  0  2  0  0  0  0  0  0  0  0  0
    7.4844   -4.8966    1.0201 C   0  0  0  0  0  0  0  0  0  0  0  0
    7.6111   -6.3868    1.3480 C   0  0  0  0  0  0  0  0  0  0  0  0
    6.7986   -6.8523    2.5304 C   0  0  2  0  0  0  0  0  0  0  0  0
    5.8733   -8.0315    2.3257 C   0  0  0  0  0  0  0  0  0  0  0  0
    5.2981   -6.6781    2.7210 C   0  0  1  0  0  0  0  0  0  0  0  0
    4.7946   -6.5550    4.1705 C   0  0  0  0  0  0  0  0  0  0  0  0
    3.3263   -6.9930    4.3962 C   0  0  0  0  0  0  0  0  0  0  0  0
    2.5917   -7.1334    3.0638 C   0  0  2  0  0  0  0  0  0  0  0  0
    2.9327   -5.9331    2.1986 C   0  0  2  0  0  0  0  0  0  0  0  0
    1.9519   -6.0339    1.1916 O   0  0  0  0  0  0  0  0  0  0  0  0
    0.8563   -6.6727    1.6040 C   0  0  0  0  0  0  0  0  0  0  0  0
   -0.1900   -6.7731    0.9663 O   0  0  0  0  0  0  0  0  0  0  0  0
    1.0571   -7.2007    3.0251 C   0  0  0  0  0  0  0  0  0  0  0  0
    0.5316   -8.6444    3.1809 C   0  0  0  0  0  0  0  0  0  0  0  0
    0.3440   -6.2614    4.0272 C   0  0  0  0  0  0  0  0  0  0  0  0
    4.4029   -5.9218    1.7000 C   0  0  1  0  0  0  0  0  0  0  0  0
    7.5282   -2.2370   -2.0915 H   0  0  0  0  0  0  0  0  0  0  0  0
    8.0399   -3.8537   -1.7768 H   0  0  0  0  0  0  0  0  0  0  0  0
    8.3713   -2.5987   -0.5865 H   0  0  0  0  0  0  0  0  0  0  0  0
    5.5886   -3.4641   -1.4589 H   0  0  0  0  0  0  0  0  0  0  0  0
    4.0978   -1.5913    1.3896 H   0  0  0  0  0  0  0  0  0  0  0  0
    3.5439   -1.6267   -0.2705 H   0  0  0  0  0  0  0  0  0  0  0  0
    2.8709   -3.5791    1.1943 H   0  0  0  0  0  0  0  0  0  0  0  0
    3.5428   -4.0287   -0.3523 H   0  0  0  0  0  0  0  0  0  0  0  0
    4.4667   -3.7710    3.0375 H   0  0  0  0  0  0  0  0  0  0  0  0
    5.9420   -5.3093   -0.3819 H   0  0  0  0  0  0  0  0  0  0  0  0
    8.3132   -4.7132    0.3446 H   0  0  0  0  0  0  0  0  0  0  0  0
    7.6849   -4.2711    1.8871 H   0  0  0  0  0  0  0  0  0  0  0  0
    7.3718   -6.9930    0.4778 H   0  0  0  0  0  0  0  0  0  0  0  0
    8.6584   -6.6151    1.5594 H   0  0  0  0  0  0  0  0  0  0  0  0
    7.3830   -6.8530    3.4452 H   0  0  0  0  0  0  0  0  0  0  0  0
    5.7165   -8.3906    1.3089 H   0  0  0  0  0  0  0  0  0  0  0  0
    5.9141   -8.8134    3.0789 H   0  0  0  0  0  0  0  0  0  0  0  0
    5.4287   -7.1662    4.8150 H   0  0  0  0  0  0  0  0  0  0  0  0
    4.9287   -5.5241    4.4972 H   0  0  0  0  0  0  0  0  0  0  0  0
    3.2854   -7.9426    4.9264 H   0  0  0  0  0  0  0  0  0  0  0  0
    2.8440   -6.2645    5.0467 H   0  0  0  0  0  0  0  0  0  0  0  0
    2.9634   -8.0340    2.5730 H   0  0  0  0  0  0  0  0  0  0  0  0
    2.7362   -5.0378    2.7901 H   0  0  0  0  0  0  0  0  0  0  0  0
    0.8946   -9.0908    4.1111 H   0  0  0  0  0  0  0  0  0  0  0  0
    0.8599   -9.2825    2.3534 H   0  0  0  0  0  0  0  0  0  0  0  0
   -0.5607   -8.6788    3.2025 H   0  0  0  0  0  0  0  0  0  0  0  0
    0.5777   -6.5247    5.0581 H   0  0  0  0  0  0  0  0  0  0  0  0
   -0.7413   -6.3353    3.9315 H   0  0  0  0  0  0  0  0  0  0  0  0
    0.6116   -5.2135    3.8773 H   0  0  0  0  0  0  0  0  0  0  0  0
    4.4024   -6.5390    0.8005 H   0  0  0  0  0  0  0  0  0  0  0  0
  1  2  1  0
  1 26  1  0
  1 27  1  0
  1 28  1  0
  2  9  1  0
  2  3  1  0
  2 29  1  6
  3  4  2  0
  3  5  1  0
  5  6  1  0
  5 30  1  0
  5 31  1  0
  6  7  1  0
  6 32  1  0
  6 33  1  0
  7 25  1  0
  7  8  1  1
  7  9  1  0
  8 34  1  0
  9 10  1  0
  9 35  1  6
 10 11  1  0
 10 36  1  0
 10 37  1  0
 11 12  1  0
 11 38  1  0
 11 39  1  0
 12 14  1  0
 12 13  1  0
 12 40  1  1
 14 13  1  6
 13 41  1  0
 13 42  1  0
 14 25  1  0
 14 15  1  0
 15 16  1  0
 15 43  1  0
 15 44  1  0
 16 17  1  0
 16 45  1  0
 16 46  1  0
 17 22  1  0
 17 18  1  0
 17 47  1  6
 18 19  1  0
 18 25  1  0
 18 48  1  1
 19 20  1  0
 20 21  2  0
 20 22  1  0
 22 23  1  0
 22 24  1  0
 23 49  1  0
 23 50  1  0
 23 51  1  0
 24 52  1  0
 24 53  1  0
 24 54  1  0
 25 55  1  6
M  END
>  <i_m_ct_stereo_status>  (237) 
1

>  <s_m_source_file>  (237) 
/var/tmp/pbs.5076255.sched01/tmpc2azvghe/701e6xuegj.sdf

>  <i_m_source_file_index>  (237) 
34

>  <i_lp_mmshare_version>  (237) 
48012

>  <i_f3d_flags>  (237) 
0

>  <s_epik_input>  (237) 
W0NIM11bQ0BASF0xQyg9TylbQ0gyXVtDSDJdW0NAXShbT0hdKShbQ0BASF0xW0NIMl1bQ0gyXVtDQEBIXShbQ0BAXTIzNClbQ0gyXTIpW0NAQEhdNFtDQEBIXTVbQ0BASF0oW0NIMl1bQ0gyXTMpQyhDKE81KT1PKShbQ0gzXSlbQ0gzXQ==

>  <s_epik_cmdline>  (237) 
J2VwaWtfcHl0aG9uJywgJy1waHQnLCAnMi4wJywgJy1waCcsICc3LjAnLCAnLXRuJywgJzgnLCAnLW1hJywgJzIwMCcsICctaW1hZScsICc8aW5maWxlLm1hZT4nLCAnLW9tYWUnLCAnPG91dGZpbGUubWFlPic=

>  <r_lp_tautomer_probability>  (237) 
1

>  <r_epik_Ionization_Penalty>  (237) 
1.03788e-06

>  <r_epik_Ionization_Penalty_Charging>  (237) 
0

>  <r_epik_Ionization_Penalty_Neutral>  (237) 
1.03788e-06

>  <r_epik_State_Penalty>  (237) 
-0

>  <r_epik_Charging_Adjusted_Penalty>  (237) 
0

>  <i_epik_Tot_Q>  (237) 
0

>  <i_epik_Tot_abs_Q>  (237) 
0

>  <s_epik_Chemistry_Notes>  (237) 
This compound has an ester and may undergo hydrolysis at high or low pH.

>  <s_lp_Force_Field>  (237) 
OPLS3e

>  <r_lp_Energy>  (237) 
36.9188

>  <b_lp_Chiralities_Consistent>  (237) 
1

>  <s_lp_Variant>  (237) 
86:0-1

>  <s_i_glide_gridfile>  (237) 
pfpi4k_grid

>  <i_i_glide_lignum>  (237) 
34

>  <i_i_glide_rotatable_bonds>  (237) 
1

>  <r_i_docking_score>  (237) 
-3.52349

>  <r_i_glide_ligand_efficiency>  (237) 
-0.14094

>  <r_i_glide_ligand_efficiency_sa>  (237) 
-0.41211

>  <r_i_glide_ligand_efficiency_ln>  (237) 
-0.835174

>  <r_i_glide_gscore>  (237) 
-3.52349

>  <r_i_glide_lipo>  (237) 
-0.429906

>  <r_i_glide_hbond>  (237) 
-0.138809

>  <r_i_glide_metal>  (237) 
-0

>  <r_i_glide_rewards>  (237) 
-1.04686

>  <r_i_glide_evdw>  (237) 
-28.2301

>  <r_i_glide_ecoul>  (237) 
-2.75567

>  <r_i_glide_erotb>  (237) 
0

>  <r_i_glide_esite>  (237) 
-0.0830645

>  <r_i_glide_emodel>  (237) 
-37.9248

>  <r_i_glide_energy>  (237) 
-30.9857

>  <r_i_glide_einternal>  (237) 
0.00567199

>  <r_i_glide_intrahb_reward>  (237) 
-0

>  <i_i_glide_confnum>  (237) 
2

>  <i_i_glide_posenum>  (237) 
21

>  <r_i_glide_eff_state_penalty>  (237) 
0

>  <ligand_id>  (237) 
86

>  <original_smiles>  (237) 
CC1C(=O)CCC2(O)C1CCC1CC13CCC1C(OC(=O)C1(C)C)C23

>  <smiles>  (237) 
[H]OC12C([H])([H])C([H])([H])C(=O)C([H])(C([H])([H])[H])C1([H])C([H])([H])C([H])([H])C1([H])C([H])([H])C13C([H])([H])C([H])([H])C1([H])C([H])(OC(=O)C1(C([H])([H])[H])C([H])([H])[H])C23[H]

$$$$
86:0:2
     RDKit          3D

 55 59  0  0  1  0  0  0  0  0999 V2000
    7.5936   -2.9544   -1.3013 C   0  0  0  0  0  0  0  0  0  0  0  0
    6.2275   -3.2389   -0.6351 C   0  0  2  0  0  0  0  0  0  0  0  0
    5.6097   -1.9746   -0.0288 C   0  0  0  0  0  0  0  0  0  0  0  0
    6.2229   -0.9151    0.0768 O   0  0  0  0  0  0  0  0  0  0  0  0
    4.1627   -2.1128    0.4337 C   0  0  0  0  0  0  0  0  0  0  0  0
    3.7669   -3.5942    0.6212 C   0  0  0  0  0  0  0  0  0  0  0  0
    4.8764   -4.4658    1.2962 C   0  0  2  0  0  0  0  0  0  0  0  0
    5.1852   -3.7924    2.5068 O   0  0  0  0  0  0  0  0  0  0  0  0
    6.1259   -4.4858    0.3258 C   0  0  2  0  0  0  0  0  0  0  0  0
    7.4591   -4.8720    1.0193 C   0  0  0  0  0  0  0  0  0  0  0  0
    7.5927   -6.3608    1.3476 C   0  0  0  0  0  0  0  0  0  0  0  0
    6.7817   -6.8280    2.5293 C   0  0  2  0  0  0  0  0  0  0  0  0
    5.8636   -8.0098    2.3308 C   0  0  0  0  0  0  0  0  0  0  0  0
    5.2838   -6.6618    2.7242 C   0  0  1  0  0  0  0  0  0  0  0  0
    4.7767   -6.5368    4.1729 C   0  0  0  0  0  0  0  0  0  0  0  0
    3.3125   -6.9862    4.3988 C   0  0  0  0  0  0  0  0  0  0  0  0
    2.5789   -7.1294    3.0672 C   0  0  2  0  0  0  0  0  0  0  0  0
    2.9154   -5.9246    2.2037 C   0  0  2  0  0  0  0  0  0  0  0  0
    1.9390   -6.0335    1.1943 O   0  0  0  0  0  0  0  0  0  0  0  0
    0.8456   -6.6812    1.5992 C   0  0  0  0  0  0  0  0  0  0  0  0
   -0.1864   -6.7979    0.9560 O   0  0  0  0  0  0  0  0  0  0  0  0
    1.0473   -7.2046    3.0290 C   0  0  0  0  0  0  0  0  0  0  0  0
    0.5285   -8.6492    3.1843 C   0  0  0  0  0  0  0  0  0  0  0  0
    0.3260   -6.2675    4.0250 C   0  0  0  0  0  0  0  0  0  0  0  0
    4.3813   -5.9123    1.7014 C   0  0  1  0  0  0  0  0  0  0  0  0
    7.4905   -2.2194   -2.0975 H   0  0  0  0  0  0  0  0  0  0  0  0
    8.0054   -3.8427   -1.7758 H   0  0  0  0  0  0  0  0  0  0  0  0
    8.3333   -2.5743   -0.5940 H   0  0  0  0  0  0  0  0  0  0  0  0
    5.5559   -3.4581   -1.4664 H   0  0  0  0  0  0  0  0  0  0  0  0
    4.0514   -1.5781    1.3785 H   0  0  0  0  0  0  0  0  0  0  0  0
    3.4965   -1.6261   -0.2802 H   0  0  0  0  0  0  0  0  0  0  0  0
    2.8445   -3.5769    1.1966 H   0  0  0  0  0  0  0  0  0  0  0  0
    3.5134   -4.0248   -0.3505 H   0  0  0  0  0  0  0  0  0  0  0  0
    5.4689   -2.9137    2.2991 H   0  0  0  0  0  0  0  0  0  0  0  0
    5.9210   -5.2898   -0.3803 H   0  0  0  0  0  0  0  0  0  0  0  0
    8.2901   -4.6820    0.3481 H   0  0  0  0  0  0  0  0  0  0  0  0
    7.6551   -4.2570    1.8945 H   0  0  0  0  0  0  0  0  0  0  0  0
    7.3548   -6.9693    0.4838 H   0  0  0  0  0  0  0  0  0  0  0  0
    8.6399   -6.5854    1.5565 H   0  0  0  0  0  0  0  0  0  0  0  0
    7.3662   -6.8223    3.4477 H   0  0  0  0  0  0  0  0  0  0  0  0
    5.7055   -8.3751    1.3138 H   0  0  0  0  0  0  0  0  0  0  0  0
    5.9072   -8.7911    3.0848 H   0  0  0  0  0  0  0  0  0  0  0  0
    5.4156   -7.1407    4.8205 H   0  0  0  0  0  0  0  0  0  0  0  0
    4.9005   -5.5013    4.4926 H   0  0  0  0  0  0  0  0  0  0  0  0
    3.2766   -7.9358    4.9310 H   0  0  0  0  0  0  0  0  0  0  0  0
    2.8242   -6.2578    5.0454 H   0  0  0  0  0  0  0  0  0  0  0  0
    2.9583   -8.0261    2.5774 H   0  0  0  0  0  0  0  0  0  0  0  0
    2.7193   -5.0277    2.7950 H   0  0  0  0  0  0  0  0  0  0  0  0
    0.8888   -9.0944    4.1160 H   0  0  0  0  0  0  0  0  0  0  0  0
    0.8599   -9.2902    2.3606 H   0  0  0  0  0  0  0  0  0  0  0  0
   -0.5653   -8.6916    3.2045 H   0  0  0  0  0  0  0  0  0  0  0  0
    0.5568   -6.5309    5.0572 H   0  0  0  0  0  0  0  0  0  0  0  0
   -0.7597   -6.3459    3.9274 H   0  0  0  0  0  0  0  0  0  0  0  0
    0.5904   -5.2177    3.8778 H   0  0  0  0  0  0  0  0  0  0  0  0
    4.3844   -6.5272    0.8011 H   0  0  0  0  0  0  0  0  0  0  0  0
  1  2  1  0
  1 26  1  0
  1 27  1  0
  1 28  1  0
  2  9  1  0
  2  3  1  0
  2 29  1  6
  3  4  2  0
  3  5  1  0
  5  6  1  0
  5 30  1  0
  5 31  1  0
  6  7  1  0
  6 32  1  0
  6 33  1  0
  7 25  1  0
  7  8  1  1
  7  9  1  0
  8 34  1  0
  9 10  1  0
  9 35  1  6
 10 11  1  0
 10 36  1  0
 10 37  1  0
 11 12  1  0
 11 38  1  0
 11 39  1  0
 12 14  1  0
 12 13  1  0
 12 40  1  1
 14 13  1  6
 13 41  1  0
 13 42  1  0
 14 25  1  0
 14 15  1  0
 15 16  1  0
 15 43  1  0
 15 44  1  0
 16 17  1  0
 16 45  1  0
 16 46  1  0
 17 22  1  0
 17 18  1  0
 17 47  1  6
 18 19  1  0
 18 25  1  0
 18 48  1  1
 19 20  1  0
 20 21  2  0
 20 22  1  0
 22 23  1  0
 22 24  1  0
 23 49  1  0
 23 50  1  0
 23 51  1  0
 24 52  1  0
 24 53  1  0
 24 54  1  0
 25 55  1  6
M  END
>  <i_m_ct_stereo_status>  (238) 
1

>  <s_m_source_file>  (238) 
/var/tmp/pbs.5076255.sched01/tmpc2azvghe/701e6xuegj.sdf

>  <i_m_source_file_index>  (238) 
34

>  <i_lp_mmshare_version>  (238) 
48012

>  <i_f3d_flags>  (238) 
0

>  <s_epik_input>  (238) 
W0NIM11bQ0BASF0xQyg9TylbQ0gyXVtDSDJdW0NAXShbT0hdKShbQ0BASF0xW0NIMl1bQ0gyXVtDQEBIXShbQ0BAXTIzNClbQ0gyXTIpW0NAQEhdNFtDQEBIXTVbQ0BASF0oW0NIMl1bQ0gyXTMpQyhDKE81KT1PKShbQ0gzXSlbQ0gzXQ==

>  <s_epik_cmdline>  (238) 
J2VwaWtfcHl0aG9uJywgJy1waHQnLCAnMi4wJywgJy1waCcsICc3LjAnLCAnLXRuJywgJzgnLCAnLW1hJywgJzIwMCcsICctaW1hZScsICc8aW5maWxlLm1hZT4nLCAnLW9tYWUnLCAnPG91dGZpbGUubWFlPic=

>  <r_lp_tautomer_probability>  (238) 
1

>  <r_epik_Ionization_Penalty>  (238) 
1.03788e-06

>  <r_epik_Ionization_Penalty_Charging>  (238) 
0

>  <r_epik_Ionization_Penalty_Neutral>  (238) 
1.03788e-06

>  <r_epik_State_Penalty>  (238) 
-0

>  <r_epik_Charging_Adjusted_Penalty>  (238) 
0

>  <i_epik_Tot_Q>  (238) 
0

>  <i_epik_Tot_abs_Q>  (238) 
0

>  <s_epik_Chemistry_Notes>  (238) 
This compound has an ester and may undergo hydrolysis at high or low pH.

>  <s_lp_Force_Field>  (238) 
OPLS3e

>  <r_lp_Energy>  (238) 
36.9188

>  <b_lp_Chiralities_Consistent>  (238) 
1

>  <s_lp_Variant>  (238) 
86:0-1

>  <s_i_glide_gridfile>  (238) 
pfpi4k_grid

>  <i_i_glide_lignum>  (238) 
34

>  <i_i_glide_rotatable_bonds>  (238) 
1

>  <r_i_docking_score>  (238) 
-3.46025

>  <r_i_glide_ligand_efficiency>  (238) 
-0.13841

>  <r_i_glide_ligand_efficiency_sa>  (238) 
-0.404713

>  <r_i_glide_ligand_efficiency_ln>  (238) 
-0.820183

>  <r_i_glide_gscore>  (238) 
-3.46025

>  <r_i_glide_lipo>  (238) 
-0.420354

>  <r_i_glide_hbond>  (238) 
-0.126119

>  <r_i_glide_metal>  (238) 
-0

>  <r_i_glide_rewards>  (238) 
-1.04686

>  <r_i_glide_evdw>  (238) 
-28.3334

>  <r_i_glide_ecoul>  (238) 
-2.44018

>  <r_i_glide_erotb>  (238) 
0

>  <r_i_glide_esite>  (238) 
-0.0842217

>  <r_i_glide_emodel>  (238) 
-37.6113

>  <r_i_glide_energy>  (238) 
-30.7735

>  <r_i_glide_einternal>  (238) 
0.0125868

>  <r_i_glide_intrahb_reward>  (238) 
-0

>  <i_i_glide_confnum>  (238) 
1

>  <i_i_glide_posenum>  (238) 
7

>  <r_i_glide_eff_state_penalty>  (238) 
0

>  <ligand_id>  (238) 
86

>  <original_smiles>  (238) 
CC1C(=O)CCC2(O)C1CCC1CC13CCC1C(OC(=O)C1(C)C)C23

>  <smiles>  (238) 
[H]OC12C([H])([H])C([H])([H])C(=O)C([H])(C([H])([H])[H])C1([H])C([H])([H])C([H])([H])C1([H])C([H])([H])C13C([H])([H])C([H])([H])C1([H])C([H])(OC(=O)C1(C([H])([H])[H])C([H])([H])[H])C23[H]

$$$$
87:0:0
     RDKit          3D

 75 80  0  0  1  0  0  0  0  0999 V2000
    5.2872   -5.3694    6.7279 C   0  0  0  0  0  0  0  0  0  0  0  0
    3.8604   -5.8606    6.4386 C   0  0  2  0  0  0  0  0  0  0  0  0
    3.6031   -7.1623    7.1944 C   0  0  0  0  0  0  0  0  0  0  0  0
    2.1333   -7.6307    7.1211 C   0  0  1  0  0  0  0  0  0  0  0  0
    1.8835   -8.8085    8.1068 C   0  0  0  0  0  0  0  0  0  0  0  0
    1.4397   -8.1695    9.4394 C   0  0  0  0  0  0  0  0  0  0  0  0
    0.3420   -8.9948   10.1312 C   0  0  0  0  0  0  0  0  0  0  0  0
    2.5915   -7.9421   10.4431 C   0  0  0  0  0  0  0  0  0  0  0  0
    0.8872   -6.8386    8.9368 C   0  0  0  0  0  0  0  0  0  0  0  0
    0.1533   -6.1084    9.5873 O   0  0  0  0  0  0  0  0  0  0  0  0
    1.3026   -6.6196    7.6806 O   0  0  0  0  0  0  0  0  0  0  0  0
    1.7224   -7.8712    5.6151 C   0  0  0  0  0  0  0  0  0  0  0  0
    2.4973   -9.0944    5.0508 C   0  0  0  0  0  0  0  0  0  0  0  0
    0.2090   -8.1861    5.4932 C   0  0  0  0  0  0  0  0  0  0  0  0
    2.0371   -6.5502    4.8174 C   0  0  2  0  0  0  0  0  0  0  0  0
    1.5337   -6.6074    3.3522 C   0  0  0  0  0  0  0  0  0  0  0  0
    2.3305   -5.7435    2.3633 C   0  0  0  0  0  0  0  0  0  0  0  0
    2.8293   -4.3938    2.9459 C   0  0  1  0  0  0  0  0  0  0  0  0
    1.6187   -3.5223    3.3701 C   0  0  0  0  0  0  0  0  0  0  0  0
    3.7778   -4.7179    4.1456 C   0  0  2  0  0  0  0  0  0  0  0  0
    5.2252   -4.6490    3.5782 C   0  0  0  0  0  0  0  0  0  0  0  0
    5.0965   -4.3644    2.0759 C   0  0  2  0  0  0  0  0  0  0  0  0
    6.2584   -3.6250    1.3752 C   0  0  1  0  0  0  0  0  0  0  0  0
    7.3696   -4.5536    0.8618 C   0  0  0  0  0  0  0  0  0  0  0  0
    7.8813   -3.8684   -0.2784 O   0  0  0  0  0  0  0  0  0  0  0  0
    7.0242   -2.9648   -0.7631 C   0  0  0  0  0  0  0  0  0  0  0  0
    7.1951   -2.2628   -1.7611 O   0  0  0  0  0  0  0  0  0  0  0  0
    5.8160   -2.8609    0.1202 C   0  0  1  0  0  0  0  0  0  0  0  0
    4.5340   -3.4541   -0.5064 C   0  0  0  0  0  0  0  0  0  0  0  0
    3.3359   -3.4449    0.4764 C   0  0  0  0  0  0  0  0  0  0  0  0
    3.7623   -3.6173    1.9647 C   0  0  1  0  0  0  0  0  0  0  0  0
    3.9763   -2.3073    2.4767 O   0  0  0  0  0  0  0  0  0  0  0  0
    3.5008   -6.0362    4.9386 C   0  0  1  0  0  0  0  0  0  0  0  0
    6.0377   -6.0317    6.2947 H   0  0  0  0  0  0  0  0  0  0  0  0
    5.4651   -5.3322    7.8052 H   0  0  0  0  0  0  0  0  0  0  0  0
    5.4543   -4.3567    6.3627 H   0  0  0  0  0  0  0  0  0  0  0  0
    3.1951   -5.1028    6.8509 H   0  0  0  0  0  0  0  0  0  0  0  0
    4.2764   -7.9407    6.8269 H   0  0  0  0  0  0  0  0  0  0  0  0
    3.9112   -6.9820    8.2232 H   0  0  0  0  0  0  0  0  0  0  0  0
    1.1116   -9.4973    7.7561 H   0  0  0  0  0  0  0  0  0  0  0  0
    2.7692   -9.4376    8.2122 H   0  0  0  0  0  0  0  0  0  0  0  0
    0.6815  -10.0147   10.3179 H   0  0  0  0  0  0  0  0  0  0  0  0
   -0.5673   -9.0533    9.5308 H   0  0  0  0  0  0  0  0  0  0  0  0
    0.0647   -8.5636   11.0942 H   0  0  0  0  0  0  0  0  0  0  0  0
    3.1706   -8.8551   10.5836 H   0  0  0  0  0  0  0  0  0  0  0  0
    2.2086   -7.6487   11.4204 H   0  0  0  0  0  0  0  0  0  0  0  0
    3.2856   -7.1499   10.1624 H   0  0  0  0  0  0  0  0  0  0  0  0
    2.1849   -9.3654    4.0431 H   0  0  0  0  0  0  0  0  0  0  0  0
    2.3332   -9.9844    5.6583 H   0  0  0  0  0  0  0  0  0  0  0  0
    3.5697   -8.9379    5.0073 H   0  0  0  0  0  0  0  0  0  0  0  0
   -0.0736   -8.4460    4.4708 H   0  0  0  0  0  0  0  0  0  0  0  0
   -0.4022   -7.3307    5.7818 H   0  0  0  0  0  0  0  0  0  0  0  0
   -0.1114   -9.0372    6.0946 H   0  0  0  0  0  0  0  0  0  0  0  0
    1.4244   -5.7768    5.2817 H   0  0  0  0  0  0  0  0  0  0  0  0
    1.5100   -7.6276    2.9647 H   0  0  0  0  0  0  0  0  0  0  0  0
    0.4995   -6.2754    3.3441 H   0  0  0  0  0  0  0  0  0  0  0  0
    3.1825   -6.3445    2.0515 H   0  0  0  0  0  0  0  0  0  0  0  0
    1.7158   -5.5946    1.4731 H   0  0  0  0  0  0  0  0  0  0  0  0
    1.9116   -2.5955    3.8707 H   0  0  0  0  0  0  0  0  0  0  0  0
    0.9572   -4.0372    4.0639 H   0  0  0  0  0  0  0  0  0  0  0  0
    1.0300   -3.2513    2.4959 H   0  0  0  0  0  0  0  0  0  0  0  0
    3.6736   -3.8799    4.8367 H   0  0  0  0  0  0  0  0  0  0  0  0
    5.7620   -3.8312    4.0625 H   0  0  0  0  0  0  0  0  0  0  0  0
    5.8117   -5.5541    3.7459 H   0  0  0  0  0  0  0  0  0  0  0  0
    4.9700   -5.3194    1.5622 H   0  0  0  0  0  0  0  0  0  0  0  0
    6.6802   -2.8844    2.0519 H   0  0  0  0  0  0  0  0  0  0  0  0
    8.1507   -4.7483    1.6012 H   0  0  0  0  0  0  0  0  0  0  0  0
    6.9668   -5.5138    0.5253 H   0  0  0  0  0  0  0  0  0  0  0  0
    5.6547   -1.8120    0.3623 H   0  0  0  0  0  0  0  0  0  0  0  0
    4.2701   -2.9258   -1.4253 H   0  0  0  0  0  0  0  0  0  0  0  0
    4.7351   -4.4839   -0.8093 H   0  0  0  0  0  0  0  0  0  0  0  0
    2.7799   -2.5124    0.3601 H   0  0  0  0  0  0  0  0  0  0  0  0
    2.6463   -4.2225    0.1498 H   0  0  0  0  0  0  0  0  0  0  0  0
    3.1986   -1.7828    2.2985 H   0  0  0  0  0  0  0  0  0  0  0  0
    4.1442   -6.8093    4.5208 H   0  0  0  0  0  0  0  0  0  0  0  0
  1  2  1  0
  1 34  1  0
  1 35  1  0
  1 36  1  0
  2 33  1  0
  2  3  1  0
  2 37  1  1
  3  4  1  0
  3 38  1  0
  3 39  1  0
  4 11  1  1
  4  5  1  0
  4 12  1  0
  5  6  1  0
  5 40  1  0
  5 41  1  0
  6  7  1  0
  6  8  1  0
  6  9  1  0
  7 42  1  0
  7 43  1  0
  7 44  1  0
  8 45  1  0
  8 46  1  0
  8 47  1  0
  9 10  2  0
  9 11  1  0
 12 13  1  0
 12 14  1  0
 12 15  1  0
 13 48  1  0
 13 49  1  0
 13 50  1  0
 14 51  1  0
 14 52  1  0
 14 53  1  0
 15 33  1  0
 15 16  1  0
 15 54  1  1
 16 17  1  0
 16 55  1  0
 16 56  1  0
 17 18  1  0
 17 57  1  0
 17 58  1  0
 18 31  1  0
 18 19  1  1
 18 20  1  0
 19 59  1  0
 19 60  1  0
 19 61  1  0
 20 21  1  0
 20 33  1  0
 20 62  1  1
 21 22  1  0
 21 63  1  0
 21 64  1  0
 22 31  1  0
 22 23  1  0
 22 65  1  6
 23 28  1  0
 23 24  1  0
 23 66  1  1
 24 25  1  0
 24 67  1  0
 24 68  1  0
 25 26  1  0
 26 27  2  0
 26 28  1  0
 28 29  1  0
 28 69  1  1
 29 30  1  0
 29 70  1  0
 29 71  1  0
 30 31  1  0
 30 72  1  0
 30 73  1  0
 31 32  1  1
 32 74  1  0
 33 75  1  6
M  END
>  <i_m_ct_stereo_status>  (239) 
1

>  <s_m_source_file>  (239) 
/var/tmp/pbs.5076255.sched01/tmpc2azvghe/701e6xuegj.sdf

>  <i_m_source_file_index>  (239) 
35

>  <i_lp_mmshare_version>  (239) 
48012

>  <i_f3d_flags>  (239) 
0

>  <s_epik_input>  (239) 
Tz1DKE8xKUMoW0NIM10pKFtDSDNdKVtDSDJdW0NAXTEyW0NIMl1bQ0BASF0oW0NIM10pW0NASF0zW0NASF0oQzIoW0NIM10pW0NIM10pW0NIMl1bQ0gyXVtDQEBdNChbQ0gzXSlbQ0BASF0zW0NIMl1bQ0BASF01W0NAQEhdNltDQEBIXShDKD1PKU9bQ0gyXTYpW0NIMl1bQ0gyXVtDQEBdNDVbT0hd

>  <s_epik_cmdline>  (239) 
J2VwaWtfcHl0aG9uJywgJy1waHQnLCAnMi4wJywgJy1waCcsICc3LjAnLCAnLXRuJywgJzgnLCAnLW1hJywgJzIwMCcsICctaW1hZScsICc8aW5maWxlLm1hZT4nLCAnLW9tYWUnLCAnPG91dGZpbGUubWFlPic=

>  <r_lp_tautomer_probability>  (239) 
1

>  <r_epik_Ionization_Penalty>  (239) 
7.41755e-07

>  <r_epik_Ionization_Penalty_Charging>  (239) 
0

>  <r_epik_Ionization_Penalty_Neutral>  (239) 
7.41755e-07

>  <r_epik_State_Penalty>  (239) 
-0

>  <r_epik_Charging_Adjusted_Penalty>  (239) 
0

>  <i_epik_Tot_Q>  (239) 
0

>  <i_epik_Tot_abs_Q>  (239) 
0

>  <s_epik_Chemistry_Notes>  (239) 
This compound has an ester and may undergo hydrolysis at high or low pH.

>  <s_lp_Force_Field>  (239) 
OPLS3e

>  <r_lp_Energy>  (239) 
56.7626

>  <b_lp_Chiralities_Consistent>  (239) 
1

>  <s_lp_Variant>  (239) 
87:0-1

>  <s_i_glide_gridfile>  (239) 
pfpi4k_grid

>  <i_i_glide_lignum>  (239) 
35

>  <i_i_glide_rotatable_bonds>  (239) 
1

>  <r_i_docking_score>  (239) 
-2.97723

>  <r_i_glide_ligand_efficiency>  (239) 
-0.0902192

>  <r_i_glide_ligand_efficiency_sa>  (239) 
-0.289381

>  <r_i_glide_ligand_efficiency_ln>  (239) 
-0.662121

>  <r_i_glide_gscore>  (239) 
-2.97723

>  <r_i_glide_lipo>  (239) 
-0.360441

>  <r_i_glide_hbond>  (239) 
-0.358022

>  <r_i_glide_metal>  (239) 
-0

>  <r_i_glide_rewards>  (239) 
-0.323093

>  <r_i_glide_evdw>  (239) 
-24.2512

>  <r_i_glide_ecoul>  (239) 
-4.72959

>  <r_i_glide_erotb>  (239) 
0

>  <r_i_glide_esite>  (239) 
-0.0136817

>  <r_i_glide_emodel>  (239) 
-33.9676

>  <r_i_glide_energy>  (239) 
-28.9807

>  <r_i_glide_einternal>  (239) 
0.0393167

>  <r_i_glide_intrahb_reward>  (239) 
-0

>  <i_i_glide_confnum>  (239) 
2

>  <i_i_glide_posenum>  (239) 
22

>  <r_i_glide_eff_state_penalty>  (239) 
0

>  <ligand_id>  (239) 
87

>  <original_smiles>  (239) 
CC1CC2(CC(C)(C)C(=O)O2)C(C)(C)C2CCC3(C)C(CC4C5COC(=O)C5CCC43O)C12

>  <smiles>  (239) 
[H]OC12C([H])([H])C([H])([H])C3([H])C(=O)OC([H])([H])C3([H])C1([H])C([H])([H])C1([H])C3([H])C([H])(C([H])([H])[H])C([H])([H])C4(OC(=O)C(C([H])([H])[H])(C([H])([H])[H])C4([H])[H])C(C([H])([H])[H])(C([H])([H])[H])C3([H])C([H])([H])C([H])([H])C12C([H])([H])[H]

$$$$
87:0:1
     RDKit          3D

 75 80  0  0  1  0  0  0  0  0999 V2000
    5.2365   -6.2008    5.7053 C   0  0  0  0  0  0  0  0  0  0  0  0
    3.7984   -6.4146    5.2088 C   0  0  2  0  0  0  0  0  0  0  0  0
    3.2848   -7.7536    5.7136 C   0  0  0  0  0  0  0  0  0  0  0  0
    1.7909   -7.9524    5.4304 C   0  0  1  0  0  0  0  0  0  0  0  0
    1.3011   -9.2038    6.1865 C   0  0  0  0  0  0  0  0  0  0  0  0
    0.8562   -8.6575    7.5434 C   0  0  0  0  0  0  0  0  0  0  0  0
   -0.3987   -9.3767    7.9148 C   0  0  0  0  0  0  0  0  0  0  0  0
    1.8310   -8.8210    8.7338 C   0  0  0  0  0  0  0  0  0  0  0  0
    0.5532   -7.1986    7.2527 C   0  0  0  0  0  0  0  0  0  0  0  0
   -0.1028   -6.4683    7.9751 O   0  0  0  0  0  0  0  0  0  0  0  0
    1.0654   -6.8983    6.0569 O   0  0  0  0  0  0  0  0  0  0  0  0
    1.5036   -7.9239    3.8821 C   0  0  0  0  0  0  0  0  0  0  0  0
    2.1540   -9.1617    3.2076 C   0  0  0  0  0  0  0  0  0  0  0  0
   -0.0164   -7.9839    3.5908 C   0  0  0  0  0  0  0  0  0  0  0  0
    2.0844   -6.5686    3.3365 C   0  0  2  0  0  0  0  0  0  0  0  0
    1.7575   -6.3494    1.8492 C   0  0  0  0  0  0  0  0  0  0  0  0
    2.7642   -5.4778    1.0837 C   0  0  0  0  0  0  0  0  0  0  0  0
    3.3688   -4.3267    1.9351 C   0  0  1  0  0  0  0  0  0  0  0  0
    2.2687   -3.3315    2.3754 C   0  0  0  0  0  0  0  0  0  0  0  0
    4.1034   -4.9684    3.1446 C   0  0  2  0  0  0  0  0  0  0  0  0
    5.5945   -5.0560    2.7475 C   0  0  0  0  0  0  0  0  0  0  0  0
    5.6941   -4.5426    1.3093 C   0  0  2  0  0  0  0  0  0  0  0  0
    7.0294   -3.9057    0.8888 C   0  0  1  0  0  0  0  0  0  0  0  0
    8.0772   -4.9049    0.3955 C   0  0  0  0  0  0  0  0  0  0  0  0
    8.7798   -4.1436   -0.5834 O   0  0  0  0  0  0  0  0  0  0  0  0
    8.0604   -3.0609   -1.0289 C   0  0  0  0  0  0  0  0  0  0  0  0
    8.3453   -2.2593   -1.9089 O   0  0  0  0  0  0  0  0  0  0  0  0
    6.8197   -2.9259   -0.2426 C   0  0  1  0  0  0  0  0  0  0  0  0
    5.5853   -3.1894   -1.1201 C   0  0  0  0  0  0  0  0  0  0  0  0
    4.2900   -3.1268   -0.2869 C   0  0  0  0  0  0  0  0  0  0  0  0
    4.5052   -3.5887    1.1924 C   0  0  1  0  0  0  0  0  0  0  0  0
    4.8232   -2.4007    1.9392 O   0  0  0  0  0  0  0  0  0  0  0  0
    3.5779   -6.3210    3.6812 C   0  0  1  0  0  0  0  0  0  0  0  0
    5.9335   -6.9058    5.2503 H   0  0  0  0  0  0  0  0  0  0  0  0
    5.2750   -6.3499    6.7851 H   0  0  0  0  0  0  0  0  0  0  0  0
    5.5825   -5.1814    5.5324 H   0  0  0  0  0  0  0  0  0  0  0  0
    3.2088   -5.6305    5.6742 H   0  0  0  0  0  0  0  0  0  0  0  0
    3.8766   -8.5578    5.2726 H   0  0  0  0  0  0  0  0  0  0  0  0
    3.4908   -7.7747    6.7955 H   0  0  0  0  0  0  0  0  0  0  0  0
    0.4602   -9.7170    5.6994 H   0  0  0  0  0  0  0  0  0  0  0  0
    2.0466   -9.9925    6.2714 H   0  0  0  0  0  0  0  0  0  0  0  0
   -0.0992  -10.4110    8.0433 H   0  0  0  0  0  0  0  0  0  0  0  0
   -1.2209   -9.3762    7.1914 H   0  0  0  0  0  0  0  0  0  0  0  0
   -0.7575   -8.9608    8.8492 H   0  0  0  0  0  0  0  0  0  0  0  0
    2.2242   -9.8362    8.7804 H   0  0  0  0  0  0  0  0  0  0  0  0
    1.3236   -8.6701    9.6909 H   0  0  0  0  0  0  0  0  0  0  0  0
    2.6704   -8.1216    8.7162 H   0  0  0  0  0  0  0  0  0  0  0  0
    1.9222   -9.2486    2.1503 H   0  0  0  0  0  0  0  0  0  0  0  0
    1.7878  -10.0818    3.6632 H   0  0  0  0  0  0  0  0  0  0  0  0
    3.2338   -9.1805    3.2924 H   0  0  0  0  0  0  0  0  0  0  0  0
   -0.2165   -8.0474    2.5236 H   0  0  0  0  0  0  0  0  0  0  0  0
   -0.5362   -7.1078    3.9750 H   0  0  0  0  0  0  0  0  0  0  0  0
   -0.4937   -8.8640    4.0233 H   0  0  0  0  0  0  0  0  0  0  0  0
    1.5308   -5.7760    3.8512 H   0  0  0  0  0  0  0  0  0  0  0  0
    1.6299   -7.2994    1.3089 H   0  0  0  0  0  0  0  0  0  0  0  0
    0.7982   -5.8554    1.8120 H   0  0  0  0  0  0  0  0  0  0  0  0
    3.5620   -6.1331    0.7562 H   0  0  0  0  0  0  0  0  0  0  0  0
    2.2728   -5.0963    0.1858 H   0  0  0  0  0  0  0  0  0  0  0  0
    2.6258   -2.5498    3.0603 H   0  0  0  0  0  0  0  0  0  0  0  0
    1.4629   -3.8376    2.9017 H   0  0  0  0  0  0  0  0  0  0  0  0
    1.8504   -2.8372    1.4947 H   0  0  0  0  0  0  0  0  0  0  0  0
    4.0465   -4.2290    3.9431 H   0  0  0  0  0  0  0  0  0  0  0  0
    6.1460   -4.3816    3.4009 H   0  0  0  0  0  0  0  0  0  0  0  0
    6.0508   -6.0446    2.8281 H   0  0  0  0  0  0  0  0  0  0  0  0
    5.4970   -5.3619    0.6083 H   0  0  0  0  0  0  0  0  0  0  0  0
    7.4376   -3.3184    1.6987 H   0  0  0  0  0  0  0  0  0  0  0  0
    8.7428   -5.3314    1.1656 H   0  0  0  0  0  0  0  0  0  0  0  0
    7.5950   -5.7483   -0.1034 H   0  0  0  0  0  0  0  0  0  0  0  0
    6.8125   -1.9024    0.1213 H   0  0  0  0  0  0  0  0  0  0  0  0
    5.5228   -2.4843   -1.9543 H   0  0  0  0  0  0  0  0  0  0  0  0
    5.6706   -4.1676   -1.5947 H   0  0  0  0  0  0  0  0  0  0  0  0
    3.8904   -2.1125   -0.2957 H   0  0  0  0  0  0  0  0  0  0  0  0
    3.5387   -3.7360   -0.8044 H   0  0  0  0  0  0  0  0  0  0  0  0
    4.1001   -1.8193    1.8891 H   0  0  0  0  0  0  0  0  0  0  0  0
    4.1418   -7.1075    3.1858 H   0  0  0  0  0  0  0  0  0  0  0  0
  1  2  1  0
  1 34  1  0
  1 35  1  0
  1 36  1  0
  2 33  1  0
  2  3  1  0
  2 37  1  1
  3  4  1  0
  3 38  1  0
  3 39  1  0
  4 11  1  1
  4  5  1  0
  4 12  1  0
  5  6  1  0
  5 40  1  0
  5 41  1  0
  6  7  1  0
  6  8  1  0
  6  9  1  0
  7 42  1  0
  7 43  1  0
  7 44  1  0
  8 45  1  0
  8 46  1  0
  8 47  1  0
  9 10  2  0
  9 11  1  0
 12 13  1  0
 12 14  1  0
 12 15  1  0
 13 48  1  0
 13 49  1  0
 13 50  1  0
 14 51  1  0
 14 52  1  0
 14 53  1  0
 15 33  1  0
 15 16  1  0
 15 54  1  1
 16 17  1  0
 16 55  1  0
 16 56  1  0
 17 18  1  0
 17 57  1  0
 17 58  1  0
 18 31  1  0
 18 19  1  1
 18 20  1  0
 19 59  1  0
 19 60  1  0
 19 61  1  0
 20 21  1  0
 20 33  1  0
 20 62  1  1
 21 22  1  0
 21 63  1  0
 21 64  1  0
 22 31  1  0
 22 23  1  0
 22 65  1  6
 23 28  1  0
 23 24  1  0
 23 66  1  1
 24 25  1  0
 24 67  1  0
 24 68  1  0
 25 26  1  0
 26 27  2  0
 26 28  1  0
 28 29  1  0
 28 69  1  1
 29 30  1  0
 29 70  1  0
 29 71  1  0
 30 31  1  0
 30 72  1  0
 30 73  1  0
 31 32  1  1
 32 74  1  0
 33 75  1  6
M  END
>  <i_m_ct_stereo_status>  (240) 
1

>  <s_m_source_file>  (240) 
/var/tmp/pbs.5076255.sched01/tmpc2azvghe/701e6xuegj.sdf

>  <i_m_source_file_index>  (240) 
35

>  <i_lp_mmshare_version>  (240) 
48012

>  <i_f3d_flags>  (240) 
0

>  <s_epik_input>  (240) 
Tz1DKE8xKUMoW0NIM10pKFtDSDNdKVtDSDJdW0NAXTEyW0NIMl1bQ0BASF0oW0NIM10pW0NASF0zW0NASF0oQzIoW0NIM10pW0NIM10pW0NIMl1bQ0gyXVtDQEBdNChbQ0gzXSlbQ0BASF0zW0NIMl1bQ0BASF01W0NAQEhdNltDQEBIXShDKD1PKU9bQ0gyXTYpW0NIMl1bQ0gyXVtDQEBdNDVbT0hd

>  <s_epik_cmdline>  (240) 
J2VwaWtfcHl0aG9uJywgJy1waHQnLCAnMi4wJywgJy1waCcsICc3LjAnLCAnLXRuJywgJzgnLCAnLW1hJywgJzIwMCcsICctaW1hZScsICc8aW5maWxlLm1hZT4nLCAnLW9tYWUnLCAnPG91dGZpbGUubWFlPic=

>  <r_lp_tautomer_probability>  (240) 
1

>  <r_epik_Ionization_Penalty>  (240) 
7.41755e-07

>  <r_epik_Ionization_Penalty_Charging>  (240) 
0

>  <r_epik_Ionization_Penalty_Neutral>  (240) 
7.41755e-07

>  <r_epik_State_Penalty>  (240) 
-0

>  <r_epik_Charging_Adjusted_Penalty>  (240) 
0

>  <i_epik_Tot_Q>  (240) 
0

>  <i_epik_Tot_abs_Q>  (240) 
0

>  <s_epik_Chemistry_Notes>  (240) 
This compound has an ester and may undergo hydrolysis at high or low pH.

>  <s_lp_Force_Field>  (240) 
OPLS3e

>  <r_lp_Energy>  (240) 
56.7626

>  <b_lp_Chiralities_Consistent>  (240) 
1

>  <s_lp_Variant>  (240) 
87:0-1

>  <s_i_glide_gridfile>  (240) 
pfpi4k_grid

>  <i_i_glide_lignum>  (240) 
35

>  <i_i_glide_rotatable_bonds>  (240) 
1

>  <r_i_docking_score>  (240) 
-2.52742

>  <r_i_glide_ligand_efficiency>  (240) 
-0.0765886

>  <r_i_glide_ligand_efficiency_sa>  (240) 
-0.245661

>  <r_i_glide_ligand_efficiency_ln>  (240) 
-0.562086

>  <r_i_glide_gscore>  (240) 
-2.52742

>  <r_i_glide_lipo>  (240) 
-0.519339

>  <r_i_glide_hbond>  (240) 
-0.179842

>  <r_i_glide_metal>  (240) 
-0

>  <r_i_glide_rewards>  (240) 
-0.282068

>  <r_i_glide_evdw>  (240) 
-20.2267

>  <r_i_glide_ecoul>  (240) 
-3.36291

>  <r_i_glide_erotb>  (240) 
0

>  <r_i_glide_esite>  (240) 
-0.0304063

>  <r_i_glide_emodel>  (240) 
-26.3254

>  <r_i_glide_energy>  (240) 
-23.5896

>  <r_i_glide_einternal>  (240) 
0.0295053

>  <r_i_glide_intrahb_reward>  (240) 
-0

>  <i_i_glide_confnum>  (240) 
2

>  <i_i_glide_posenum>  (240) 
20

>  <r_i_glide_eff_state_penalty>  (240) 
0

>  <ligand_id>  (240) 
87

>  <original_smiles>  (240) 
CC1CC2(CC(C)(C)C(=O)O2)C(C)(C)C2CCC3(C)C(CC4C5COC(=O)C5CCC43O)C12

>  <smiles>  (240) 
[H]OC12C([H])([H])C([H])([H])C3([H])C(=O)OC([H])([H])C3([H])C1([H])C([H])([H])C1([H])C3([H])C([H])(C([H])([H])[H])C([H])([H])C4(OC(=O)C(C([H])([H])[H])(C([H])([H])[H])C4([H])[H])C(C([H])([H])[H])(C([H])([H])[H])C3([H])C([H])([H])C([H])([H])C12C([H])([H])[H]

$$$$
88:0:0
     RDKit          3D

 73 80  0  0  1  0  0  0  0  0999 V2000
    4.0628   -9.1009    1.3311 C   0  0  0  0  0  0  0  0  0  0  0  0
    3.2453   -8.5170    2.2219 C   0  0  0  0  0  0  0  0  0  0  0  0
    2.3172   -9.0178    3.3291 C   0  0  0  0  0  0  0  0  0  0  0  0
    1.4497   -7.8038    2.8425 C   0  0  1  0  0  0  0  0  0  0  0  0
    0.9185   -6.5272    3.5216 C   0  0  0  0  0  0  0  0  0  0  0  0
    2.0497   -5.5474    3.0416 C   0  0  1  0  0  0  0  0  0  0  0  0
    3.3218   -6.2492    3.5417 C   0  0  0  0  0  0  0  0  0  0  0  0
    2.7520   -7.1337    2.4441 C   0  0  1  0  0  0  0  0  0  0  0  0
    2.5212   -5.8911    1.5783 C   0  0  1  0  0  0  0  0  0  0  0  0
    1.4106   -5.9728    0.5047 C   0  0  0  0  0  0  0  0  0  0  0  0
    3.6803   -5.0358    1.0187 C   0  0  0  0  0  0  0  0  0  0  0  0
    3.4776   -3.5139    1.2641 C   0  0  1  0  0  0  0  0  0  0  0  0
    2.6100   -3.0865    0.2298 O   0  0  0  0  0  0  0  0  0  0  0  0
    3.0461   -3.0860    2.7311 C   0  0  2  0  0  0  0  0  0  0  0  0
    4.3168   -3.2399    3.6295 C   0  0  0  0  0  0  0  0  0  0  0  0
    1.9723   -4.0406    3.3538 C   0  0  0  0  0  0  0  0  0  0  0  0
    0.9985   -3.5783    4.1666 C   0  0  0  0  0  0  0  0  0  0  0  0
    0.7722   -2.1368    4.5667 C   0  0  0  0  0  0  0  0  0  0  0  0
    1.8802   -1.1447    4.1317 C   0  0  2  0  0  0  0  0  0  0  0  0
    2.8587   -1.2115    5.1510 O   0  0  0  0  0  0  0  0  0  0  0  0
    1.3559    0.3359    4.1722 C   0  0  2  0  0  0  0  0  0  0  0  0
   -0.0475    0.6318    3.5624 C   0  0  0  0  0  0  0  0  0  0  0  0
   -0.0750    2.1223    3.2435 C   0  0  1  0  0  0  0  0  0  0  0  0
   -0.6037    3.1238    4.2720 C   0  0  0  0  0  0  0  0  0  0  0  0
    0.8273    3.3462    4.7317 C   0  0  0  0  0  0  0  0  0  0  0  0
    1.3401    2.6554    3.4519 C   0  0  2  0  0  0  0  0  0  0  0  0
    1.8295    3.5731    2.4826 O   0  0  0  0  0  0  0  0  0  0  0  0
    2.2855    1.4328    3.5621 C   0  0  1  0  0  0  0  0  0  0  0  0
    3.5043    1.7878    4.4552 C   0  0  0  0  0  0  0  0  0  0  0  0
    2.7307    0.9424    2.1515 C   0  0  0  0  0  0  0  0  0  0  0  0
    3.3702   -0.4628    2.0893 C   0  0  1  0  0  0  0  0  0  0  0  0
    4.7037   -0.3712    2.5448 O   0  0  0  0  0  0  0  0  0  0  0  0
    2.4936   -1.5788    2.7602 C   0  0  1  0  0  0  0  0  0  0  0  0
    1.4144   -1.5815    1.9845 F   0  0  0  0  0  0  0  0  0  0  0  0
    4.5913   -8.5311    0.5821 H   0  0  0  0  0  0  0  0  0  0  0  0
    4.2085  -10.1718    1.3539 H   0  0  0  0  0  0  0  0  0  0  0  0
    1.8313   -9.9812    3.1779 H   0  0  0  0  0  0  0  0  0  0  0  0
    2.6629   -8.9173    4.3603 H   0  0  0  0  0  0  0  0  0  0  0  0
    0.8585   -8.1281    1.9813 H   0  0  0  0  0  0  0  0  0  0  0  0
   -0.0699   -6.2508    3.1547 H   0  0  0  0  0  0  0  0  0  0  0  0
    0.8553   -6.6305    4.6079 H   0  0  0  0  0  0  0  0  0  0  0  0
    4.3140   -5.8455    3.3744 H   0  0  0  0  0  0  0  0  0  0  0  0
    3.2301   -6.6585    4.5507 H   0  0  0  0  0  0  0  0  0  0  0  0
    1.6522   -6.6529   -0.2897 H   0  0  0  0  0  0  0  0  0  0  0  0
    1.2684   -5.0471   -0.0279 H   0  0  0  0  0  0  0  0  0  0  0  0
    0.4468   -6.2838    0.9108 H   0  0  0  0  0  0  0  0  0  0  0  0
    4.6406   -5.3371    1.4314 H   0  0  0  0  0  0  0  0  0  0  0  0
    3.8171   -5.2322   -0.0450 H   0  0  0  0  0  0  0  0  0  0  0  0
    4.4271   -3.0278    1.0434 H   0  0  0  0  0  0  0  0  0  0  0  0
    2.4626   -2.1488    0.2656 H   0  0  0  0  0  0  0  0  0  0  0  0
    5.0840   -3.8654    3.1735 H   0  0  0  0  0  0  0  0  0  0  0  0
    4.0661   -3.6743    4.6000 H   0  0  0  0  0  0  0  0  0  0  0  0
    4.8158   -2.3112    3.8724 H   0  0  0  0  0  0  0  0  0  0  0  0
    0.2636   -4.2577    4.5779 H   0  0  0  0  0  0  0  0  0  0  0  0
   -0.1833   -1.8763    4.1154 H   0  0  0  0  0  0  0  0  0  0  0  0
    0.6289   -2.0873    5.6446 H   0  0  0  0  0  0  0  0  0  0  0  0
    3.5582   -0.6220    4.9033 H   0  0  0  0  0  0  0  0  0  0  0  0
    1.2416    0.5887    5.2262 H   0  0  0  0  0  0  0  0  0  0  0  0
   -0.1947    0.0701    2.6415 H   0  0  0  0  0  0  0  0  0  0  0  0
   -0.8478    0.3501    4.2478 H   0  0  0  0  0  0  0  0  0  0  0  0
   -0.4595    2.3473    2.2482 H   0  0  0  0  0  0  0  0  0  0  0  0
   -1.0337    4.0079    3.8008 H   0  0  0  0  0  0  0  0  0  0  0  0
   -1.2567    2.6804    5.0225 H   0  0  0  0  0  0  0  0  0  0  0  0
    1.0901    4.3970    4.8218 H   0  0  0  0  0  0  0  0  0  0  0  0
    1.0387    2.7980    5.6490 H   0  0  0  0  0  0  0  0  0  0  0  0
    1.0984    3.8233    1.9145 H   0  0  0  0  0  0  0  0  0  0  0  0
    4.0838    2.6048    4.0230 H   0  0  0  0  0  0  0  0  0  0  0  0
    4.1883    0.9555    4.5870 H   0  0  0  0  0  0  0  0  0  0  0  0
    3.2058    2.1096    5.4517 H   0  0  0  0  0  0  0  0  0  0  0  0
    1.8544    0.9322    1.5001 H   0  0  0  0  0  0  0  0  0  0  0  0
    3.4067    1.6631    1.6895 H   0  0  0  0  0  0  0  0  0  0  0  0
    3.4608   -0.6955    1.0292 H   0  0  0  0  0  0  0  0  0  0  0  0
    5.1200   -1.2097    2.4033 H   0  0  0  0  0  0  0  0  0  0  0  0
  1  2  2  0
  1 35  1  0
  1 36  1  0
  8  2  1  6
  2  3  1  0
  3  4  1  0
  3 37  1  0
  3 38  1  0
  4  8  1  0
  4  5  1  0
  4 39  1  6
  5  6  1  0
  5 40  1  0
  5 41  1  0
  6  9  1  0
  6 16  1  6
  6  7  1  0
  7  8  1  0
  7 42  1  0
  7 43  1  0
  8  9  1  0
  9 10  1  6
  9 11  1  0
 10 44  1  0
 10 45  1  0
 10 46  1  0
 11 12  1  0
 11 47  1  0
 11 48  1  0
 12 13  1  0
 12 14  1  0
 12 49  1  6
 13 50  1  0
 14 33  1  0
 14 15  1  1
 14 16  1  0
 15 51  1  0
 15 52  1  0
 15 53  1  0
 16 17  2  0
 17 18  1  0
 17 54  1  0
 18 19  1  0
 18 55  1  0
 18 56  1  0
 19 33  1  0
 19 20  1  1
 19 21  1  0
 20 57  1  0
 21 28  1  0
 21 22  1  0
 21 58  1  1
 22 23  1  0
 22 59  1  0
 22 60  1  0
 23 26  1  0
 23 24  1  0
 23 61  1  6
 24 25  1  0
 24 62  1  0
 24 63  1  0
 25 26  1  0
 25 64  1  0
 25 65  1  0
 26 27  1  6
 26 28  1  0
 27 66  1  0
 28 29  1  1
 28 30  1  0
 29 67  1  0
 29 68  1  0
 29 69  1  0
 30 31  1  0
 30 70  1  0
 30 71  1  0
 31 32  1  0
 31 33  1  0
 31 72  1  6
 32 73  1  0
 33 34  1  6
M  END
>  <i_m_ct_stereo_status>  (241) 
1

>  <s_m_source_file>  (241) 
/var/tmp/pbs.5076255.sched01/tmp3ug8vllb/105tp2mz_hs.sdf

>  <i_m_source_file_index>  (241) 
1

>  <i_lp_mmshare_version>  (241) 
48012

>  <i_f3d_flags>  (241) 
0

>  <s_epik_input>  (241) 
W0NIMl09QzFbQ0gyXVtDQEBIXShbQ0gyXTIpW0NAXTEoW0NIMl0zKVtDQF0oW0NAQF0yMzQpKFtDSDNdKVtDSDJdW0NAQEhdKFtPSF0pW0NAXTUoW0NIM10pQzQ9W0NIXVtDSDJdW0NAXTYoW09IXSlbQ0BIXTdbQ0BAXShbQ0gzXSkoW0NIMl1bQ0BASF0oW09IXSlbQ0BAXTU2RilbQ0BAXTgoW09IXSlbQ0BASF0oW0NIMl03KVtDSDJdW0NIMl04

>  <s_epik_cmdline>  (241) 
J2VwaWtfcHl0aG9uJywgJy1waHQnLCAnMi4wJywgJy1waCcsICc3LjAnLCAnLXRuJywgJzgnLCAnLW1hJywgJzIwMCcsICctaW1hZScsICc8aW5maWxlLm1hZT4nLCAnLW9tYWUnLCAnPG91dGZpbGUubWFlPic=

>  <r_lp_tautomer_probability>  (241) 
1

>  <r_epik_Ionization_Penalty>  (241) 
1.55345e-06

>  <r_epik_Ionization_Penalty_Charging>  (241) 
0

>  <r_epik_Ionization_Penalty_Neutral>  (241) 
1.55345e-06

>  <r_epik_State_Penalty>  (241) 
-0

>  <r_epik_Charging_Adjusted_Penalty>  (241) 
0

>  <i_epik_Tot_Q>  (241) 
0

>  <i_epik_Tot_abs_Q>  (241) 
0

>  <s_lp_Force_Field>  (241) 
OPLS3e

>  <r_lp_Energy>  (241) 
136.728

>  <b_lp_Chiralities_Consistent>  (241) 
1

>  <s_lp_Variant>  (241) 
88:0-1

>  <s_i_glide_gridfile>  (241) 
pfpi4k_grid

>  <i_i_glide_lignum>  (241) 
1

>  <i_i_glide_rotatable_bonds>  (241) 
4

>  <r_i_docking_score>  (241) 
-2.17288

>  <r_i_glide_ligand_efficiency>  (241) 
-0.0639081

>  <r_i_glide_ligand_efficiency_sa>  (241) 
-0.207038

>  <r_i_glide_ligand_efficiency_ln>  (241) 
-0.480049

>  <r_i_glide_gscore>  (241) 
-2.17288

>  <r_i_glide_lipo>  (241) 
-0.0814532

>  <r_i_glide_hbond>  (241) 
-0.178596

>  <r_i_glide_metal>  (241) 
-0

>  <r_i_glide_rewards>  (241) 
-0.200346

>  <r_i_glide_evdw>  (241) 
-19.3972

>  <r_i_glide_ecoul>  (241) 
-4.53283

>  <r_i_glide_erotb>  (241) 
0

>  <r_i_glide_esite>  (241) 
-0.0626958

>  <r_i_glide_emodel>  (241) 
-26.4256

>  <r_i_glide_energy>  (241) 
-23.9301

>  <r_i_glide_einternal>  (241) 
1.56525

>  <r_i_glide_intrahb_reward>  (241) 
-0

>  <i_i_glide_confnum>  (241) 
1

>  <i_i_glide_posenum>  (241) 
34

>  <r_i_glide_eff_state_penalty>  (241) 
0

>  <ligand_id>  (241) 
88

>  <original_smiles>  (241) 
C=C1CC2CC34CC12C3(C)CC(O)C1(C)C4=CCC2(O)C3CC4CCC4(O)C3(C)CC(O)C21F

>  <smiles>  (241) 
[H]OC1([H])C([H])([H])C2(C([H])([H])[H])C([H])(C([H])([H])C3([H])C([H])([H])C([H])([H])C32O[H])C2(O[H])C([H])([H])C([H])=C3C(C([H])([H])[H])(C([H])(O[H])C([H])([H])C4(C([H])([H])[H])C35C([H])([H])C3([H])C([H])([H])C(=C([H])[H])C34C5([H])[H])C12F

$$$$
88:0:1
     RDKit          3D

 73 80  0  0  1  0  0  0  0  0999 V2000
    4.6748  -12.0809    3.3287 C   0  0  0  0  0  0  0  0  0  0  0  0
    4.0841  -11.2211    4.1669 C   0  0  0  0  0  0  0  0  0  0  0  0
    3.4509  -11.3390    5.5593 C   0  0  0  0  0  0  0  0  0  0  0  0
    2.4614  -10.2808    4.9564 C   0  0  1  0  0  0  0  0  0  0  0  0
    2.0763   -8.8449    5.3469 C   0  0  0  0  0  0  0  0  0  0  0  0
    3.0369   -8.0950    4.3590 C   0  0  1  0  0  0  0  0  0  0  0  0
    4.4060   -8.6806    4.7278 C   0  0  0  0  0  0  0  0  0  0  0  0
    3.6169   -9.8097    4.0916 C   0  0  1  0  0  0  0  0  0  0  0  0
    3.1594   -8.8554    2.9823 C   0  0  1  0  0  0  0  0  0  0  0  0
    1.8340   -9.1837    2.2586 C   0  0  0  0  0  0  0  0  0  0  0  0
    4.1279   -8.2499    1.9471 C   0  0  0  0  0  0  0  0  0  0  0  0
    3.9520   -6.7109    1.7941 C   0  0  1  0  0  0  0  0  0  0  0  0
    2.8771   -6.4947    0.8998 O   0  0  0  0  0  0  0  0  0  0  0  0
    3.8601   -5.8683    3.1380 C   0  0  2  0  0  0  0  0  0  0  0  0
    5.3156   -5.8162    3.7164 C   0  0  0  0  0  0  0  0  0  0  0  0
    2.9898   -6.5598    4.2363 C   0  0  0  0  0  0  0  0  0  0  0  0
    2.2229   -5.8396    5.0867 C   0  0  0  0  0  0  0  0  0  0  0  0
    2.0747   -4.3313    5.1061 C   0  0  0  0  0  0  0  0  0  0  0  0
    3.0211   -3.5545    4.1559 C   0  0  2  0  0  0  0  0  0  0  0  0
    4.2229   -3.3807    4.8843 O   0  0  0  0  0  0  0  0  0  0  0  0
    2.4960   -2.0987    3.8913 C   0  0  2  0  0  0  0  0  0  0  0  0
    0.9823   -1.9237    3.5719 C   0  0  0  0  0  0  0  0  0  0  0  0
    0.8494   -0.5882    2.8560 C   0  0  1  0  0  0  0  0  0  0  0  0
    0.5505    0.6837    3.6489 C   0  0  0  0  0  0  0  0  0  0  0  0
    2.0481    0.9648    3.6811 C   0  0  0  0  0  0  0  0  0  0  0  0
    2.2597   -0.0829    2.5623 C   0  0  2  0  0  0  0  0  0  0  0  0
    2.4589    0.4975    1.2875 O   0  0  0  0  0  0  0  0  0  0  0  0
    3.2288   -1.2672    2.7921 C   0  0  1  0  0  0  0  0  0  0  0  0
    4.6156   -0.7320    3.2286 C   0  0  0  0  0  0  0  0  0  0  0  0
    3.3310   -2.1555    1.5163 C   0  0  0  0  0  0  0  0  0  0  0  0
    3.9607   -3.5536    1.7107 C   0  0  1  0  0  0  0  0  0  0  0  0
    5.3616   -3.3976    1.8013 O   0  0  0  0  0  0  0  0  0  0  0  0
    3.2890   -4.3883    2.8601 C   0  0  1  0  0  0  0  0  0  0  0  0
    2.0479   -4.5630    2.3984 F   0  0  0  0  0  0  0  0  0  0  0  0
    5.0019  -11.7671    2.3499 H   0  0  0  0  0  0  0  0  0  0  0  0
    4.8412  -13.1132    3.6112 H   0  0  0  0  0  0  0  0  0  0  0  0
    2.9809  -12.2903    5.8082 H   0  0  0  0  0  0  0  0  0  0  0  0
    4.0261  -10.9680    6.4106 H   0  0  0  0  0  0  0  0  0  0  0  0
    1.6838  -10.8041    4.3936 H   0  0  0  0  0  0  0  0  0  0  0  0
    1.0252   -8.6363    5.1576 H   0  0  0  0  0  0  0  0  0  0  0  0
    2.2733   -8.6311    6.3981 H   0  0  0  0  0  0  0  0  0  0  0  0
    5.3172   -8.3867    4.2274 H   0  0  0  0  0  0  0  0  0  0  0  0
    4.5737   -8.7789    5.8015 H   0  0  0  0  0  0  0  0  0  0  0  0
    1.9223  -10.0871    1.6541 H   0  0  0  0  0  0  0  0  0  0  0  0
    1.4951   -8.3804    1.6079 H   0  0  0  0  0  0  0  0  0  0  0  0
    1.0015   -9.3403    2.9451 H   0  0  0  0  0  0  0  0  0  0  0  0
    5.1650   -8.4662    2.1922 H   0  0  0  0  0  0  0  0  0  0  0  0
    4.0144   -8.7487    0.9841 H   0  0  0  0  0  0  0  0  0  0  0  0
    4.8170   -6.3509    1.2362 H   0  0  0  0  0  0  0  0  0  0  0  0
    3.1585   -6.7175    0.0263 H   0  0  0  0  0  0  0  0  0  0  0  0
    5.9719   -6.5771    3.2943 H   0  0  0  0  0  0  0  0  0  0  0  0
    5.3194   -5.9480    4.8001 H   0  0  0  0  0  0  0  0  0  0  0  0
    5.8393   -4.8817    3.5594 H   0  0  0  0  0  0  0  0  0  0  0  0
    1.6349   -6.3422    5.8359 H   0  0  0  0  0  0  0  0  0  0  0  0
    1.0339   -4.1637    4.8394 H   0  0  0  0  0  0  0  0  0  0  0  0
    2.1921   -3.9743    6.1299 H   0  0  0  0  0  0  0  0  0  0  0  0
    4.8311   -2.9183    4.3261 H   0  0  0  0  0  0  0  0  0  0  0  0
    2.6276   -1.5611    4.8307 H   0  0  0  0  0  0  0  0  0  0  0  0
    0.6222   -2.7134    2.9171 H   0  0  0  0  0  0  0  0  0  0  0  0
    0.3748   -1.9621    4.4756 H   0  0  0  0  0  0  0  0  0  0  0  0
    0.2336   -0.6256    1.9556 H   0  0  0  0  0  0  0  0  0  0  0  0
   -0.0023    1.4241    3.0665 H   0  0  0  0  0  0  0  0  0  0  0  0
    0.1008    0.5093    4.6287 H   0  0  0  0  0  0  0  0  0  0  0  0
    2.2967    1.9900    3.4024 H   0  0  0  0  0  0  0  0  0  0  0  0
    2.4820    0.6927    4.6452 H   0  0  0  0  0  0  0  0  0  0  0  0
    1.9054    0.0270    0.6740 H   0  0  0  0  0  0  0  0  0  0  0  0
    5.0531   -0.1105    2.4470 H   0  0  0  0  0  0  0  0  0  0  0  0
    5.3318   -1.5206    3.4409 H   0  0  0  0  0  0  0  0  0  0  0  0
    4.5541   -0.1222    4.1289 H   0  0  0  0  0  0  0  0  0  0  0  0
    2.3269   -2.3069    1.1217 H   0  0  0  0  0  0  0  0  0  0  0  0
    3.8621   -1.6261    0.7246 H   0  0  0  0  0  0  0  0  0  0  0  0
    3.8092   -4.0838    0.7722 H   0  0  0  0  0  0  0  0  0  0  0  0
    5.7602   -4.2541    1.7730 H   0  0  0  0  0  0  0  0  0  0  0  0
  1  2  2  0
  1 35  1  0
  1 36  1  0
  8  2  1  6
  2  3  1  0
  3  4  1  0
  3 37  1  0
  3 38  1  0
  4  8  1  0
  4  5  1  0
  4 39  1  6
  5  6  1  0
  5 40  1  0
  5 41  1  0
  6  9  1  0
  6 16  1  6
  6  7  1  0
  7  8  1  0
  7 42  1  0
  7 43  1  0
  8  9  1  0
  9 10  1  6
  9 11  1  0
 10 44  1  0
 10 45  1  0
 10 46  1  0
 11 12  1  0
 11 47  1  0
 11 48  1  0
 12 13  1  0
 12 14  1  0
 12 49  1  6
 13 50  1  0
 14 33  1  0
 14 15  1  1
 14 16  1  0
 15 51  1  0
 15 52  1  0
 15 53  1  0
 16 17  2  0
 17 18  1  0
 17 54  1  0
 18 19  1  0
 18 55  1  0
 18 56  1  0
 19 33  1  0
 19 20  1  1
 19 21  1  0
 20 57  1  0
 21 28  1  0
 21 22  1  0
 21 58  1  1
 22 23  1  0
 22 59  1  0
 22 60  1  0
 23 26  1  0
 23 24  1  0
 23 61  1  6
 24 25  1  0
 24 62  1  0
 24 63  1  0
 25 26  1  0
 25 64  1  0
 25 65  1  0
 26 27  1  6
 26 28  1  0
 27 66  1  0
 28 29  1  1
 28 30  1  0
 29 67  1  0
 29 68  1  0
 29 69  1  0
 30 31  1  0
 30 70  1  0
 30 71  1  0
 31 32  1  0
 31 33  1  0
 31 72  1  6
 32 73  1  0
 33 34  1  6
M  END
>  <i_m_ct_stereo_status>  (242) 
1

>  <s_m_source_file>  (242) 
/var/tmp/pbs.5076255.sched01/tmp3ug8vllb/105tp2mz_hs.sdf

>  <i_m_source_file_index>  (242) 
1

>  <i_lp_mmshare_version>  (242) 
48012

>  <i_f3d_flags>  (242) 
0

>  <s_epik_input>  (242) 
W0NIMl09QzFbQ0gyXVtDQEBIXShbQ0gyXTIpW0NAXTEoW0NIMl0zKVtDQF0oW0NAQF0yMzQpKFtDSDNdKVtDSDJdW0NAQEhdKFtPSF0pW0NAXTUoW0NIM10pQzQ9W0NIXVtDSDJdW0NAXTYoW09IXSlbQ0BIXTdbQ0BAXShbQ0gzXSkoW0NIMl1bQ0BASF0oW09IXSlbQ0BAXTU2RilbQ0BAXTgoW09IXSlbQ0BASF0oW0NIMl03KVtDSDJdW0NIMl04

>  <s_epik_cmdline>  (242) 
J2VwaWtfcHl0aG9uJywgJy1waHQnLCAnMi4wJywgJy1waCcsICc3LjAnLCAnLXRuJywgJzgnLCAnLW1hJywgJzIwMCcsICctaW1hZScsICc8aW5maWxlLm1hZT4nLCAnLW9tYWUnLCAnPG91dGZpbGUubWFlPic=

>  <r_lp_tautomer_probability>  (242) 
1

>  <r_epik_Ionization_Penalty>  (242) 
1.55345e-06

>  <r_epik_Ionization_Penalty_Charging>  (242) 
0

>  <r_epik_Ionization_Penalty_Neutral>  (242) 
1.55345e-06

>  <r_epik_State_Penalty>  (242) 
-0

>  <r_epik_Charging_Adjusted_Penalty>  (242) 
0

>  <i_epik_Tot_Q>  (242) 
0

>  <i_epik_Tot_abs_Q>  (242) 
0

>  <s_lp_Force_Field>  (242) 
OPLS3e

>  <r_lp_Energy>  (242) 
136.728

>  <b_lp_Chiralities_Consistent>  (242) 
1

>  <s_lp_Variant>  (242) 
88:0-1

>  <s_i_glide_gridfile>  (242) 
pfpi4k_grid

>  <i_i_glide_lignum>  (242) 
1

>  <i_i_glide_rotatable_bonds>  (242) 
4

>  <r_i_docking_score>  (242) 
-2.00088

>  <r_i_glide_ligand_efficiency>  (242) 
-0.0588493

>  <r_i_glide_ligand_efficiency_sa>  (242) 
-0.190649

>  <r_i_glide_ligand_efficiency_ln>  (242) 
-0.442049

>  <r_i_glide_gscore>  (242) 
-2.00088

>  <r_i_glide_lipo>  (242) 
-0.197776

>  <r_i_glide_hbond>  (242) 
-0.123442

>  <r_i_glide_metal>  (242) 
-0

>  <r_i_glide_rewards>  (242) 
-0.200346

>  <r_i_glide_evdw>  (242) 
-19.263

>  <r_i_glide_ecoul>  (242) 
-3.3562

>  <r_i_glide_erotb>  (242) 
0

>  <r_i_glide_esite>  (242) 
-0.0127301

>  <r_i_glide_emodel>  (242) 
-24.7617

>  <r_i_glide_energy>  (242) 
-22.6192

>  <r_i_glide_einternal>  (242) 
2.03536

>  <r_i_glide_intrahb_reward>  (242) 
-0

>  <i_i_glide_confnum>  (242) 
1

>  <i_i_glide_posenum>  (242) 
35

>  <r_i_glide_eff_state_penalty>  (242) 
0

>  <ligand_id>  (242) 
88

>  <original_smiles>  (242) 
C=C1CC2CC34CC12C3(C)CC(O)C1(C)C4=CCC2(O)C3CC4CCC4(O)C3(C)CC(O)C21F

>  <smiles>  (242) 
[H]OC1([H])C([H])([H])C2(C([H])([H])[H])C([H])(C([H])([H])C3([H])C([H])([H])C([H])([H])C32O[H])C2(O[H])C([H])([H])C([H])=C3C(C([H])([H])[H])(C([H])(O[H])C([H])([H])C4(C([H])([H])[H])C35C([H])([H])C3([H])C([H])([H])C(=C([H])[H])C34C5([H])[H])C12F

$$$$
88:0:2
     RDKit          3D

 73 80  0  0  1  0  0  0  0  0999 V2000
    2.9058  -11.0426    3.1961 C   0  0  0  0  0  0  0  0  0  0  0  0
    2.2540  -10.2041    4.0156 C   0  0  0  0  0  0  0  0  0  0  0  0
    1.3345  -10.3860    5.2304 C   0  0  0  0  0  0  0  0  0  0  0  0
    0.6234   -9.1381    4.5975 C   0  0  1  0  0  0  0  0  0  0  0  0
    0.3333   -7.7129    5.0959 C   0  0  0  0  0  0  0  0  0  0  0  0
    1.5578   -7.0018    4.4218 C   0  0  1  0  0  0  0  0  0  0  0  0
    2.7431   -7.8086    4.9657 C   0  0  0  0  0  0  0  0  0  0  0  0
    1.9805   -8.7421    4.0434 C   0  0  1  0  0  0  0  0  0  0  0  0
    1.8777   -7.6177    3.0069 C   0  0  1  0  0  0  0  0  0  0  0  0
    0.7054   -7.6779    2.0026 C   0  0  0  0  0  0  0  0  0  0  0  0
    3.1064   -7.0437    2.2711 C   0  0  0  0  0  0  0  0  0  0  0  0
    3.1374   -5.4880    2.2876 C   0  0  1  0  0  0  0  0  0  0  0  0
    2.2913   -5.0600    1.2358 O   0  0  0  0  0  0  0  0  0  0  0  0
    2.8665   -4.7913    3.6920 C   0  0  2  0  0  0  0  0  0  0  0  0
    4.1644   -5.0031    4.5405 C   0  0  0  0  0  0  0  0  0  0  0  0
    1.7116   -5.4684    4.4994 C   0  0  0  0  0  0  0  0  0  0  0  0
    0.8719   -4.7474    5.2725 C   0  0  0  0  0  0  0  0  0  0  0  0
    0.8949   -3.2433    5.4670 C   0  0  0  0  0  0  0  0  0  0  0  0
    2.1050   -2.5063    4.8367 C   0  0  2  0  0  0  0  0  0  0  0  0
    3.1324   -2.5723    5.8079 O   0  0  0  0  0  0  0  0  0  0  0  0
    1.8138   -0.9713    4.6702 C   0  0  2  0  0  0  0  0  0  0  0  0
    0.4301   -0.5581    4.0905 C   0  0  0  0  0  0  0  0  0  0  0  0
    0.6014    0.8521    3.5470 C   0  0  1  0  0  0  0  0  0  0  0  0
    0.2895    2.0606    4.4314 C   0  0  0  0  0  0  0  0  0  0  0  0
    1.7699    2.1282    4.7909 C   0  0  0  0  0  0  0  0  0  0  0  0
    2.0886    1.1903    3.6042 C   0  0  2  0  0  0  0  0  0  0  0  0
    2.6146    1.8703    2.4792 O   0  0  0  0  0  0  0  0  0  0  0  0
    2.8488   -0.1338    3.8522 C   0  0  1  0  0  0  0  0  0  0  0  0
    4.1651    0.1541    4.6165 C   0  0  0  0  0  0  0  0  0  0  0  0
    3.1113   -0.8839    2.5117 C   0  0  0  0  0  0  0  0  0  0  0  0
    3.5297   -2.3674    2.6366 C   0  0  1  0  0  0  0  0  0  0  0  0
    4.8914   -2.4040    3.0142 O   0  0  0  0  0  0  0  0  0  0  0  0
    2.5484   -3.2225    3.5194 C   0  0  1  0  0  0  0  0  0  0  0  0
    1.4149   -3.1744    2.8232 F   0  0  0  0  0  0  0  0  0  0  0  0
    3.4570  -10.6768    2.3436 H   0  0  0  0  0  0  0  0  0  0  0  0
    2.8983  -12.1119    3.3710 H   0  0  0  0  0  0  0  0  0  0  0  0
    0.7051  -11.2786    5.2574 H   0  0  0  0  0  0  0  0  0  0  0  0
    1.7641  -10.2000    6.2182 H   0  0  0  0  0  0  0  0  0  0  0  0
   -0.0735   -9.4846    3.8307 H   0  0  0  0  0  0  0  0  0  0  0  0
   -0.6245   -7.3416    4.7373 H   0  0  0  0  0  0  0  0  0  0  0  0
    0.3311   -7.6448    6.1846 H   0  0  0  0  0  0  0  0  0  0  0  0
    3.7673   -7.5898    4.6964 H   0  0  0  0  0  0  0  0  0  0  0  0
    2.6714   -8.0453    6.0292 H   0  0  0  0  0  0  0  0  0  0  0  0
    0.8270   -8.5076    1.3066 H   0  0  0  0  0  0  0  0  0  0  0  0
    0.5980   -6.7705    1.4148 H   0  0  0  0  0  0  0  0  0  0  0  0
   -0.2644   -7.7990    2.4857 H   0  0  0  0  0  0  0  0  0  0  0  0
    4.0387   -7.4219    2.6822 H   0  0  0  0  0  0  0  0  0  0  0  0
    3.1432   -7.4166    1.2468 H   0  0  0  0  0  0  0  0  0  0  0  0
    4.1315   -5.1862    1.9573 H   0  0  0  0  0  0  0  0  0  0  0  0
    2.6805   -5.3267    0.4135 H   0  0  0  0  0  0  0  0  0  0  0  0
    4.8039   -5.7968    4.1553 H   0  0  0  0  0  0  0  0  0  0  0  0
    3.9299   -5.2460    5.5785 H   0  0  0  0  0  0  0  0  0  0  0  0
    4.8111   -4.1369    4.6005 H   0  0  0  0  0  0  0  0  0  0  0  0
    0.0879   -5.2416    5.8199 H   0  0  0  0  0  0  0  0  0  0  0  0
   -0.0401   -2.9059    5.0258 H   0  0  0  0  0  0  0  0  0  0  0  0
    0.8336   -3.0211    6.5319 H   0  0  0  0  0  0  0  0  0  0  0  0
    3.8935   -2.1422    5.4433 H   0  0  0  0  0  0  0  0  0  0  0  0
    1.8030   -0.5602    5.6798 H   0  0  0  0  0  0  0  0  0  0  0  0
    0.1326   -1.2172    3.2789 H   0  0  0  0  0  0  0  0  0  0  0  0
   -0.3559   -0.6091    4.8437 H   0  0  0  0  0  0  0  0  0  0  0  0
    0.1861    0.9927    2.5474 H   0  0  0  0  0  0  0  0  0  0  0  0
   -0.0426    2.9260    3.8528 H   0  0  0  0  0  0  0  0  0  0  0  0
   -0.3759    1.8436    5.2703 H   0  0  0  0  0  0  0  0  0  0  0  0
    2.1801    3.1352    4.7111 H   0  0  0  0  0  0  0  0  0  0  0  0
    1.9567    1.6964    5.7761 H   0  0  0  0  0  0  0  0  0  0  0  0
    3.5028    2.1317    2.6778 H   0  0  0  0  0  0  0  0  0  0  0  0
    4.8285    0.7890    4.0287 H   0  0  0  0  0  0  0  0  0  0  0  0
    4.7237   -0.7457    4.8577 H   0  0  0  0  0  0  0  0  0  0  0  0
    3.9859    0.6618    5.5632 H   0  0  0  0  0  0  0  0  0  0  0  0
    2.1988   -0.8538    1.9162 H   0  0  0  0  0  0  0  0  0  0  0  0
    3.8443   -0.3450    1.9101 H   0  0  0  0  0  0  0  0  0  0  0  0
    3.5134   -2.7742    1.6266 H   0  0  0  0  0  0  0  0  0  0  0  0
    5.3968   -1.9455    2.3577 H   0  0  0  0  0  0  0  0  0  0  0  0
  1  2  2  0
  1 35  1  0
  1 36  1  0
  8  2  1  6
  2  3  1  0
  3  4  1  0
  3 37  1  0
  3 38  1  0
  4  8  1  0
  4  5  1  0
  4 39  1  6
  5  6  1  0
  5 40  1  0
  5 41  1  0
  6  9  1  0
  6 16  1  6
  6  7  1  0
  7  8  1  0
  7 42  1  0
  7 43  1  0
  8  9  1  0
  9 10  1  6
  9 11  1  0
 10 44  1  0
 10 45  1  0
 10 46  1  0
 11 12  1  0
 11 47  1  0
 11 48  1  0
 12 13  1  0
 12 14  1  0
 12 49  1  6
 13 50  1  0
 14 33  1  0
 14 15  1  1
 14 16  1  0
 15 51  1  0
 15 52  1  0
 15 53  1  0
 16 17  2  0
 17 18  1  0
 17 54  1  0
 18 19  1  0
 18 55  1  0
 18 56  1  0
 19 33  1  0
 19 20  1  1
 19 21  1  0
 20 57  1  0
 21 28  1  0
 21 22  1  0
 21 58  1  1
 22 23  1  0
 22 59  1  0
 22 60  1  0
 23 26  1  0
 23 24  1  0
 23 61  1  6
 24 25  1  0
 24 62  1  0
 24 63  1  0
 25 26  1  0
 25 64  1  0
 25 65  1  0
 26 27  1  6
 26 28  1  0
 27 66  1  0
 28 29  1  1
 28 30  1  0
 29 67  1  0
 29 68  1  0
 29 69  1  0
 30 31  1  0
 30 70  1  0
 30 71  1  0
 31 32  1  0
 31 33  1  0
 31 72  1  6
 32 73  1  0
 33 34  1  6
M  END
>  <i_m_ct_stereo_status>  (243) 
1

>  <s_m_source_file>  (243) 
/var/tmp/pbs.5076255.sched01/tmp3ug8vllb/105tp2mz_hs.sdf

>  <i_m_source_file_index>  (243) 
1

>  <i_lp_mmshare_version>  (243) 
48012

>  <i_f3d_flags>  (243) 
0

>  <s_epik_input>  (243) 
W0NIMl09QzFbQ0gyXVtDQEBIXShbQ0gyXTIpW0NAXTEoW0NIMl0zKVtDQF0oW0NAQF0yMzQpKFtDSDNdKVtDSDJdW0NAQEhdKFtPSF0pW0NAXTUoW0NIM10pQzQ9W0NIXVtDSDJdW0NAXTYoW09IXSlbQ0BIXTdbQ0BAXShbQ0gzXSkoW0NIMl1bQ0BASF0oW09IXSlbQ0BAXTU2RilbQ0BAXTgoW09IXSlbQ0BASF0oW0NIMl03KVtDSDJdW0NIMl04

>  <s_epik_cmdline>  (243) 
J2VwaWtfcHl0aG9uJywgJy1waHQnLCAnMi4wJywgJy1waCcsICc3LjAnLCAnLXRuJywgJzgnLCAnLW1hJywgJzIwMCcsICctaW1hZScsICc8aW5maWxlLm1hZT4nLCAnLW9tYWUnLCAnPG91dGZpbGUubWFlPic=

>  <r_lp_tautomer_probability>  (243) 
1

>  <r_epik_Ionization_Penalty>  (243) 
1.55345e-06

>  <r_epik_Ionization_Penalty_Charging>  (243) 
0

>  <r_epik_Ionization_Penalty_Neutral>  (243) 
1.55345e-06

>  <r_epik_State_Penalty>  (243) 
-0

>  <r_epik_Charging_Adjusted_Penalty>  (243) 
0

>  <i_epik_Tot_Q>  (243) 
0

>  <i_epik_Tot_abs_Q>  (243) 
0

>  <s_lp_Force_Field>  (243) 
OPLS3e

>  <r_lp_Energy>  (243) 
136.728

>  <b_lp_Chiralities_Consistent>  (243) 
1

>  <s_lp_Variant>  (243) 
88:0-1

>  <s_i_glide_gridfile>  (243) 
pfpi4k_grid

>  <i_i_glide_lignum>  (243) 
1

>  <i_i_glide_rotatable_bonds>  (243) 
4

>  <r_i_docking_score>  (243) 
-1.79726

>  <r_i_glide_ligand_efficiency>  (243) 
-0.0528607

>  <r_i_glide_ligand_efficiency_sa>  (243) 
-0.171248

>  <r_i_glide_ligand_efficiency_ln>  (243) 
-0.397066

>  <r_i_glide_gscore>  (243) 
-1.79726

>  <r_i_glide_lipo>  (243) 
-0.0172253

>  <r_i_glide_hbond>  (243) 
-0.24133

>  <r_i_glide_metal>  (243) 
-0

>  <r_i_glide_rewards>  (243) 
-0.218675

>  <r_i_glide_evdw>  (243) 
-19.6999

>  <r_i_glide_ecoul>  (243) 
-2.23359

>  <r_i_glide_erotb>  (243) 
0

>  <r_i_glide_esite>  (243) 
0

>  <r_i_glide_emodel>  (243) 
-24.0393

>  <r_i_glide_energy>  (243) 
-21.9335

>  <r_i_glide_einternal>  (243) 
1.52387

>  <r_i_glide_intrahb_reward>  (243) 
-0

>  <i_i_glide_confnum>  (243) 
1

>  <i_i_glide_posenum>  (243) 
20

>  <r_i_glide_eff_state_penalty>  (243) 
0

>  <ligand_id>  (243) 
88

>  <original_smiles>  (243) 
C=C1CC2CC34CC12C3(C)CC(O)C1(C)C4=CCC2(O)C3CC4CCC4(O)C3(C)CC(O)C21F

>  <smiles>  (243) 
[H]OC1([H])C([H])([H])C2(C([H])([H])[H])C([H])(C([H])([H])C3([H])C([H])([H])C([H])([H])C32O[H])C2(O[H])C([H])([H])C([H])=C3C(C([H])([H])[H])(C([H])(O[H])C([H])([H])C4(C([H])([H])[H])C35C([H])([H])C3([H])C([H])([H])C(=C([H])[H])C34C5([H])[H])C12F

$$$$
89:0:0
     RDKit          3D

 62 67  0  0  1  0  0  0  0  0999 V2000
    2.9753   -9.2755    4.0207 C   0  0  0  0  0  0  0  0  0  0  0  0
    3.0963   -7.8675    3.9267 O   0  0  0  0  0  0  0  0  0  0  0  0
    4.4181   -7.3926    3.7237 C   0  0  0  0  0  0  0  0  0  0  0  0
    4.4028   -5.8558    3.5145 C   0  0  2  0  0  0  0  0  0  0  0  0
    5.9089   -5.3807    3.4656 C   0  0  0  0  0  0  0  0  0  0  0  0
    6.6849   -5.3479    2.1063 C   0  0  1  0  0  0  0  0  0  0  0  0
    5.9663   -5.9075    0.9180 C   0  0  0  0  0  0  0  0  0  0  0  0
    5.5815   -4.4615    0.5349 C   0  0  2  0  0  0  0  0  0  0  0  0
    6.7748   -4.0079    1.3092 C   0  0  2  0  0  0  0  0  0  0  0  0
    7.7489   -3.4311    0.2836 C   0  0  0  0  0  0  0  0  0  0  0  0
    7.1133   -2.2456   -0.5702 C   0  0  0  0  0  0  0  0  0  0  0  0
    5.5523   -1.8910   -0.6534 C   0  0  2  0  0  0  0  0  0  0  0  0
    4.8283   -2.0582    0.6836 C   0  0  1  0  0  0  0  0  0  0  0  0
    3.7794   -1.1165    0.7917 O   0  0  0  0  0  0  0  0  0  0  0  0
    4.3496   -3.5484    0.6703 C   0  0  1  0  0  0  0  0  0  0  0  0
    3.6684   -3.5476   -0.7170 C   0  0  0  0  0  0  0  0  0  0  0  0
    4.5615   -2.6276   -1.6389 C   0  0  0  0  0  0  0  0  0  0  0  0
    3.6221   -1.6125   -2.3399 C   0  0  0  0  0  0  0  0  0  0  0  0
    5.2689   -3.3669   -2.8015 C   0  0  0  0  0  0  0  0  0  0  0  0
    3.6044   -3.8515    1.9961 C   0  0  1  0  0  0  0  0  0  0  0  0
    2.4085   -3.1563    2.3437 O   0  0  0  0  0  0  0  0  0  0  0  0
    1.7668   -3.7042    3.3881 C   0  0  0  0  0  0  0  0  0  0  0  0
    0.7866   -3.1725    3.9521 O   0  0  0  0  0  0  0  0  0  0  0  0
    2.4052   -5.0239    3.6496 C   0  0  2  0  0  0  0  0  0  0  0  0
    3.5948   -5.1025    4.6011 C   0  0  0  0  0  0  0  0  0  0  0  0
    3.3477   -5.2801    2.4763 C   0  0  2  0  0  0  0  0  0  0  0  0
    2.6744   -6.1947    1.3929 C   0  0  0  0  0  0  0  0  0  0  0  0
    1.7054   -5.5353    0.6138 O   0  0  0  0  0  0  0  0  0  0  0  0
    1.9218   -9.5402    4.1297 H   0  0  0  0  0  0  0  0  0  0  0  0
    3.5092   -9.6557    4.8913 H   0  0  0  0  0  0  0  0  0  0  0  0
    3.3484   -9.7718    3.1237 H   0  0  0  0  0  0  0  0  0  0  0  0
    5.0026   -7.6613    4.6062 H   0  0  0  0  0  0  0  0  0  0  0  0
    4.8750   -7.9205    2.8869 H   0  0  0  0  0  0  0  0  0  0  0  0
    5.9565   -4.3789    3.8851 H   0  0  0  0  0  0  0  0  0  0  0  0
    6.5005   -5.9469    4.1911 H   0  0  0  0  0  0  0  0  0  0  0  0
    7.6765   -5.7832    2.1875 H   0  0  0  0  0  0  0  0  0  0  0  0
    6.6993   -6.3271    0.2189 H   0  0  0  0  0  0  0  0  0  0  0  0
    5.2491   -6.6608    1.1995 H   0  0  0  0  0  0  0  0  0  0  0  0
    5.8287   -4.5646   -0.5100 H   0  0  0  0  0  0  0  0  0  0  0  0
    6.5839   -3.2901    2.0834 H   0  0  0  0  0  0  0  0  0  0  0  0
    8.6496   -3.0743    0.7834 H   0  0  0  0  0  0  0  0  0  0  0  0
    8.1005   -4.2120   -0.3941 H   0  0  0  0  0  0  0  0  0  0  0  0
    7.5542   -1.3626   -0.1101 H   0  0  0  0  0  0  0  0  0  0  0  0
    7.5431   -2.2726   -1.5734 H   0  0  0  0  0  0  0  0  0  0  0  0
    5.5345   -0.8336   -0.9226 H   0  0  0  0  0  0  0  0  0  0  0  0
    5.4661   -1.7570    1.5104 H   0  0  0  0  0  0  0  0  0  0  0  0
    3.1252   -1.2754    0.1134 H   0  0  0  0  0  0  0  0  0  0  0  0
    3.5755   -4.5535   -1.1157 H   0  0  0  0  0  0  0  0  0  0  0  0
    2.6589   -3.1409   -0.6286 H   0  0  0  0  0  0  0  0  0  0  0  0
    2.9153   -2.1165   -3.0014 H   0  0  0  0  0  0  0  0  0  0  0  0
    4.1758   -0.8934   -2.9443 H   0  0  0  0  0  0  0  0  0  0  0  0
    3.0174   -1.0372   -1.6412 H   0  0  0  0  0  0  0  0  0  0  0  0
    4.5673   -3.9861   -3.3630 H   0  0  0  0  0  0  0  0  0  0  0  0
    6.0875   -4.0039   -2.4878 H   0  0  0  0  0  0  0  0  0  0  0  0
    5.6995   -2.6598   -3.5092 H   0  0  0  0  0  0  0  0  0  0  0  0
    4.2921   -3.4148    2.7168 H   0  0  0  0  0  0  0  0  0  0  0  0
    1.7198   -5.8469    3.8104 H   0  0  0  0  0  0  0  0  0  0  0  0
    3.4011   -5.7034    5.4886 H   0  0  0  0  0  0  0  0  0  0  0  0
    3.9973   -4.1271    4.8740 H   0  0  0  0  0  0  0  0  0  0  0  0
    3.3294   -6.6318    0.6476 H   0  0  0  0  0  0  0  0  0  0  0  0
    2.1688   -7.0427    1.8536 H   0  0  0  0  0  0  0  0  0  0  0  0
    2.1834   -5.0254   -0.0298 H   0  0  0  0  0  0  0  0  0  0  0  0
  1  2  1  0
  1 29  1  0
  1 30  1  0
  1 31  1  0
  2  3  1  0
  4  3  1  1
  3 32  1  0
  3 33  1  0
  4 25  1  0
  4 26  1  0
  4  5  1  0
  5  6  1  0
  5 34  1  0
  5 35  1  0
  6  9  1  0
  6  7  1  0
  6 36  1  1
  7  8  1  0
  7 37  1  0
  7 38  1  0
  8 15  1  0
  8  9  1  0
  8 39  1  6
  9 10  1  0
  9 40  1  1
 10 11  1  0
 10 41  1  0
 10 42  1  0
 11 12  1  0
 11 43  1  0
 11 44  1  0
 12 17  1  0
 12 13  1  0
 12 45  1  6
 13 14  1  0
 13 15  1  0
 13 46  1  1
 14 47  1  0
 15 16  1  6
 15 20  1  0
 16 17  1  0
 16 48  1  0
 16 49  1  0
 17 18  1  0
 17 19  1  0
 18 50  1  0
 18 51  1  0
 18 52  1  0
 19 53  1  0
 19 54  1  0
 19 55  1  0
 20 26  1  0
 20 21  1  0
 20 56  1  1
 21 22  1  0
 22 23  2  0
 22 24  1  0
 24 25  1  0
 24 26  1  0
 24 57  1  1
 25 58  1  0
 25 59  1  0
 26 27  1  6
 27 28  1  0
 27 60  1  0
 27 61  1  0
 28 62  1  0
M  END
>  <i_m_ct_stereo_status>  (244) 
1

>  <s_m_source_file>  (244) 
/var/tmp/pbs.5076255.sched01/tmp3ug8vllb/105tp2mz_hs.sdf

>  <i_m_source_file_index>  (244) 
2

>  <i_lp_mmshare_version>  (244) 
48012

>  <i_f3d_flags>  (244) 
0

>  <s_epik_input>  (244) 
W0NIMl0xW0NASF0yQyg9TylPW0NASF0zW0NAQF0yKFtDSDJdW09IXSlbQ0BAXTEoW0NIMl1PW0NIM10pW0NIMl1bQ0BASF0oW0NIMl00KVtDQEhdKFtDQEBIXTRbQ0BAXTM1NilbQ0gyXVtDSDJdW0NASF0oW0NASF01W09IXSlDKFtDSDJdNikoW0NIM10pW0NIM10=

>  <s_epik_cmdline>  (244) 
J2VwaWtfcHl0aG9uJywgJy1waHQnLCAnMi4wJywgJy1waCcsICc3LjAnLCAnLXRuJywgJzgnLCAnLW1hJywgJzIwMCcsICctaW1hZScsICc8aW5maWxlLm1hZT4nLCAnLW9tYWUnLCAnPG91dGZpbGUubWFlPic=

>  <r_lp_tautomer_probability>  (244) 
1

>  <r_epik_Ionization_Penalty>  (244) 
7.52833e-07

>  <r_epik_Ionization_Penalty_Charging>  (244) 
0

>  <r_epik_Ionization_Penalty_Neutral>  (244) 
7.52833e-07

>  <r_epik_State_Penalty>  (244) 
-0

>  <r_epik_Charging_Adjusted_Penalty>  (244) 
0

>  <i_epik_Tot_Q>  (244) 
0

>  <i_epik_Tot_abs_Q>  (244) 
0

>  <s_epik_Chemistry_Notes>  (244) 
This compound has an ester and may undergo hydrolysis at high or low pH.

>  <s_lp_Force_Field>  (244) 
OPLS3e

>  <r_lp_Energy>  (244) 
123.158

>  <b_lp_Chiralities_Consistent>  (244) 
1

>  <s_lp_Variant>  (244) 
89:0-1

>  <s_i_glide_gridfile>  (244) 
pfpi4k_grid

>  <i_i_glide_lignum>  (244) 
2

>  <i_i_glide_rotatable_bonds>  (244) 
5

>  <r_i_docking_score>  (244) 
-2.66155

>  <r_i_glide_ligand_efficiency>  (244) 
-0.0950553

>  <r_i_glide_ligand_efficiency_sa>  (244) 
-0.288644

>  <r_i_glide_ligand_efficiency_ln>  (244) 
-0.614363

>  <r_i_glide_gscore>  (244) 
-2.66155

>  <r_i_glide_lipo>  (244) 
-0.806668

>  <r_i_glide_hbond>  (244) 
0

>  <r_i_glide_metal>  (244) 
-0

>  <r_i_glide_rewards>  (244) 
-0.75849

>  <r_i_glide_evdw>  (244) 
-20.5571

>  <r_i_glide_ecoul>  (244) 
-2.16227

>  <r_i_glide_erotb>  (244) 
0.255806

>  <r_i_glide_esite>  (244) 
0

>  <r_i_glide_emodel>  (244) 
-25.2776

>  <r_i_glide_energy>  (244) 
-22.7194

>  <r_i_glide_einternal>  (244) 
2.52932

>  <r_i_glide_intrahb_reward>  (244) 
-0

>  <i_i_glide_confnum>  (244) 
1

>  <i_i_glide_posenum>  (244) 
20

>  <r_i_glide_eff_state_penalty>  (244) 
0

>  <ligand_id>  (244) 
89

>  <original_smiles>  (244) 
COCC12CC3CC4C3CCC3C(O)C4(CC3(C)C)C3OC(=O)C(C1)C32CO

>  <smiles>  (244) 
[H]OC([H])([H])C12C3([H])OC(=O)C1([H])C([H])([H])C2(C([H])([H])OC([H])([H])[H])C([H])([H])C1([H])C([H])([H])C2([H])C1([H])C([H])([H])C([H])([H])C1([H])C([H])(O[H])C32C([H])([H])C1(C([H])([H])[H])C([H])([H])[H]

$$$$
89:0:1
     RDKit          3D

 62 67  0  0  1  0  0  0  0  0999 V2000
    4.8378   -8.8561    2.5613 C   0  0  0  0  0  0  0  0  0  0  0  0
    4.9178   -7.4851    2.2455 O   0  0  0  0  0  0  0  0  0  0  0  0
    4.8040   -6.6075    3.3505 C   0  0  0  0  0  0  0  0  0  0  0  0
    4.8097   -5.1212    2.8899 C   0  0  2  0  0  0  0  0  0  0  0  0
    6.2401   -4.7438    2.3390 C   0  0  0  0  0  0  0  0  0  0  0  0
    6.5668   -4.9384    0.8439 C   0  0  1  0  0  0  0  0  0  0  0  0
    5.4419   -5.5323    0.0630 C   0  0  0  0  0  0  0  0  0  0  0  0
    5.0267   -4.1609   -0.4596 C   0  0  2  0  0  0  0  0  0  0  0  0
    6.4265   -3.6979   -0.1247 C   0  0  2  0  0  0  0  0  0  0  0  0
    7.0559   -3.3091   -1.4721 C   0  0  0  0  0  0  0  0  0  0  0  0
    6.2001   -2.2937   -2.2800 C   0  0  0  0  0  0  0  0  0  0  0  0
    4.7333   -1.7885   -1.9310 C   0  0  2  0  0  0  0  0  0  0  0  0
    4.4544   -1.7209   -0.4230 C   0  0  1  0  0  0  0  0  0  0  0  0
    3.5168   -0.7134   -0.0898 O   0  0  0  0  0  0  0  0  0  0  0  0
    3.9362   -3.1569   -0.0940 C   0  0  1  0  0  0  0  0  0  0  0  0
    2.8725   -3.2640   -1.2049 C   0  0  0  0  0  0  0  0  0  0  0  0
    3.4893   -2.5650   -2.4821 C   0  0  0  0  0  0  0  0  0  0  0  0
    2.4694   -1.5784   -3.0532 C   0  0  0  0  0  0  0  0  0  0  0  0
    3.7797   -3.5119   -3.6815 C   0  0  0  0  0  0  0  0  0  0  0  0
    3.6144   -3.2451    1.4165 C   0  0  1  0  0  0  0  0  0  0  0  0
    2.5867   -2.4362    1.9577 O   0  0  0  0  0  0  0  0  0  0  0  0
    2.3043   -2.7872    3.2337 C   0  0  0  0  0  0  0  0  0  0  0  0
    1.5777   -2.1488    3.9772 O   0  0  0  0  0  0  0  0  0  0  0  0
    2.9645   -4.1157    3.5091 C   0  0  2  0  0  0  0  0  0  0  0  0
    4.3991   -4.1717    4.0442 C   0  0  0  0  0  0  0  0  0  0  0  0
    3.4853   -4.5896    2.1690 C   0  0  2  0  0  0  0  0  0  0  0  0
    2.4284   -5.5319    1.5187 C   0  0  0  0  0  0  0  0  0  0  0  0
    2.6734   -6.0815    0.2438 O   0  0  0  0  0  0  0  0  0  0  0  0
    4.9195   -9.4202    1.6321 H   0  0  0  0  0  0  0  0  0  0  0  0
    3.8859   -9.1317    3.0226 H   0  0  0  0  0  0  0  0  0  0  0  0
    5.6577   -9.1727    3.2099 H   0  0  0  0  0  0  0  0  0  0  0  0
    3.8714   -6.8247    3.8936 H   0  0  0  0  0  0  0  0  0  0  0  0
    5.6151   -6.7918    4.0645 H   0  0  0  0  0  0  0  0  0  0  0  0
    6.4049   -3.6891    2.5253 H   0  0  0  0  0  0  0  0  0  0  0  0
    6.9970   -5.2493    2.9258 H   0  0  0  0  0  0  0  0  0  0  0  0
    7.5182   -5.4642    0.6660 H   0  0  0  0  0  0  0  0  0  0  0  0
    5.8332   -6.1612   -0.7424 H   0  0  0  0  0  0  0  0  0  0  0  0
    4.7467   -6.1553    0.5587 H   0  0  0  0  0  0  0  0  0  0  0  0
    4.9459   -4.4415   -1.5132 H   0  0  0  0  0  0  0  0  0  0  0  0
    6.5273   -2.8513    0.5668 H   0  0  0  0  0  0  0  0  0  0  0  0
    8.0960   -3.0027   -1.3490 H   0  0  0  0  0  0  0  0  0  0  0  0
    7.0552   -4.0526   -2.2365 H   0  0  0  0  0  0  0  0  0  0  0  0
    6.8441   -1.4570   -2.1438 H   0  0  0  0  0  0  0  0  0  0  0  0
    6.2119   -2.6454   -3.3215 H   0  0  0  0  0  0  0  0  0  0  0  0
    4.6969   -0.7819   -2.3440 H   0  0  0  0  0  0  0  0  0  0  0  0
    5.3375   -1.3806    0.1034 H   0  0  0  0  0  0  0  0  0  0  0  0
    2.7000   -0.9032   -0.5426 H   0  0  0  0  0  0  0  0  0  0  0  0
    2.5487   -4.2624   -1.4556 H   0  0  0  0  0  0  0  0  0  0  0  0
    1.9724   -2.7601   -0.8660 H   0  0  0  0  0  0  0  0  0  0  0  0
    1.6151   -2.2318   -3.3336 H   0  0  0  0  0  0  0  0  0  0  0  0
    2.8393   -1.0738   -3.9711 H   0  0  0  0  0  0  0  0  0  0  0  0
    2.2221   -0.8238   -2.2853 H   0  0  0  0  0  0  0  0  0  0  0  0
    2.8964   -4.1095   -3.9198 H   0  0  0  0  0  0  0  0  0  0  0  0
    4.6177   -4.1969   -3.5416 H   0  0  0  0  0  0  0  0  0  0  0  0
    3.9903   -2.9202   -4.5727 H   0  0  0  0  0  0  0  0  0  0  0  0
    4.5115   -2.7732    1.8347 H   0  0  0  0  0  0  0  0  0  0  0  0
    2.3158   -4.8618    3.9828 H   0  0  0  0  0  0  0  0  0  0  0  0
    4.4421   -4.6258    5.0387 H   0  0  0  0  0  0  0  0  0  0  0  0
    4.8825   -3.1879    4.0533 H   0  0  0  0  0  0  0  0  0  0  0  0
    2.2437   -6.3924    2.1583 H   0  0  0  0  0  0  0  0  0  0  0  0
    1.4816   -5.0036    1.4284 H   0  0  0  0  0  0  0  0  0  0  0  0
    3.0129   -5.4246   -0.3620 H   0  0  0  0  0  0  0  0  0  0  0  0
  1  2  1  0
  1 29  1  0
  1 30  1  0
  1 31  1  0
  2  3  1  0
  4  3  1  1
  3 32  1  0
  3 33  1  0
  4 25  1  0
  4 26  1  0
  4  5  1  0
  5  6  1  0
  5 34  1  0
  5 35  1  0
  6  9  1  0
  6  7  1  0
  6 36  1  1
  7  8  1  0
  7 37  1  0
  7 38  1  0
  8 15  1  0
  8  9  1  0
  8 39  1  6
  9 10  1  0
  9 40  1  1
 10 11  1  0
 10 41  1  0
 10 42  1  0
 11 12  1  0
 11 43  1  0
 11 44  1  0
 12 17  1  0
 12 13  1  0
 12 45  1  6
 13 14  1  0
 13 15  1  0
 13 46  1  1
 14 47  1  0
 15 16  1  6
 15 20  1  0
 16 17  1  0
 16 48  1  0
 16 49  1  0
 17 18  1  0
 17 19  1  0
 18 50  1  0
 18 51  1  0
 18 52  1  0
 19 53  1  0
 19 54  1  0
 19 55  1  0
 20 26  1  0
 20 21  1  0
 20 56  1  1
 21 22  1  0
 22 23  2  0
 22 24  1  0
 24 25  1  0
 24 26  1  0
 24 57  1  1
 25 58  1  0
 25 59  1  0
 26 27  1  6
 27 28  1  0
 27 60  1  0
 27 61  1  0
 28 62  1  0
M  END
>  <i_m_ct_stereo_status>  (245) 
1

>  <s_m_source_file>  (245) 
/var/tmp/pbs.5076255.sched01/tmp3ug8vllb/105tp2mz_hs.sdf

>  <i_m_source_file_index>  (245) 
2

>  <i_lp_mmshare_version>  (245) 
48012

>  <i_f3d_flags>  (245) 
0

>  <s_epik_input>  (245) 
W0NIMl0xW0NASF0yQyg9TylPW0NASF0zW0NAQF0yKFtDSDJdW09IXSlbQ0BAXTEoW0NIMl1PW0NIM10pW0NIMl1bQ0BASF0oW0NIMl00KVtDQEhdKFtDQEBIXTRbQ0BAXTM1NilbQ0gyXVtDSDJdW0NASF0oW0NASF01W09IXSlDKFtDSDJdNikoW0NIM10pW0NIM10=

>  <s_epik_cmdline>  (245) 
J2VwaWtfcHl0aG9uJywgJy1waHQnLCAnMi4wJywgJy1waCcsICc3LjAnLCAnLXRuJywgJzgnLCAnLW1hJywgJzIwMCcsICctaW1hZScsICc8aW5maWxlLm1hZT4nLCAnLW9tYWUnLCAnPG91dGZpbGUubWFlPic=

>  <r_lp_tautomer_probability>  (245) 
1

>  <r_epik_Ionization_Penalty>  (245) 
7.52833e-07

>  <r_epik_Ionization_Penalty_Charging>  (245) 
0

>  <r_epik_Ionization_Penalty_Neutral>  (245) 
7.52833e-07

>  <r_epik_State_Penalty>  (245) 
-0

>  <r_epik_Charging_Adjusted_Penalty>  (245) 
0

>  <i_epik_Tot_Q>  (245) 
0

>  <i_epik_Tot_abs_Q>  (245) 
0

>  <s_epik_Chemistry_Notes>  (245) 
This compound has an ester and may undergo hydrolysis at high or low pH.

>  <s_lp_Force_Field>  (245) 
OPLS3e

>  <r_lp_Energy>  (245) 
123.158

>  <b_lp_Chiralities_Consistent>  (245) 
1

>  <s_lp_Variant>  (245) 
89:0-1

>  <s_i_glide_gridfile>  (245) 
pfpi4k_grid

>  <i_i_glide_lignum>  (245) 
2

>  <i_i_glide_rotatable_bonds>  (245) 
5

>  <r_i_docking_score>  (245) 
-1.7898

>  <r_i_glide_ligand_efficiency>  (245) 
-0.0639214

>  <r_i_glide_ligand_efficiency_sa>  (245) 
-0.194103

>  <r_i_glide_ligand_efficiency_ln>  (245) 
-0.413138

>  <r_i_glide_gscore>  (245) 
-1.7898

>  <r_i_glide_lipo>  (245) 
-0.676114

>  <r_i_glide_hbond>  (245) 
0

>  <r_i_glide_metal>  (245) 
-0

>  <r_i_glide_rewards>  (245) 
-0.746502

>  <r_i_glide_evdw>  (245) 
-5.39828

>  <r_i_glide_ecoul>  (245) 
-2.34972

>  <r_i_glide_erotb>  (245) 
0.255806

>  <r_i_glide_esite>  (245) 
-0.000616425

>  <r_i_glide_emodel>  (245) 
-8.5459

>  <r_i_glide_energy>  (245) 
-7.748

>  <r_i_glide_einternal>  (245) 
0.375596

>  <r_i_glide_intrahb_reward>  (245) 
-0

>  <i_i_glide_confnum>  (245) 
1

>  <i_i_glide_posenum>  (245) 
5

>  <r_i_glide_eff_state_penalty>  (245) 
0

>  <ligand_id>  (245) 
89

>  <original_smiles>  (245) 
COCC12CC3CC4C3CCC3C(O)C4(CC3(C)C)C3OC(=O)C(C1)C32CO

>  <smiles>  (245) 
[H]OC([H])([H])C12C3([H])OC(=O)C1([H])C([H])([H])C2(C([H])([H])OC([H])([H])[H])C([H])([H])C1([H])C([H])([H])C2([H])C1([H])C([H])([H])C([H])([H])C1([H])C([H])(O[H])C32C([H])([H])C1(C([H])([H])[H])C([H])([H])[H]

$$$$
89:0:2
     RDKit          3D

 62 67  0  0  1  0  0  0  0  0999 V2000
    5.6730   -8.0927    2.5826 C   0  0  0  0  0  0  0  0  0  0  0  0
    4.2605   -7.9144    2.6499 O   0  0  0  0  0  0  0  0  0  0  0  0
    3.8093   -7.0931    3.7115 C   0  0  0  0  0  0  0  0  0  0  0  0
    3.9402   -5.5547    3.4841 C   0  0  2  0  0  0  0  0  0  0  0  0
    5.4774   -5.1034    3.3558 C   0  0  0  0  0  0  0  0  0  0  0  0
    6.2107   -5.1436    1.9684 C   0  0  1  0  0  0  0  0  0  0  0  0
    5.3591   -5.6958    0.8046 C   0  0  0  0  0  0  0  0  0  0  0  0
    5.0901   -4.2750    0.3984 C   0  0  2  0  0  0  0  0  0  0  0  0
    6.3448   -3.8492    1.1241 C   0  0  2  0  0  0  0  0  0  0  0  0
    7.3252   -3.4244    0.1125 C   0  0  0  0  0  0  0  0  0  0  0  0
    6.7723   -2.1976   -0.7347 C   0  0  0  0  0  0  0  0  0  0  0  0
    5.2346   -1.7238   -0.7773 C   0  0  2  0  0  0  0  0  0  0  0  0
    4.5407   -1.8165    0.5870 C   0  0  1  0  0  0  0  0  0  0  0  0
    3.5694   -0.7908    0.7455 O   0  0  0  0  0  0  0  0  0  0  0  0
    3.9533   -3.2763    0.5987 C   0  0  1  0  0  0  0  0  0  0  0  0
    3.2085   -3.2331   -0.7468 C   0  0  0  0  0  0  0  0  0  0  0  0
    4.1447   -2.3897   -1.7166 C   0  0  0  0  0  0  0  0  0  0  0  0
    3.2692   -1.2934   -2.3847 C   0  0  0  0  0  0  0  0  0  0  0  0
    4.7534   -3.1929   -2.8978 C   0  0  0  0  0  0  0  0  0  0  0  0
    3.2387   -3.5186    1.9695 C   0  0  1  0  0  0  0  0  0  0  0  0
    2.1137   -2.7457    2.3113 O   0  0  0  0  0  0  0  0  0  0  0  0
    1.4739   -3.2145    3.4123 C   0  0  0  0  0  0  0  0  0  0  0  0
    0.5791   -2.6216    3.9925 O   0  0  0  0  0  0  0  0  0  0  0  0
    2.0101   -4.5761    3.7008 C   0  0  2  0  0  0  0  0  0  0  0  0
    3.2251   -4.7684    4.6117 C   0  0  0  0  0  0  0  0  0  0  0  0
    2.8732   -4.9284    2.5036 C   0  0  2  0  0  0  0  0  0  0  0  0
    2.1061   -5.7839    1.4393 C   0  0  0  0  0  0  0  0  0  0  0  0
    0.8364   -6.2649    1.8693 O   0  0  0  0  0  0  0  0  0  0  0  0
    6.0891   -8.4037    1.6317 H   0  0  0  0  0  0  0  0  0  0  0  0
    6.2433   -8.2317    3.4798 H   0  0  0  0  0  0  0  0  0  0  0  0
    6.0716   -7.1722    2.5129 H   0  0  0  0  0  0  0  0  0  0  0  0
    2.7578   -7.3780    3.8406 H   0  0  0  0  0  0  0  0  0  0  0  0
    4.3019   -7.4143    4.6290 H   0  0  0  0  0  0  0  0  0  0  0  0
    5.6178   -4.1334    3.7856 H   0  0  0  0  0  0  0  0  0  0  0  0
    6.0409   -5.7448    4.0661 H   0  0  0  0  0  0  0  0  0  0  0  0
    7.1865   -5.6274    2.0111 H   0  0  0  0  0  0  0  0  0  0  0  0
    5.9179   -6.3243    0.1212 H   0  0  0  0  0  0  0  0  0  0  0  0
    4.5360   -6.3516    1.0418 H   0  0  0  0  0  0  0  0  0  0  0  0
    5.2887   -4.4259   -0.6636 H   0  0  0  0  0  0  0  0  0  0  0  0
    6.2703   -3.1386    1.9346 H   0  0  0  0  0  0  0  0  0  0  0  0
    8.2781   -3.1895    0.5964 H   0  0  0  0  0  0  0  0  0  0  0  0
    7.5528   -4.2561   -0.5598 H   0  0  0  0  0  0  0  0  0  0  0  0
    7.3127   -1.3539   -0.3171 H   0  0  0  0  0  0  0  0  0  0  0  0
    7.1532   -2.2943   -1.7435 H   0  0  0  0  0  0  0  0  0  0  0  0
    5.3164   -0.6726   -1.0591 H   0  0  0  0  0  0  0  0  0  0  0  0
    5.2351   -1.5657    1.3793 H   0  0  0  0  0  0  0  0  0  0  0  0
    2.8348   -0.9452    0.1755 H   0  0  0  0  0  0  0  0  0  0  0  0
    2.9799   -4.2266   -1.1381 H   0  0  0  0  0  0  0  0  0  0  0  0
    2.2497   -2.7506   -0.5762 H   0  0  0  0  0  0  0  0  0  0  0  0
    2.4912   -1.7274   -3.0147 H   0  0  0  0  0  0  0  0  0  0  0  0
    3.8583   -0.6258   -3.0136 H   0  0  0  0  0  0  0  0  0  0  0  0
    2.7569   -0.6596   -1.6647 H   0  0  0  0  0  0  0  0  0  0  0  0
    3.9852   -3.7563   -3.4290 H   0  0  0  0  0  0  0  0  0  0  0  0
    5.5296   -3.9024   -2.6219 H   0  0  0  0  0  0  0  0  0  0  0  0
    5.2184   -2.5259   -3.6228 H   0  0  0  0  0  0  0  0  0  0  0  0
    3.9752   -3.1165    2.6690 H   0  0  0  0  0  0  0  0  0  0  0  0
    1.2145   -5.3048    3.9151 H   0  0  0  0  0  0  0  0  0  0  0  0
    3.0448   -5.3422    5.5260 H   0  0  0  0  0  0  0  0  0  0  0  0
    3.7166   -3.8325    4.8775 H   0  0  0  0  0  0  0  0  0  0  0  0
    1.9164   -5.2427    0.5210 H   0  0  0  0  0  0  0  0  0  0  0  0
    2.6284   -6.6877    1.1552 H   0  0  0  0  0  0  0  0  0  0  0  0
    0.9789   -6.9140    2.5324 H   0  0  0  0  0  0  0  0  0  0  0  0
  1  2  1  0
  1 29  1  0
  1 30  1  0
  1 31  1  0
  2  3  1  0
  4  3  1  1
  3 32  1  0
  3 33  1  0
  4 25  1  0
  4 26  1  0
  4  5  1  0
  5  6  1  0
  5 34  1  0
  5 35  1  0
  6  9  1  0
  6  7  1  0
  6 36  1  1
  7  8  1  0
  7 37  1  0
  7 38  1  0
  8 15  1  0
  8  9  1  0
  8 39  1  6
  9 10  1  0
  9 40  1  1
 10 11  1  0
 10 41  1  0
 10 42  1  0
 11 12  1  0
 11 43  1  0
 11 44  1  0
 12 17  1  0
 12 13  1  0
 12 45  1  6
 13 14  1  0
 13 15  1  0
 13 46  1  1
 14 47  1  0
 15 16  1  6
 15 20  1  0
 16 17  1  0
 16 48  1  0
 16 49  1  0
 17 18  1  0
 17 19  1  0
 18 50  1  0
 18 51  1  0
 18 52  1  0
 19 53  1  0
 19 54  1  0
 19 55  1  0
 20 26  1  0
 20 21  1  0
 20 56  1  1
 21 22  1  0
 22 23  2  0
 22 24  1  0
 24 25  1  0
 24 26  1  0
 24 57  1  1
 25 58  1  0
 25 59  1  0
 26 27  1  6
 27 28  1  0
 27 60  1  0
 27 61  1  0
 28 62  1  0
M  END
>  <i_m_ct_stereo_status>  (246) 
1

>  <s_m_source_file>  (246) 
/var/tmp/pbs.5076255.sched01/tmp3ug8vllb/105tp2mz_hs.sdf

>  <i_m_source_file_index>  (246) 
2

>  <i_lp_mmshare_version>  (246) 
48012

>  <i_f3d_flags>  (246) 
0

>  <s_epik_input>  (246) 
W0NIMl0xW0NASF0yQyg9TylPW0NASF0zW0NAQF0yKFtDSDJdW09IXSlbQ0BAXTEoW0NIMl1PW0NIM10pW0NIMl1bQ0BASF0oW0NIMl00KVtDQEhdKFtDQEBIXTRbQ0BAXTM1NilbQ0gyXVtDSDJdW0NASF0oW0NASF01W09IXSlDKFtDSDJdNikoW0NIM10pW0NIM10=

>  <s_epik_cmdline>  (246) 
J2VwaWtfcHl0aG9uJywgJy1waHQnLCAnMi4wJywgJy1waCcsICc3LjAnLCAnLXRuJywgJzgnLCAnLW1hJywgJzIwMCcsICctaW1hZScsICc8aW5maWxlLm1hZT4nLCAnLW9tYWUnLCAnPG91dGZpbGUubWFlPic=

>  <r_lp_tautomer_probability>  (246) 
1

>  <r_epik_Ionization_Penalty>  (246) 
7.52833e-07

>  <r_epik_Ionization_Penalty_Charging>  (246) 
0

>  <r_epik_Ionization_Penalty_Neutral>  (246) 
7.52833e-07

>  <r_epik_State_Penalty>  (246) 
-0

>  <r_epik_Charging_Adjusted_Penalty>  (246) 
0

>  <i_epik_Tot_Q>  (246) 
0

>  <i_epik_Tot_abs_Q>  (246) 
0

>  <s_epik_Chemistry_Notes>  (246) 
This compound has an ester and may undergo hydrolysis at high or low pH.

>  <s_lp_Force_Field>  (246) 
OPLS3e

>  <r_lp_Energy>  (246) 
123.158

>  <b_lp_Chiralities_Consistent>  (246) 
1

>  <s_lp_Variant>  (246) 
89:0-1

>  <s_i_glide_gridfile>  (246) 
pfpi4k_grid

>  <i_i_glide_lignum>  (246) 
2

>  <i_i_glide_rotatable_bonds>  (246) 
5

>  <r_i_docking_score>  (246) 
-1.57558

>  <r_i_glide_ligand_efficiency>  (246) 
-0.0562706

>  <r_i_glide_ligand_efficiency_sa>  (246) 
-0.170871

>  <r_i_glide_ligand_efficiency_ln>  (246) 
-0.363689

>  <r_i_glide_gscore>  (246) 
-1.57558

>  <r_i_glide_lipo>  (246) 
-0.649689

>  <r_i_glide_hbond>  (246) 
-0.0941803

>  <r_i_glide_metal>  (246) 
-0

>  <r_i_glide_rewards>  (246) 
-0.798816

>  <r_i_glide_evdw>  (246) 
-21.7854

>  <r_i_glide_ecoul>  (246) 
-1.50534

>  <r_i_glide_erotb>  (246) 
0.255806

>  <r_i_glide_esite>  (246) 
0

>  <r_i_glide_emodel>  (246) 
-17.275

>  <r_i_glide_energy>  (246) 
-23.2907

>  <r_i_glide_einternal>  (246) 
4.90711

>  <r_i_glide_intrahb_reward>  (246) 
-0

>  <i_i_glide_confnum>  (246) 
1

>  <i_i_glide_posenum>  (246) 
18

>  <r_i_glide_eff_state_penalty>  (246) 
0

>  <ligand_id>  (246) 
89

>  <original_smiles>  (246) 
COCC12CC3CC4C3CCC3C(O)C4(CC3(C)C)C3OC(=O)C(C1)C32CO

>  <smiles>  (246) 
[H]OC([H])([H])C12C3([H])OC(=O)C1([H])C([H])([H])C2(C([H])([H])OC([H])([H])[H])C([H])([H])C1([H])C([H])([H])C2([H])C1([H])C([H])([H])C([H])([H])C1([H])C([H])(O[H])C32C([H])([H])C1(C([H])([H])[H])C([H])([H])[H]

$$$$
90:0:0
     RDKit          3D

 72 76  0  0  1  0  0  0  0  0999 V2000
    4.8773   -8.3812    1.9701 C   0  0  0  0  0  0  0  0  0  0  0  0
    4.2776   -7.6087    3.0038 O   0  0  0  0  0  0  0  0  0  0  0  0
    3.8763   -6.2795    2.6668 C   0  0  2  0  0  0  0  0  0  0  0  0
    5.1065   -5.3806    2.4315 C   0  0  0  0  0  0  0  0  0  0  0  0
    4.7601   -3.9087    2.0603 C   0  0  1  0  0  0  0  0  0  0  0  0
    5.4074   -3.4334    0.7153 C   0  0  1  0  0  0  0  0  0  0  0  0
    6.8060   -3.5859    0.9275 O   0  0  0  0  0  0  0  0  0  0  0  0
    5.0989   -4.3153   -0.5584 C   0  0  0  0  0  0  0  0  0  0  0  0
    4.4099   -3.3262   -1.4517 C   0  0  2  0  0  0  0  0  0  0  0  0
    4.3755   -3.0073   -2.9461 C   0  0  1  0  0  0  0  0  0  0  0  0
    3.2511   -3.4573   -3.6685 O   0  0  0  0  0  0  0  0  0  0  0  0
    4.3244   -1.5342   -2.4162 C   0  0  0  0  0  0  0  0  0  0  0  0
    5.1839   -2.0329   -1.2360 C   0  0  2  0  0  0  0  0  0  0  0  0
    6.5617   -2.0427   -1.5831 O   0  0  0  0  0  0  0  0  0  0  0  0
    5.1002   -1.9136    0.3055 C   0  0  2  0  0  0  0  0  0  0  0  0
    6.1096   -0.8823    0.8935 C   0  0  0  0  0  0  0  0  0  0  0  0
    3.6814   -1.4369    0.7462 C   0  0  0  0  0  0  0  0  0  0  0  0
    3.1786   -1.9658    2.1051 C   0  0  1  0  0  0  0  0  0  0  0  0
    1.8750   -1.4445    2.2851 O   0  0  0  0  0  0  0  0  0  0  0  0
    3.2601   -3.5273    2.2371 C   0  0  1  0  0  0  0  0  0  0  0  0
    2.5380   -4.0715    1.1493 O   0  0  0  0  0  0  0  0  0  0  0  0
    2.7003   -4.1402    3.5879 C   0  0  1  0  0  0  0  0  0  0  0  0
    3.3132   -3.4019    4.6375 O   0  0  0  0  0  0  0  0  0  0  0  0
    1.1841   -3.9431    3.8148 C   0  0  0  0  0  0  0  0  0  0  0  0
    0.7033   -5.1900    4.5393 C   0  0  0  0  0  0  0  0  0  0  0  0
    1.5133   -6.3528    3.9263 C   0  0  1  0  0  0  0  0  0  0  0  0
    0.7673   -7.0894    2.7376 C   0  0  0  0  0  0  0  0  0  0  0  0
    1.4711   -8.3758    2.2604 C   0  0  0  0  0  0  0  0  0  0  0  0
   -0.6649   -7.5278    3.1331 C   0  0  0  0  0  0  0  0  0  0  0  0
    0.6090   -6.2621    1.6074 O   0  0  0  0  0  0  0  0  0  0  0  0
    2.9517   -5.7062    3.7895 C   0  0  1  0  0  0  0  0  0  0  0  0
    3.6661   -5.9877    5.1536 C   0  0  0  0  0  0  0  0  0  0  0  0
    4.8888   -9.4238    2.2923 H   0  0  0  0  0  0  0  0  0  0  0  0
    5.9068   -8.0852    1.7732 H   0  0  0  0  0  0  0  0  0  0  0  0
    4.3225   -8.3388    1.0322 H   0  0  0  0  0  0  0  0  0  0  0  0
    3.3384   -6.3280    1.7253 H   0  0  0  0  0  0  0  0  0  0  0  0
    5.7363   -5.3685    3.3255 H   0  0  0  0  0  0  0  0  0  0  0  0
    5.7307   -5.8384    1.6647 H   0  0  0  0  0  0  0  0  0  0  0  0
    5.2774   -3.3129    2.8160 H   0  0  0  0  0  0  0  0  0  0  0  0
    6.9872   -4.4791    1.1777 H   0  0  0  0  0  0  0  0  0  0  0  0
    6.0168   -4.6640   -1.0358 H   0  0  0  0  0  0  0  0  0  0  0  0
    4.4770   -5.1867   -0.3442 H   0  0  0  0  0  0  0  0  0  0  0  0
    3.3564   -3.2885   -1.1617 H   0  0  0  0  0  0  0  0  0  0  0  0
    5.2959   -3.2723   -3.4807 H   0  0  0  0  0  0  0  0  0  0  0  0
    3.0491   -4.3321   -3.3533 H   0  0  0  0  0  0  0  0  0  0  0  0
    4.8269   -0.8173   -3.0655 H   0  0  0  0  0  0  0  0  0  0  0  0
    3.3248   -1.1868   -2.1464 H   0  0  0  0  0  0  0  0  0  0  0  0
    6.6898   -2.7663   -2.1796 H   0  0  0  0  0  0  0  0  0  0  0  0
    5.9233    0.1165    0.5085 H   0  0  0  0  0  0  0  0  0  0  0  0
    7.1495   -1.1016    0.6628 H   0  0  0  0  0  0  0  0  0  0  0  0
    6.0446   -0.8393    1.9797 H   0  0  0  0  0  0  0  0  0  0  0  0
    3.6691   -0.3488    0.7762 H   0  0  0  0  0  0  0  0  0  0  0  0
    2.9166   -1.6554    0.0147 H   0  0  0  0  0  0  0  0  0  0  0  0
    3.7903   -1.5093    2.8812 H   0  0  0  0  0  0  0  0  0  0  0  0
    1.4624   -1.3716    1.4336 H   0  0  0  0  0  0  0  0  0  0  0  0
    2.8453   -3.6466    0.3639 H   0  0  0  0  0  0  0  0  0  0  0  0
    4.2476   -3.5258    4.5831 H   0  0  0  0  0  0  0  0  0  0  0  0
    0.9445   -3.0241    4.3517 H   0  0  0  0  0  0  0  0  0  0  0  0
    0.6498   -3.8909    2.8775 H   0  0  0  0  0  0  0  0  0  0  0  0
    0.9422   -5.0960    5.6004 H   0  0  0  0  0  0  0  0  0  0  0  0
   -0.3749   -5.3008    4.4884 H   0  0  0  0  0  0  0  0  0  0  0  0
    1.5665   -7.1250    4.6955 H   0  0  0  0  0  0  0  0  0  0  0  0
    1.9039   -8.9317    3.0938 H   0  0  0  0  0  0  0  0  0  0  0  0
    2.2454   -8.1647    1.5353 H   0  0  0  0  0  0  0  0  0  0  0  0
    0.7939   -9.0580    1.7462 H   0  0  0  0  0  0  0  0  0  0  0  0
   -0.6594   -8.1004    4.0641 H   0  0  0  0  0  0  0  0  0  0  0  0
   -1.1082   -8.1684    2.3680 H   0  0  0  0  0  0  0  0  0  0  0  0
   -1.3558   -6.6953    3.2497 H   0  0  0  0  0  0  0  0  0  0  0  0
    1.4737   -6.0828    1.2544 H   0  0  0  0  0  0  0  0  0  0  0  0
    3.0989   -5.5988    5.9989 H   0  0  0  0  0  0  0  0  0  0  0  0
    4.6587   -5.5480    5.2166 H   0  0  0  0  0  0  0  0  0  0  0  0
    3.7834   -7.0576    5.3325 H   0  0  0  0  0  0  0  0  0  0  0  0
  1  2  1  0
  1 33  1  0
  1 34  1  0
  1 35  1  0
  2  3  1  0
  3 31  1  0
  3  4  1  0
  3 36  1  6
  4  5  1  0
  4 37  1  0
  4 38  1  0
  5 20  1  0
  5  6  1  0
  5 39  1  1
  6 15  1  0
  6  7  1  1
  6  8  1  0
  7 40  1  0
  8  9  1  0
  8 41  1  0
  8 42  1  0
  9 13  1  0
  9 10  1  0
  9 43  1  1
 10 11  1  0
 10 12  1  0
 10 44  1  6
 11 45  1  0
 12 13  1  0
 12 46  1  0
 12 47  1  0
 13 14  1  6
 13 15  1  0
 14 48  1  0
 15 16  1  1
 15 17  1  0
 16 49  1  0
 16 50  1  0
 16 51  1  0
 17 18  1  0
 17 52  1  0
 17 53  1  0
 18 19  1  0
 18 20  1  0
 18 54  1  1
 19 55  1  0
 20 21  1  6
 20 22  1  0
 21 56  1  0
 22 31  1  0
 22 23  1  1
 22 24  1  0
 23 57  1  0
 24 25  1  0
 24 58  1  0
 24 59  1  0
 25 26  1  0
 25 60  1  0
 25 61  1  0
 26 27  1  0
 26 31  1  0
 26 62  1  1
 27 28  1  0
 27 29  1  0
 27 30  1  0
 28 63  1  0
 28 64  1  0
 28 65  1  0
 29 66  1  0
 29 67  1  0
 29 68  1  0
 30 69  1  0
 31 32  1  1
 32 70  1  0
 32 71  1  0
 32 72  1  0
M  END
>  <i_m_ct_stereo_status>  (247) 
1

>  <s_m_source_file>  (247) 
/var/tmp/pbs.5076255.sched01/tmp3ug8vllb/105tp2mz_hs.sdf

>  <i_m_source_file_index>  (247) 
3

>  <i_lp_mmshare_version>  (247) 
48012

>  <i_f3d_flags>  (247) 
0

>  <s_epik_input>  (247) 
W0NIM11PW0NASF0oW0NIMl0xKVtDQF0oW0NIM10pKFtDQEBIXShbQ0gyXVtDSDJdMilDKFtDSDNdKShbQ0gzXSlbT0hdKVtDQEBdMihbT0hdKVtDQF0oW09IXSkoW0NAQEhdMVtDQEBdMzRbT0hdKVtDQEhdKFtPSF0pW0NIMl1bQ0BdNChbQ0gzXSlbQ0BAXTUoW09IXSlbQ0BIXShbQ0gyXTMpW0NAQEhdKFtPSF0pW0NIMl01

>  <s_epik_cmdline>  (247) 
J2VwaWtfcHl0aG9uJywgJy1waHQnLCAnMi4wJywgJy1waCcsICc3LjAnLCAnLXRuJywgJzgnLCAnLW1hJywgJzIwMCcsICctaW1hZScsICc8aW5maWxlLm1hZT4nLCAnLW9tYWUnLCAnPG91dGZpbGUubWFlPic=

>  <r_lp_tautomer_probability>  (247) 
1

>  <r_epik_Ionization_Penalty>  (247) 
5.33178e-06

>  <r_epik_Ionization_Penalty_Charging>  (247) 
0

>  <r_epik_Ionization_Penalty_Neutral>  (247) 
5.33178e-06

>  <r_epik_State_Penalty>  (247) 
-0

>  <r_epik_Charging_Adjusted_Penalty>  (247) 
0

>  <i_epik_Tot_Q>  (247) 
0

>  <i_epik_Tot_abs_Q>  (247) 
0

>  <s_lp_Force_Field>  (247) 
OPLS3e

>  <r_lp_Energy>  (247) 
111.017

>  <b_lp_Chiralities_Consistent>  (247) 
1

>  <s_lp_Variant>  (247) 
90:0-1

>  <s_i_glide_gridfile>  (247) 
pfpi4k_grid

>  <i_i_glide_lignum>  (247) 
3

>  <i_i_glide_rotatable_bonds>  (247) 
9

>  <r_i_docking_score>  (247) 
-4.37327

>  <r_i_glide_ligand_efficiency>  (247) 
-0.136665

>  <r_i_glide_ligand_efficiency_sa>  (247) 
-0.433883

>  <r_i_glide_ligand_efficiency_ln>  (247) 
-0.979294

>  <r_i_glide_gscore>  (247) 
-4.37327

>  <r_i_glide_lipo>  (247) 
-0.380895

>  <r_i_glide_hbond>  (247) 
-0.32

>  <r_i_glide_metal>  (247) 
-0

>  <r_i_glide_rewards>  (247) 
-0.796116

>  <r_i_glide_evdw>  (247) 
-25.022

>  <r_i_glide_ecoul>  (247) 
-11.4771

>  <r_i_glide_erotb>  (247) 
0.0964139

>  <r_i_glide_esite>  (247) 
0

>  <r_i_glide_emodel>  (247) 
-51.4596

>  <r_i_glide_energy>  (247) 
-36.4991

>  <r_i_glide_einternal>  (247) 
2.56786

>  <r_i_glide_intrahb_reward>  (247) 
-0.5

>  <i_i_glide_confnum>  (247) 
1

>  <i_i_glide_posenum>  (247) 
39

>  <r_i_glide_eff_state_penalty>  (247) 
0

>  <ligand_id>  (247) 
90

>  <original_smiles>  (247) 
COC1CC2C3(O)CC4C(O)CC4(O)C3(C)CC(O)C2(O)C2(O)CCC(C(C)(C)O)C12C

>  <smiles>  (247) 
[H]OC1([H])C([H])([H])C2(O[H])C1([H])C([H])([H])C1(O[H])C3([H])C([H])([H])C([H])(OC([H])([H])[H])C4(C([H])([H])[H])C([H])(C(O[H])(C([H])([H])[H])C([H])([H])[H])C([H])([H])C([H])([H])C4(O[H])C3(O[H])C([H])(O[H])C([H])([H])C21C([H])([H])[H]

$$$$
90:0:1
     RDKit          3D

 72 76  0  0  1  0  0  0  0  0999 V2000
    5.7101   -7.9212    3.4786 C   0  0  0  0  0  0  0  0  0  0  0  0
    4.4321   -7.6646    2.8881 O   0  0  0  0  0  0  0  0  0  0  0  0
    3.9893   -6.3097    2.6814 C   0  0  2  0  0  0  0  0  0  0  0  0
    5.1607   -5.3605    2.3986 C   0  0  0  0  0  0  0  0  0  0  0  0
    4.7751   -3.9054    2.0312 C   0  0  1  0  0  0  0  0  0  0  0  0
    5.4248   -3.4277    0.6915 C   0  0  1  0  0  0  0  0  0  0  0  0
    6.8257   -3.5675    0.9029 O   0  0  0  0  0  0  0  0  0  0  0  0
    5.1285   -4.3146   -0.5776 C   0  0  0  0  0  0  0  0  0  0  0  0
    4.4210   -3.3264   -1.4694 C   0  0  2  0  0  0  0  0  0  0  0  0
    4.3821   -2.9976   -2.9599 C   0  0  1  0  0  0  0  0  0  0  0  0
    3.2574   -3.4611   -3.6844 O   0  0  0  0  0  0  0  0  0  0  0  0
    4.3133   -1.5314   -2.4184 C   0  0  0  0  0  0  0  0  0  0  0  0
    5.1761   -2.0312   -1.2452 C   0  0  2  0  0  0  0  0  0  0  0  0
    6.5565   -2.0180   -1.5978 O   0  0  0  0  0  0  0  0  0  0  0  0
    5.0949   -1.9153    0.2954 C   0  0  2  0  0  0  0  0  0  0  0  0
    6.0951   -0.8791    0.8959 C   0  0  0  0  0  0  0  0  0  0  0  0
    3.6730   -1.4605    0.7453 C   0  0  0  0  0  0  0  0  0  0  0  0
    3.1850   -2.0082    2.0989 C   0  0  1  0  0  0  0  0  0  0  0  0
    1.8803   -1.5123    2.3133 O   0  0  0  0  0  0  0  0  0  0  0  0
    3.2731   -3.5681    2.2169 C   0  0  1  0  0  0  0  0  0  0  0  0
    2.5591   -4.1194    1.1294 O   0  0  0  0  0  0  0  0  0  0  0  0
    2.7325   -4.2021    3.5700 C   0  0  1  0  0  0  0  0  0  0  0  0
    3.3416   -3.4505    4.6091 O   0  0  0  0  0  0  0  0  0  0  0  0
    1.2139   -4.0356    3.8006 C   0  0  0  0  0  0  0  0  0  0  0  0
    0.7533   -5.2944    4.5169 C   0  0  0  0  0  0  0  0  0  0  0  0
    1.5821   -6.4395    3.8951 C   0  0  1  0  0  0  0  0  0  0  0  0
    0.8608   -7.1769    2.6944 C   0  0  0  0  0  0  0  0  0  0  0  0
    1.5969   -8.4559    2.2239 C   0  0  0  0  0  0  0  0  0  0  0  0
   -0.5751   -7.6301    3.0783 C   0  0  0  0  0  0  0  0  0  0  0  0
    0.6887   -6.3374    1.5694 O   0  0  0  0  0  0  0  0  0  0  0  0
    3.0123   -5.7646    3.7827 C   0  0  1  0  0  0  0  0  0  0  0  0
    3.6871   -6.0279    5.1633 C   0  0  0  0  0  0  0  0  0  0  0  0
    5.8592   -9.0040    3.5315 H   0  0  0  0  0  0  0  0  0  0  0  0
    5.7831   -7.5472    4.4950 H   0  0  0  0  0  0  0  0  0  0  0  0
    6.5419   -7.5218    2.9039 H   0  0  0  0  0  0  0  0  0  0  0  0
    3.4273   -6.3566    1.7540 H   0  0  0  0  0  0  0  0  0  0  0  0
    5.8051   -5.2756    3.2783 H   0  0  0  0  0  0  0  0  0  0  0  0
    5.7558   -5.8044    1.6068 H   0  0  0  0  0  0  0  0  0  0  0  0
    5.2730   -3.3034    2.7830 H   0  0  0  0  0  0  0  0  0  0  0  0
    7.0175   -4.4619    1.1456 H   0  0  0  0  0  0  0  0  0  0  0  0
    6.0419   -4.6504   -1.0605 H   0  0  0  0  0  0  0  0  0  0  0  0
    4.5130   -5.1905   -0.3699 H   0  0  0  0  0  0  0  0  0  0  0  0
    3.3776   -3.3091   -1.1766 H   0  0  0  0  0  0  0  0  0  0  0  0
    5.3042   -3.2462   -3.4959 H   0  0  0  0  0  0  0  0  0  0  0  0
    3.0572   -4.3235   -3.3589 H   0  0  0  0  0  0  0  0  0  0  0  0
    4.8020   -0.7983   -3.0598 H   0  0  0  0  0  0  0  0  0  0  0  0
    3.3064   -1.1978   -2.1374 H   0  0  0  0  0  0  0  0  0  0  0  0
    6.6718   -2.6586   -2.2811 H   0  0  0  0  0  0  0  0  0  0  0  0
    5.8960    0.1240    0.5210 H   0  0  0  0  0  0  0  0  0  0  0  0
    7.1417   -1.0849    0.6591 H   0  0  0  0  0  0  0  0  0  0  0  0
    6.0321   -0.8526    1.9815 H   0  0  0  0  0  0  0  0  0  0  0  0
    3.6464   -0.3792    0.7854 H   0  0  0  0  0  0  0  0  0  0  0  0
    2.9062   -1.6902    0.0133 H   0  0  0  0  0  0  0  0  0  0  0  0
    3.8037   -1.5531    2.8744 H   0  0  0  0  0  0  0  0  0  0  0  0
    1.4493   -1.4485    1.4698 H   0  0  0  0  0  0  0  0  0  0  0  0
    2.8784   -3.7055    0.3417 H   0  0  0  0  0  0  0  0  0  0  0  0
    3.1048   -2.5434    4.4885 H   0  0  0  0  0  0  0  0  0  0  0  0
    0.9488   -3.1280    4.3457 H   0  0  0  0  0  0  0  0  0  0  0  0
    0.6801   -3.9862    2.8635 H   0  0  0  0  0  0  0  0  0  0  0  0
    0.9907   -5.2068    5.5749 H   0  0  0  0  0  0  0  0  0  0  0  0
   -0.3286   -5.4245    4.4758 H   0  0  0  0  0  0  0  0  0  0  0  0
    1.6374   -7.2213    4.6543 H   0  0  0  0  0  0  0  0  0  0  0  0
    1.9901   -9.0218    3.0669 H   0  0  0  0  0  0  0  0  0  0  0  0
    2.4153   -8.2574    1.5351 H   0  0  0  0  0  0  0  0  0  0  0  0
    0.9313   -9.1323    1.6836 H   0  0  0  0  0  0  0  0  0  0  0  0
   -0.5789   -8.1955    4.0109 H   0  0  0  0  0  0  0  0  0  0  0  0
   -1.0142   -8.2691    2.3132 H   0  0  0  0  0  0  0  0  0  0  0  0
   -1.2698   -6.7982    3.1889 H   0  0  0  0  0  0  0  0  0  0  0  0
    1.5505   -6.1546    1.2187 H   0  0  0  0  0  0  0  0  0  0  0  0
    3.1194   -5.6132    6.0000 H   0  0  0  0  0  0  0  0  0  0  0  0
    4.6802   -5.5914    5.2184 H   0  0  0  0  0  0  0  0  0  0  0  0
    3.7745   -7.0923    5.3520 H   0  0  0  0  0  0  0  0  0  0  0  0
  1  2  1  0
  1 33  1  0
  1 34  1  0
  1 35  1  0
  2  3  1  0
  3 31  1  0
  3  4  1  0
  3 36  1  6
  4  5  1  0
  4 37  1  0
  4 38  1  0
  5 20  1  0
  5  6  1  0
  5 39  1  1
  6 15  1  0
  6  7  1  1
  6  8  1  0
  7 40  1  0
  8  9  1  0
  8 41  1  0
  8 42  1  0
  9 13  1  0
  9 10  1  0
  9 43  1  1
 10 11  1  0
 10 12  1  0
 10 44  1  6
 11 45  1  0
 12 13  1  0
 12 46  1  0
 12 47  1  0
 13 14  1  6
 13 15  1  0
 14 48  1  0
 15 16  1  1
 15 17  1  0
 16 49  1  0
 16 50  1  0
 16 51  1  0
 17 18  1  0
 17 52  1  0
 17 53  1  0
 18 19  1  0
 18 20  1  0
 18 54  1  1
 19 55  1  0
 20 21  1  6
 20 22  1  0
 21 56  1  0
 22 31  1  0
 22 23  1  1
 22 24  1  0
 23 57  1  0
 24 25  1  0
 24 58  1  0
 24 59  1  0
 25 26  1  0
 25 60  1  0
 25 61  1  0
 26 27  1  0
 26 31  1  0
 26 62  1  1
 27 28  1  0
 27 29  1  0
 27 30  1  0
 28 63  1  0
 28 64  1  0
 28 65  1  0
 29 66  1  0
 29 67  1  0
 29 68  1  0
 30 69  1  0
 31 32  1  1
 32 70  1  0
 32 71  1  0
 32 72  1  0
M  END
>  <i_m_ct_stereo_status>  (248) 
1

>  <s_m_source_file>  (248) 
/var/tmp/pbs.5076255.sched01/tmp3ug8vllb/105tp2mz_hs.sdf

>  <i_m_source_file_index>  (248) 
3

>  <i_lp_mmshare_version>  (248) 
48012

>  <i_f3d_flags>  (248) 
0

>  <s_epik_input>  (248) 
W0NIM11PW0NASF0oW0NIMl0xKVtDQF0oW0NIM10pKFtDQEBIXShbQ0gyXVtDSDJdMilDKFtDSDNdKShbQ0gzXSlbT0hdKVtDQEBdMihbT0hdKVtDQF0oW09IXSkoW0NAQEhdMVtDQEBdMzRbT0hdKVtDQEhdKFtPSF0pW0NIMl1bQ0BdNChbQ0gzXSlbQ0BAXTUoW09IXSlbQ0BIXShbQ0gyXTMpW0NAQEhdKFtPSF0pW0NIMl01

>  <s_epik_cmdline>  (248) 
J2VwaWtfcHl0aG9uJywgJy1waHQnLCAnMi4wJywgJy1waCcsICc3LjAnLCAnLXRuJywgJzgnLCAnLW1hJywgJzIwMCcsICctaW1hZScsICc8aW5maWxlLm1hZT4nLCAnLW9tYWUnLCAnPG91dGZpbGUubWFlPic=

>  <r_lp_tautomer_probability>  (248) 
1

>  <r_epik_Ionization_Penalty>  (248) 
5.33178e-06

>  <r_epik_Ionization_Penalty_Charging>  (248) 
0

>  <r_epik_Ionization_Penalty_Neutral>  (248) 
5.33178e-06

>  <r_epik_State_Penalty>  (248) 
-0

>  <r_epik_Charging_Adjusted_Penalty>  (248) 
0

>  <i_epik_Tot_Q>  (248) 
0

>  <i_epik_Tot_abs_Q>  (248) 
0

>  <s_lp_Force_Field>  (248) 
OPLS3e

>  <r_lp_Energy>  (248) 
111.017

>  <b_lp_Chiralities_Consistent>  (248) 
1

>  <s_lp_Variant>  (248) 
90:0-1

>  <s_i_glide_gridfile>  (248) 
pfpi4k_grid

>  <i_i_glide_lignum>  (248) 
3

>  <i_i_glide_rotatable_bonds>  (248) 
9

>  <r_i_docking_score>  (248) 
-4.36735

>  <r_i_glide_ligand_efficiency>  (248) 
-0.13648

>  <r_i_glide_ligand_efficiency_sa>  (248) 
-0.433296

>  <r_i_glide_ligand_efficiency_ln>  (248) 
-0.977968

>  <r_i_glide_gscore>  (248) 
-4.36735

>  <r_i_glide_lipo>  (248) 
-0.37496

>  <r_i_glide_hbond>  (248) 
-0.32

>  <r_i_glide_metal>  (248) 
-0

>  <r_i_glide_rewards>  (248) 
-0.796116

>  <r_i_glide_evdw>  (248) 
-24.4389

>  <r_i_glide_ecoul>  (248) 
-11.6716

>  <r_i_glide_erotb>  (248) 
0.0964139

>  <r_i_glide_esite>  (248) 
0

>  <r_i_glide_emodel>  (248) 
-47.7601

>  <r_i_glide_energy>  (248) 
-36.1105

>  <r_i_glide_einternal>  (248) 
8.99418

>  <r_i_glide_intrahb_reward>  (248) 
-0.5

>  <i_i_glide_confnum>  (248) 
4

>  <i_i_glide_posenum>  (248) 
9

>  <r_i_glide_eff_state_penalty>  (248) 
0

>  <ligand_id>  (248) 
90

>  <original_smiles>  (248) 
COC1CC2C3(O)CC4C(O)CC4(O)C3(C)CC(O)C2(O)C2(O)CCC(C(C)(C)O)C12C

>  <smiles>  (248) 
[H]OC1([H])C([H])([H])C2(O[H])C1([H])C([H])([H])C1(O[H])C3([H])C([H])([H])C([H])(OC([H])([H])[H])C4(C([H])([H])[H])C([H])(C(O[H])(C([H])([H])[H])C([H])([H])[H])C([H])([H])C([H])([H])C4(O[H])C3(O[H])C([H])(O[H])C([H])([H])C21C([H])([H])[H]

$$$$
90:0:2
     RDKit          3D

 72 76  0  0  1  0  0  0  0  0999 V2000
    5.6204   -7.9843    3.2357 C   0  0  0  0  0  0  0  0  0  0  0  0
    4.3216   -7.6855    2.7151 O   0  0  0  0  0  0  0  0  0  0  0  0
    3.9068   -6.3192    2.5427 C   0  0  2  0  0  0  0  0  0  0  0  0
    5.0910   -5.3998    2.2146 C   0  0  0  0  0  0  0  0  0  0  0  0
    4.7280   -3.9229    1.8826 C   0  0  1  0  0  0  0  0  0  0  0  0
    5.3144   -3.4542    0.5106 C   0  0  1  0  0  0  0  0  0  0  0  0
    6.7262   -3.6376    0.6427 O   0  0  0  0  0  0  0  0  0  0  0  0
    4.9300   -4.3234   -0.7464 C   0  0  0  0  0  0  0  0  0  0  0  0
    4.2010   -3.3102   -1.5937 C   0  0  2  0  0  0  0  0  0  0  0  0
    4.1083   -2.9458   -3.0753 C   0  0  1  0  0  0  0  0  0  0  0  0
    2.9636   -3.3561   -3.7906 O   0  0  0  0  0  0  0  0  0  0  0  0
    4.1216   -1.4870   -2.5133 C   0  0  0  0  0  0  0  0  0  0  0  0
    5.0078   -2.0471   -1.3913 C   0  0  2  0  0  0  0  0  0  0  0  0
    6.3831   -2.1079   -1.7955 O   0  0  0  0  0  0  0  0  0  0  0  0
    5.0066   -1.9331    0.1473 C   0  0  2  0  0  0  0  0  0  0  0  0
    6.0650   -0.9240    0.7088 C   0  0  0  0  0  0  0  0  0  0  0  0
    3.6234   -1.4378    0.6753 C   0  0  0  0  0  0  0  0  0  0  0  0
    3.1903   -1.9918    2.0405 C   0  0  1  0  0  0  0  0  0  0  0  0
    1.9105   -1.4558    2.3210 O   0  0  0  0  0  0  0  0  0  0  0  0
    3.2439   -3.5547    2.1417 C   0  0  1  0  0  0  0  0  0  0  0  0
    2.4625   -4.0730    1.0870 O   0  0  0  0  0  0  0  0  0  0  0  0
    2.7500   -4.1865    3.5116 C   0  0  1  0  0  0  0  0  0  0  0  0
    3.4250   -3.4588    4.5306 O   0  0  0  0  0  0  0  0  0  0  0  0
    1.2486   -3.9833    3.8063 C   0  0  0  0  0  0  0  0  0  0  0  0
    0.7920   -5.2303    4.5413 C   0  0  0  0  0  0  0  0  0  0  0  0
    1.5584   -6.3932    3.8770 C   0  0  1  0  0  0  0  0  0  0  0  0
    0.7609   -7.1044    2.7089 C   0  0  0  0  0  0  0  0  0  0  0  0
    1.4332   -8.4017    2.2016 C   0  0  0  0  0  0  0  0  0  0  0  0
   -0.6665   -7.5079    3.1545 C   0  0  0  0  0  0  0  0  0  0  0  0
    0.5778   -6.2552    1.5912 O   0  0  0  0  0  0  0  0  0  0  0  0
    3.0012   -5.7553    3.6995 C   0  0  1  0  0  0  0  0  0  0  0  0
    3.7372   -6.0514    5.0417 C   0  0  0  0  0  0  0  0  0  0  0  0
    5.7420   -9.0716    3.2690 H   0  0  0  0  0  0  0  0  0  0  0  0
    5.7525   -7.6259    4.2538 H   0  0  0  0  0  0  0  0  0  0  0  0
    6.4325   -7.5918    2.6210 H   0  0  0  0  0  0  0  0  0  0  0  0
    3.2995   -6.3388    1.6479 H   0  0  0  0  0  0  0  0  0  0  0  0
    5.7822   -5.3386    3.0571 H   0  0  0  0  0  0  0  0  0  0  0  0
    5.6349   -5.8417    1.3878 H   0  0  0  0  0  0  0  0  0  0  0  0
    5.2745   -3.3440    2.6110 H   0  0  0  0  0  0  0  0  0  0  0  0
    7.1273   -3.3591   -0.1690 H   0  0  0  0  0  0  0  0  0  0  0  0
    5.8058   -4.6920   -1.2811 H   0  0  0  0  0  0  0  0  0  0  0  0
    4.3157   -5.1887   -0.5141 H   0  0  0  0  0  0  0  0  0  0  0  0
    3.1768   -3.2699   -1.2462 H   0  0  0  0  0  0  0  0  0  0  0  0
    4.9981   -3.1985   -3.6559 H   0  0  0  0  0  0  0  0  0  0  0  0
    2.2280   -3.3408   -3.1844 H   0  0  0  0  0  0  0  0  0  0  0  0
    4.5948   -0.7671   -3.1806 H   0  0  0  0  0  0  0  0  0  0  0  0
    3.1320   -1.1275   -2.1901 H   0  0  0  0  0  0  0  0  0  0  0  0
    6.4174   -2.6808   -2.5360 H   0  0  0  0  0  0  0  0  0  0  0  0
    5.8724    0.0891    0.3619 H   0  0  0  0  0  0  0  0  0  0  0  0
    7.0944   -1.1485    0.4210 H   0  0  0  0  0  0  0  0  0  0  0  0
    6.0557   -0.9088    1.7961 H   0  0  0  0  0  0  0  0  0  0  0  0
    3.6286   -0.3623    0.7205 H   0  0  0  0  0  0  0  0  0  0  0  0
    2.8147   -1.6477   -0.0223 H   0  0  0  0  0  0  0  0  0  0  0  0
    3.8596   -1.5568    2.7878 H   0  0  0  0  0  0  0  0  0  0  0  0
    1.4406   -1.3898    1.5009 H   0  0  0  0  0  0  0  0  0  0  0  0
    2.7526   -3.6588    0.2924 H   0  0  0  0  0  0  0  0  0  0  0  0
    3.2070   -2.5455    4.4326 H   0  0  0  0  0  0  0  0  0  0  0  0
    1.0341   -3.0756    4.3679 H   0  0  0  0  0  0  0  0  0  0  0  0
    0.6805   -3.9061    2.8807 H   0  0  0  0  0  0  0  0  0  0  0  0
    1.0874   -5.1554    5.5848 H   0  0  0  0  0  0  0  0  0  0  0  0
   -0.2899   -5.3317    4.5592 H   0  0  0  0  0  0  0  0  0  0  0  0
    1.6312   -7.1818    4.6275 H   0  0  0  0  0  0  0  0  0  0  0  0
    1.8424   -8.9867    3.0264 H   0  0  0  0  0  0  0  0  0  0  0  0
    2.2284   -8.2274    1.4826 H   0  0  0  0  0  0  0  0  0  0  0  0
    0.7217   -9.0478    1.6844 H   0  0  0  0  0  0  0  0  0  0  0  0
   -0.6505   -8.0780    4.0843 H   0  0  0  0  0  0  0  0  0  0  0  0
   -1.1637   -8.1271    2.4073 H   0  0  0  0  0  0  0  0  0  0  0  0
   -1.3317   -6.6590    3.3015 H   0  0  0  0  0  0  0  0  0  0  0  0
    1.4322   -6.1049    1.2083 H   0  0  0  0  0  0  0  0  0  0  0  0
    3.2213   -5.6273    5.9075 H   0  0  0  0  0  0  0  0  0  0  0  0
    4.7421   -5.6415    5.0503 H   0  0  0  0  0  0  0  0  0  0  0  0
    3.8060   -7.1189    5.2152 H   0  0  0  0  0  0  0  0  0  0  0  0
  1  2  1  0
  1 33  1  0
  1 34  1  0
  1 35  1  0
  2  3  1  0
  3 31  1  0
  3  4  1  0
  3 36  1  6
  4  5  1  0
  4 37  1  0
  4 38  1  0
  5 20  1  0
  5  6  1  0
  5 39  1  1
  6 15  1  0
  6  7  1  1
  6  8  1  0
  7 40  1  0
  8  9  1  0
  8 41  1  0
  8 42  1  0
  9 13  1  0
  9 10  1  0
  9 43  1  1
 10 11  1  0
 10 12  1  0
 10 44  1  6
 11 45  1  0
 12 13  1  0
 12 46  1  0
 12 47  1  0
 13 14  1  6
 13 15  1  0
 14 48  1  0
 15 16  1  6
 15 17  1  0
 16 49  1  0
 16 50  1  0
 16 51  1  0
 17 18  1  0
 17 52  1  0
 17 53  1  0
 18 19  1  0
 18 20  1  0
 18 54  1  1
 19 55  1  0
 20 21  1  6
 20 22  1  0
 21 56  1  0
 22 31  1  0
 22 23  1  1
 22 24  1  0
 23 57  1  0
 24 25  1  0
 24 58  1  0
 24 59  1  0
 25 26  1  0
 25 60  1  0
 25 61  1  0
 26 27  1  0
 26 31  1  0
 26 62  1  1
 27 28  1  0
 27 29  1  0
 27 30  1  0
 28 63  1  0
 28 64  1  0
 28 65  1  0
 29 66  1  0
 29 67  1  0
 29 68  1  0
 30 69  1  0
 31 32  1  1
 32 70  1  0
 32 71  1  0
 32 72  1  0
M  END
>  <i_m_ct_stereo_status>  (249) 
1

>  <s_m_source_file>  (249) 
/var/tmp/pbs.5076255.sched01/tmp3ug8vllb/105tp2mz_hs.sdf

>  <i_m_source_file_index>  (249) 
3

>  <i_lp_mmshare_version>  (249) 
48012

>  <i_f3d_flags>  (249) 
0

>  <s_epik_input>  (249) 
W0NIM11PW0NASF0oW0NIMl0xKVtDQF0oW0NIM10pKFtDQEBIXShbQ0gyXVtDSDJdMilDKFtDSDNdKShbQ0gzXSlbT0hdKVtDQEBdMihbT0hdKVtDQF0oW09IXSkoW0NAQEhdMVtDQEBdMzRbT0hdKVtDQEhdKFtPSF0pW0NIMl1bQ0BdNChbQ0gzXSlbQ0BAXTUoW09IXSlbQ0BIXShbQ0gyXTMpW0NAQEhdKFtPSF0pW0NIMl01

>  <s_epik_cmdline>  (249) 
J2VwaWtfcHl0aG9uJywgJy1waHQnLCAnMi4wJywgJy1waCcsICc3LjAnLCAnLXRuJywgJzgnLCAnLW1hJywgJzIwMCcsICctaW1hZScsICc8aW5maWxlLm1hZT4nLCAnLW9tYWUnLCAnPG91dGZpbGUubWFlPic=

>  <r_lp_tautomer_probability>  (249) 
1

>  <r_epik_Ionization_Penalty>  (249) 
5.33178e-06

>  <r_epik_Ionization_Penalty_Charging>  (249) 
0

>  <r_epik_Ionization_Penalty_Neutral>  (249) 
5.33178e-06

>  <r_epik_State_Penalty>  (249) 
-0

>  <r_epik_Charging_Adjusted_Penalty>  (249) 
0

>  <i_epik_Tot_Q>  (249) 
0

>  <i_epik_Tot_abs_Q>  (249) 
0

>  <s_lp_Force_Field>  (249) 
OPLS3e

>  <r_lp_Energy>  (249) 
111.017

>  <b_lp_Chiralities_Consistent>  (249) 
1

>  <s_lp_Variant>  (249) 
90:0-1

>  <s_i_glide_gridfile>  (249) 
pfpi4k_grid

>  <i_i_glide_lignum>  (249) 
3

>  <i_i_glide_rotatable_bonds>  (249) 
9

>  <r_i_docking_score>  (249) 
-4.07415

>  <r_i_glide_ligand_efficiency>  (249) 
-0.127317

>  <r_i_glide_ligand_efficiency_sa>  (249) 
-0.404207

>  <r_i_glide_ligand_efficiency_ln>  (249) 
-0.912314

>  <r_i_glide_gscore>  (249) 
-4.07415

>  <r_i_glide_lipo>  (249) 
-0.306062

>  <r_i_glide_hbond>  (249) 
0

>  <r_i_glide_metal>  (249) 
-0

>  <r_i_glide_rewards>  (249) 
-1.29612

>  <r_i_glide_evdw>  (249) 
-25.0727

>  <r_i_glide_ecoul>  (249) 
-8.76503

>  <r_i_glide_erotb>  (249) 
0.0964139

>  <r_i_glide_esite>  (249) 
0

>  <r_i_glide_emodel>  (249) 
-50.2291

>  <r_i_glide_energy>  (249) 
-33.8377

>  <r_i_glide_einternal>  (249) 
7.88253

>  <r_i_glide_intrahb_reward>  (249) 
-1

>  <i_i_glide_confnum>  (249) 
1

>  <i_i_glide_posenum>  (249) 
23

>  <r_i_glide_eff_state_penalty>  (249) 
0

>  <ligand_id>  (249) 
90

>  <original_smiles>  (249) 
COC1CC2C3(O)CC4C(O)CC4(O)C3(C)CC(O)C2(O)C2(O)CCC(C(C)(C)O)C12C

>  <smiles>  (249) 
[H]OC1([H])C([H])([H])C2(O[H])C1([H])C([H])([H])C1(O[H])C3([H])C([H])([H])C([H])(OC([H])([H])[H])C4(C([H])([H])[H])C([H])(C(O[H])(C([H])([H])[H])C([H])([H])[H])C([H])([H])C([H])([H])C4(O[H])C3(O[H])C([H])(O[H])C([H])([H])C21C([H])([H])[H]

$$$$
91:0:0
     RDKit          3D

 46 49  0  0  1  0  0  0  0  0999 V2000
    4.3810   -3.7524    5.3354 C   0  0  0  0  0  0  0  0  0  0  0  0
    3.1535   -3.8384    4.4036 C   0  0  1  0  0  0  0  0  0  0  0  0
    2.8211   -2.4704    3.7644 C   0  0  0  0  0  0  0  0  0  0  0  0
    3.8336   -2.0726    2.6824 C   0  0  0  0  0  0  0  0  0  0  0  0
    3.8918   -3.1100    1.5320 C   0  0  2  0  0  0  0  0  0  0  0  0
    4.2073   -4.5145    2.1153 C   0  0  2  0  0  0  0  0  0  0  0  0
    4.2505   -5.6158    1.0345 C   0  0  0  0  0  0  0  0  0  0  0  0
    4.6963   -5.1328   -0.3256 C   0  0  0  0  0  0  0  0  0  0  0  0
    4.9758   -3.8596   -0.6560 C   0  0  0  0  0  0  0  0  0  0  0  0
    5.3700   -3.4898   -2.0848 C   0  0  0  0  0  0  0  0  0  0  0  0
    4.3734   -2.4866   -2.6726 C   0  0  0  0  0  0  0  0  0  0  0  0
    4.2220   -2.3816   -3.8916 O   0  0  0  0  0  0  0  0  0  0  0  0
    3.5817   -1.6083   -1.7016 C   0  0  0  0  0  0  0  0  0  0  0  0
    4.3353   -1.4520   -0.3751 C   0  0  0  0  0  0  0  0  0  0  0  0
    4.5221   -0.3301    0.0979 O   0  0  0  0  0  0  0  0  0  0  0  0
    4.8623   -2.7132    0.3550 C   0  0  1  0  0  0  0  0  0  0  0  0
    6.2994   -2.4165    0.8480 C   0  0  0  0  0  0  0  0  0  0  0  0
    3.3034   -4.9262    3.3173 C   0  0  2  0  0  0  0  0  0  0  0  0
    1.8589   -5.3670    2.9879 C   0  0  0  0  0  0  0  0  0  0  0  0
    1.0722   -5.2670    4.3007 C   0  0  0  0  0  0  0  0  0  0  0  0
    1.9228   -4.3463    5.1575 C   0  0  0  0  0  0  0  0  0  0  0  0
    1.6457   -4.0546    6.3185 O   0  0  0  0  0  0  0  0  0  0  0  0
    5.3013   -3.5957    4.7757 H   0  0  0  0  0  0  0  0  0  0  0  0
    4.5096   -4.6656    5.9152 H   0  0  0  0  0  0  0  0  0  0  0  0
    4.2876   -2.9304    6.0448 H   0  0  0  0  0  0  0  0  0  0  0  0
    1.8265   -2.4885    3.3155 H   0  0  0  0  0  0  0  0  0  0  0  0
    2.7820   -1.6937    4.5306 H   0  0  0  0  0  0  0  0  0  0  0  0
    3.5530   -1.0891    2.3086 H   0  0  0  0  0  0  0  0  0  0  0  0
    4.8145   -1.9610    3.1463 H   0  0  0  0  0  0  0  0  0  0  0  0
    2.8883   -3.1622    1.1062 H   0  0  0  0  0  0  0  0  0  0  0  0
    5.2177   -4.4498    2.5199 H   0  0  0  0  0  0  0  0  0  0  0  0
    4.9190   -6.4146    1.3573 H   0  0  0  0  0  0  0  0  0  0  0  0
    3.2726   -6.0688    0.8834 H   0  0  0  0  0  0  0  0  0  0  0  0
    4.7677   -5.9026   -1.0835 H   0  0  0  0  0  0  0  0  0  0  0  0
    6.3783   -3.0753   -2.1039 H   0  0  0  0  0  0  0  0  0  0  0  0
    5.3688   -4.3811   -2.7115 H   0  0  0  0  0  0  0  0  0  0  0  0
    3.4361   -0.6294   -2.1552 H   0  0  0  0  0  0  0  0  0  0  0  0
    2.5972   -2.0334   -1.5273 H   0  0  0  0  0  0  0  0  0  0  0  0
    6.9506   -2.1477    0.0147 H   0  0  0  0  0  0  0  0  0  0  0  0
    6.7497   -3.2856    1.3274 H   0  0  0  0  0  0  0  0  0  0  0  0
    6.3423   -1.5876    1.5536 H   0  0  0  0  0  0  0  0  0  0  0  0
    3.7827   -5.7877    3.7860 H   0  0  0  0  0  0  0  0  0  0  0  0
    1.4146   -4.7005    2.2489 H   0  0  0  0  0  0  0  0  0  0  0  0
    1.8211   -6.3840    2.5936 H   0  0  0  0  0  0  0  0  0  0  0  0
    0.0714   -4.8577    4.1626 H   0  0  0  0  0  0  0  0  0  0  0  0
    0.9895   -6.2357    4.7942 H   0  0  0  0  0  0  0  0  0  0  0  0
  2  1  1  1
  1 23  1  0
  1 24  1  0
  1 25  1  0
  2 18  1  0
  2 21  1  0
  2  3  1  0
  3  4  1  0
  3 26  1  0
  3 27  1  0
  4  5  1  0
  4 28  1  0
  4 29  1  0
  5 16  1  0
  5  6  1  0
  5 30  1  6
  6  7  1  0
  6 18  1  0
  6 31  1  1
  7  8  1  0
  7 32  1  0
  7 33  1  0
  8  9  2  0
  8 34  1  0
  9 16  1  0
  9 10  1  0
 10 11  1  0
 10 35  1  0
 10 36  1  0
 11 12  2  0
 11 13  1  0
 13 14  1  0
 13 37  1  0
 13 38  1  0
 14 15  2  0
 14 16  1  0
 16 17  1  1
 17 39  1  0
 17 40  1  0
 17 41  1  0
 18 19  1  0
 18 42  1  1
 19 20  1  0
 19 43  1  0
 19 44  1  0
 20 21  1  0
 20 45  1  0
 20 46  1  0
 21 22  2  0
M  END
>  <i_m_ct_stereo_status>  (250) 
1

>  <s_m_source_file>  (250) 
/var/tmp/pbs.5076255.sched01/tmp3ug8vllb/105tp2mz_hs.sdf

>  <i_m_source_file_index>  (250) 
4

>  <i_lp_mmshare_version>  (250) 
48012

>  <i_f3d_flags>  (250) 
0

>  <s_epik_input>  (250) 
Tz1DMVtDSDJdW0NIMl1bQ0BIXShbQ0BdMTJbQ0gzXSlbQ0BASF0zW0NAQEhdKFtDSDJdW0NIMl0yKVtDQEBdNChbQ0gzXSlDKD1bQ0hdW0NIMl0zKVtDSDJdQyg9TylbQ0gyXUM0PU8=

>  <s_epik_cmdline>  (250) 
J2VwaWtfcHl0aG9uJywgJy1waHQnLCAnMi4wJywgJy1waCcsICc3LjAnLCAnLXRuJywgJzgnLCAnLW1hJywgJzIwMCcsICctaW1hZScsICc8aW5maWxlLm1hZT4nLCAnLW9tYWUnLCAnPG91dGZpbGUubWFlPic=

>  <r_lp_tautomer_probability>  (250) 
0.99995

>  <r_epik_Ionization_Penalty>  (250) 
0.00204128

>  <r_epik_Ionization_Penalty_Charging>  (250) 
0

>  <r_epik_Ionization_Penalty_Neutral>  (250) 
0.00204128

>  <r_epik_State_Penalty>  (250) 
0.00139632

>  <r_epik_Charging_Adjusted_Penalty>  (250) 
0.00139632

>  <i_epik_Tot_Q>  (250) 
0

>  <i_epik_Tot_abs_Q>  (250) 
0

>  <s_lp_Force_Field>  (250) 
OPLS3e

>  <r_lp_Energy>  (250) 
34.9521

>  <b_lp_Chiralities_Consistent>  (250) 
1

>  <s_lp_Variant>  (250) 
91:0-1

>  <s_i_glide_gridfile>  (250) 
pfpi4k_grid

>  <i_i_glide_lignum>  (250) 
4

>  <i_i_glide_rotatable_bonds>  (250) 
0

>  <r_i_docking_score>  (250) 
-3.71634

>  <r_i_glide_ligand_efficiency>  (250) 
-0.168925

>  <r_i_glide_ligand_efficiency_sa>  (250) 
-0.473333

>  <r_i_glide_ligand_efficiency_ln>  (250) 
-0.908409

>  <r_i_glide_gscore>  (250) 
-3.71634

>  <r_i_glide_lipo>  (250) 
-0.352008

>  <r_i_glide_hbond>  (250) 
-0.149829

>  <r_i_glide_metal>  (250) 
-0

>  <r_i_glide_rewards>  (250) 
-1.51391

>  <r_i_glide_evdw>  (250) 
-23.8525

>  <r_i_glide_ecoul>  (250) 
-3.15829

>  <r_i_glide_erotb>  (250) 
0

>  <r_i_glide_esite>  (250) 
-0.0342286

>  <r_i_glide_emodel>  (250) 
-32.9523

>  <r_i_glide_energy>  (250) 
-27.0108

>  <r_i_glide_einternal>  (250) 
0

>  <r_i_glide_intrahb_reward>  (250) 
-0

>  <i_i_glide_confnum>  (250) 
1

>  <i_i_glide_posenum>  (250) 
1

>  <r_i_glide_eff_state_penalty>  (250) 
0

>  <ligand_id>  (250) 
91

>  <original_smiles>  (250) 
CC12CCC3C(CC=C4CC(=O)CC(=O)C43C)C1CCC2=O

>  <smiles>  (250) 
[H]C1=C2C([H])([H])C(=O)C([H])([H])C(=O)C2(C([H])([H])[H])C2([H])C([H])([H])C([H])([H])C3(C([H])([H])[H])C(=O)C([H])([H])C([H])([H])C3([H])C2([H])C1([H])[H]

$$$$
91:0:1
     RDKit          3D

 46 49  0  0  1  0  0  0  0  0999 V2000
    6.8065   -3.5270    1.0477 C   0  0  0  0  0  0  0  0  0  0  0  0
    5.4675   -3.4186    0.2959 C   0  0  1  0  0  0  0  0  0  0  0  0
    5.0016   -4.7876   -0.2400 C   0  0  0  0  0  0  0  0  0  0  0  0
    4.5010   -5.7200    0.8673 C   0  0  0  0  0  0  0  0  0  0  0  0
    3.3011   -5.1115    1.6331 C   0  0  2  0  0  0  0  0  0  0  0  0
    3.6948   -3.7164    2.1927 C   0  0  2  0  0  0  0  0  0  0  0  0
    2.5352   -3.0244    2.9422 C   0  0  0  0  0  0  0  0  0  0  0  0
    1.5660   -3.9737    3.6183 C   0  0  0  0  0  0  0  0  0  0  0  0
    1.6213   -5.3185    3.5472 C   0  0  0  0  0  0  0  0  0  0  0  0
    0.5670   -6.1761    4.2402 C   0  0  0  0  0  0  0  0  0  0  0  0
   -0.1655   -7.0457    3.2115 C   0  0  0  0  0  0  0  0  0  0  0  0
   -1.3301   -7.3932    3.4030 O   0  0  0  0  0  0  0  0  0  0  0  0
    0.5453   -7.3762    1.8969 C   0  0  0  0  0  0  0  0  0  0  0  0
    2.0643   -7.3196    2.0865 C   0  0  0  0  0  0  0  0  0  0  0  0
    2.7573   -8.2614    1.7078 O   0  0  0  0  0  0  0  0  0  0  0  0
    2.6966   -6.0569    2.7386 C   0  0  1  0  0  0  0  0  0  0  0  0
    3.7616   -6.5311    3.7554 C   0  0  0  0  0  0  0  0  0  0  0  0
    4.3529   -2.7681    1.1428 C   0  0  2  0  0  0  0  0  0  0  0  0
    3.4117   -2.1061    0.1118 C   0  0  0  0  0  0  0  0  0  0  0  0
    4.2978   -1.6254   -1.0430 C   0  0  0  0  0  0  0  0  0  0  0  0
    5.5741   -2.4256   -0.8633 C   0  0  0  0  0  0  0  0  0  0  0  0
    6.5843   -2.2550   -1.5433 O   0  0  0  0  0  0  0  0  0  0  0  0
    6.6925   -4.0518    1.9938 H   0  0  0  0  0  0  0  0  0  0  0  0
    7.2128   -2.5429    1.2759 H   0  0  0  0  0  0  0  0  0  0  0  0
    7.5567   -4.0615    0.4655 H   0  0  0  0  0  0  0  0  0  0  0  0
    4.2124   -4.6632   -0.9826 H   0  0  0  0  0  0  0  0  0  0  0  0
    5.8162   -5.2801   -0.7556 H   0  0  0  0  0  0  0  0  0  0  0  0
    4.2338   -6.6708    0.4079 H   0  0  0  0  0  0  0  0  0  0  0  0
    5.3273   -5.9256    1.5495 H   0  0  0  0  0  0  0  0  0  0  0  0
    2.5149   -4.9434    0.8952 H   0  0  0  0  0  0  0  0  0  0  0  0
    4.4700   -3.9027    2.9377 H   0  0  0  0  0  0  0  0  0  0  0  0
    2.9473   -2.3539    3.6972 H   0  0  0  0  0  0  0  0  0  0  0  0
    1.9364   -2.4108    2.2707 H   0  0  0  0  0  0  0  0  0  0  0  0
    0.7788   -3.4951    4.1833 H   0  0  0  0  0  0  0  0  0  0  0  0
    1.0289   -6.8022    5.0036 H   0  0  0  0  0  0  0  0  0  0  0  0
   -0.1633   -5.5367    4.7343 H   0  0  0  0  0  0  0  0  0  0  0  0
    0.2617   -8.3829    1.5917 H   0  0  0  0  0  0  0  0  0  0  0  0
    0.2331   -6.6948    1.1074 H   0  0  0  0  0  0  0  0  0  0  0  0
    3.3178   -7.1824    4.5109 H   0  0  0  0  0  0  0  0  0  0  0  0
    4.2138   -5.6958    4.2901 H   0  0  0  0  0  0  0  0  0  0  0  0
    4.5632   -7.1022    3.2904 H   0  0  0  0  0  0  0  0  0  0  0  0
    4.8086   -1.9493    1.7028 H   0  0  0  0  0  0  0  0  0  0  0  0
    2.6833   -2.8242   -0.2720 H   0  0  0  0  0  0  0  0  0  0  0  0
    2.8529   -1.2702    0.5384 H   0  0  0  0  0  0  0  0  0  0  0  0
    3.8449   -1.8013   -2.0196 H   0  0  0  0  0  0  0  0  0  0  0  0
    4.5321   -0.5653   -0.9519 H   0  0  0  0  0  0  0  0  0  0  0  0
  2  1  1  1
  1 23  1  0
  1 24  1  0
  1 25  1  0
  2 18  1  0
  2 21  1  0
  2  3  1  0
  3  4  1  0
  3 26  1  0
  3 27  1  0
  4  5  1  0
  4 28  1  0
  4 29  1  0
  5 16  1  0
  5  6  1  0
  5 30  1  6
  6  7  1  0
  6 18  1  0
  6 31  1  1
  7  8  1  0
  7 32  1  0
  7 33  1  0
  8  9  2  0
  8 34  1  0
  9 16  1  0
  9 10  1  0
 10 11  1  0
 10 35  1  0
 10 36  1  0
 11 12  2  0
 11 13  1  0
 13 14  1  0
 13 37  1  0
 13 38  1  0
 14 15  2  0
 14 16  1  0
 16 17  1  1
 17 39  1  0
 17 40  1  0
 17 41  1  0
 18 19  1  0
 18 42  1  1
 19 20  1  0
 19 43  1  0
 19 44  1  0
 20 21  1  0
 20 45  1  0
 20 46  1  0
 21 22  2  0
M  END
>  <i_m_ct_stereo_status>  (251) 
1

>  <s_m_source_file>  (251) 
/var/tmp/pbs.5076255.sched01/tmp3ug8vllb/105tp2mz_hs.sdf

>  <i_m_source_file_index>  (251) 
4

>  <i_lp_mmshare_version>  (251) 
48012

>  <i_f3d_flags>  (251) 
0

>  <s_epik_input>  (251) 
Tz1DMVtDSDJdW0NIMl1bQ0BIXShbQ0BdMTJbQ0gzXSlbQ0BASF0zW0NAQEhdKFtDSDJdW0NIMl0yKVtDQEBdNChbQ0gzXSlDKD1bQ0hdW0NIMl0zKVtDSDJdQyg9TylbQ0gyXUM0PU8=

>  <s_epik_cmdline>  (251) 
J2VwaWtfcHl0aG9uJywgJy1waHQnLCAnMi4wJywgJy1waCcsICc3LjAnLCAnLXRuJywgJzgnLCAnLW1hJywgJzIwMCcsICctaW1hZScsICc8aW5maWxlLm1hZT4nLCAnLW9tYWUnLCAnPG91dGZpbGUubWFlPic=

>  <r_lp_tautomer_probability>  (251) 
0.99995

>  <r_epik_Ionization_Penalty>  (251) 
0.00204128

>  <r_epik_Ionization_Penalty_Charging>  (251) 
0

>  <r_epik_Ionization_Penalty_Neutral>  (251) 
0.00204128

>  <r_epik_State_Penalty>  (251) 
0.00139632

>  <r_epik_Charging_Adjusted_Penalty>  (251) 
0.00139632

>  <i_epik_Tot_Q>  (251) 
0

>  <i_epik_Tot_abs_Q>  (251) 
0

>  <s_lp_Force_Field>  (251) 
OPLS3e

>  <r_lp_Energy>  (251) 
34.9521

>  <b_lp_Chiralities_Consistent>  (251) 
1

>  <s_lp_Variant>  (251) 
91:0-1

>  <s_i_glide_gridfile>  (251) 
pfpi4k_grid

>  <i_i_glide_lignum>  (251) 
4

>  <i_i_glide_rotatable_bonds>  (251) 
0

>  <r_i_docking_score>  (251) 
-3.49023

>  <r_i_glide_ligand_efficiency>  (251) 
-0.158647

>  <r_i_glide_ligand_efficiency_sa>  (251) 
-0.444535

>  <r_i_glide_ligand_efficiency_ln>  (251) 
-0.85314

>  <r_i_glide_gscore>  (251) 
-3.49023

>  <r_i_glide_lipo>  (251) 
-0.232149

>  <r_i_glide_hbond>  (251) 
-0.165999

>  <r_i_glide_metal>  (251) 
-0

>  <r_i_glide_rewards>  (251) 
-1.36096

>  <r_i_glide_evdw>  (251) 
-25.4811

>  <r_i_glide_ecoul>  (251) 
-2.38542

>  <r_i_glide_erotb>  (251) 
0

>  <r_i_glide_esite>  (251) 
-0.0992528

>  <r_i_glide_emodel>  (251) 
-33.3784

>  <r_i_glide_energy>  (251) 
-27.8665

>  <r_i_glide_einternal>  (251) 
0

>  <r_i_glide_intrahb_reward>  (251) 
-0

>  <i_i_glide_confnum>  (251) 
1

>  <i_i_glide_posenum>  (251) 
2

>  <r_i_glide_eff_state_penalty>  (251) 
0

>  <ligand_id>  (251) 
91

>  <original_smiles>  (251) 
CC12CCC3C(CC=C4CC(=O)CC(=O)C43C)C1CCC2=O

>  <smiles>  (251) 
[H]C1=C2C([H])([H])C(=O)C([H])([H])C(=O)C2(C([H])([H])[H])C2([H])C([H])([H])C([H])([H])C3(C([H])([H])[H])C(=O)C([H])([H])C([H])([H])C3([H])C2([H])C1([H])[H]

$$$$
91:0:2
     RDKit          3D

 46 49  0  0  1  0  0  0  0  0999 V2000
    4.4429   -0.1933    4.1493 C   0  0  0  0  0  0  0  0  0  0  0  0
    3.1953   -0.5604    3.3350 C   0  0  1  0  0  0  0  0  0  0  0  0
    3.0989    0.2543    2.0242 C   0  0  0  0  0  0  0  0  0  0  0  0
    4.1333   -0.2053    0.9859 C   0  0  0  0  0  0  0  0  0  0  0  0
    3.9425   -1.6840    0.6020 C   0  0  2  0  0  0  0  0  0  0  0  0
    4.0027   -2.5696    1.8762 C   0  0  2  0  0  0  0  0  0  0  0  0
    3.7995   -4.0687    1.5773 C   0  0  0  0  0  0  0  0  0  0  0  0
    4.2708   -4.5007    0.2010 C   0  0  0  0  0  0  0  0  0  0  0  0
    4.7688   -3.6747   -0.7364 C   0  0  0  0  0  0  0  0  0  0  0  0
    5.1799   -4.2074   -2.0927 C   0  0  0  0  0  0  0  0  0  0  0  0
    4.4118   -3.5176   -3.2081 C   0  0  0  0  0  0  0  0  0  0  0  0
    4.3576   -4.0343   -4.3179 O   0  0  0  0  0  0  0  0  0  0  0  0
    3.7457   -2.1802   -2.9398 C   0  0  0  0  0  0  0  0  0  0  0  0
    4.5844   -1.4804   -1.8827 C   0  0  0  0  0  0  0  0  0  0  0  0
    5.0172   -0.3695   -2.1627 O   0  0  0  0  0  0  0  0  0  0  0  0
    4.9120   -2.1663   -0.5261 C   0  0  1  0  0  0  0  0  0  0  0  0
    6.3980   -1.9183   -0.1719 C   0  0  0  0  0  0  0  0  0  0  0  0
    3.0965   -2.0712    3.0349 C   0  0  2  0  0  0  0  0  0  0  0  0
    1.5803   -2.3609    2.8951 C   0  0  0  0  0  0  0  0  0  0  0  0
    0.8683   -1.4125    3.8721 C   0  0  0  0  0  0  0  0  0  0  0  0
    1.9112   -0.3438    4.1368 C   0  0  0  0  0  0  0  0  0  0  0  0
    1.7425    0.5696    4.9311 O   0  0  0  0  0  0  0  0  0  0  0  0
    5.3573   -0.5361    3.6714 H   0  0  0  0  0  0  0  0  0  0  0  0
    4.4145   -0.6391    5.1423 H   0  0  0  0  0  0  0  0  0  0  0  0
    4.5297    0.8833    4.2839 H   0  0  0  0  0  0  0  0  0  0  0  0
    2.1007    0.1706    1.5858 H   0  0  0  0  0  0  0  0  0  0  0  0
    3.2310    1.3192    2.2317 H   0  0  0  0  0  0  0  0  0  0  0  0
    4.0591    0.4317    0.1109 H   0  0  0  0  0  0  0  0  0  0  0  0
    5.1318   -0.0367    1.3985 H   0  0  0  0  0  0  0  0  0  0  0  0
    2.9306   -1.7794    0.1946 H   0  0  0  0  0  0  0  0  0  0  0  0
    5.0278   -2.4726    2.2496 H   0  0  0  0  0  0  0  0  0  0  0  0
    4.3232   -4.6618    2.3292 H   0  0  0  0  0  0  0  0  0  0  0  0
    2.7448   -4.3443    1.6236 H   0  0  0  0  0  0  0  0  0  0  0  0
    4.1720   -5.5606    0.0000 H   0  0  0  0  0  0  0  0  0  0  0  0
    6.2435   -4.0228   -2.2437 H   0  0  0  0  0  0  0  0  0  0  0  0
    5.0102   -5.2891   -2.1243 H   0  0  0  0  0  0  0  0  0  0  0  0
    3.7965   -1.6006   -3.8582 H   0  0  0  0  0  0  0  0  0  0  0  0
    2.7025   -2.2786   -2.6460 H   0  0  0  0  0  0  0  0  0  0  0  0
    7.0605   -2.2752   -0.9627 H   0  0  0  0  0  0  0  0  0  0  0  0
    6.7012   -2.4472    0.7336 H   0  0  0  0  0  0  0  0  0  0  0  0
    6.6200   -0.8660   -0.0209 H   0  0  0  0  0  0  0  0  0  0  0  0
    3.4180   -2.6006    3.9359 H   0  0  0  0  0  0  0  0  0  0  0  0
    1.2493   -2.1278    1.8809 H   0  0  0  0  0  0  0  0  0  0  0  0
    1.3336   -3.3993    3.1114 H   0  0  0  0  0  0  0  0  0  0  0  0
   -0.0392   -0.9827    3.4514 H   0  0  0  0  0  0  0  0  0  0  0  0
    0.6250   -1.9104    4.8087 H   0  0  0  0  0  0  0  0  0  0  0  0
  2  1  1  1
  1 23  1  0
  1 24  1  0
  1 25  1  0
  2 18  1  0
  2 21  1  0
  2  3  1  0
  3  4  1  0
  3 26  1  0
  3 27  1  0
  4  5  1  0
  4 28  1  0
  4 29  1  0
  5 16  1  0
  5  6  1  0
  5 30  1  6
  6  7  1  0
  6 18  1  0
  6 31  1  1
  7  8  1  0
  7 32  1  0
  7 33  1  0
  8  9  2  0
  8 34  1  0
  9 16  1  0
  9 10  1  0
 10 11  1  0
 10 35  1  0
 10 36  1  0
 11 12  2  0
 11 13  1  0
 13 14  1  0
 13 37  1  0
 13 38  1  0
 14 15  2  0
 14 16  1  0
 16 17  1  1
 17 39  1  0
 17 40  1  0
 17 41  1  0
 18 19  1  0
 18 42  1  1
 19 20  1  0
 19 43  1  0
 19 44  1  0
 20 21  1  0
 20 45  1  0
 20 46  1  0
 21 22  2  0
M  END
>  <i_m_ct_stereo_status>  (252) 
1

>  <s_m_source_file>  (252) 
/var/tmp/pbs.5076255.sched01/tmp3ug8vllb/105tp2mz_hs.sdf

>  <i_m_source_file_index>  (252) 
4

>  <i_lp_mmshare_version>  (252) 
48012

>  <i_f3d_flags>  (252) 
0

>  <s_epik_input>  (252) 
Tz1DMVtDSDJdW0NIMl1bQ0BIXShbQ0BdMTJbQ0gzXSlbQ0BASF0zW0NAQEhdKFtDSDJdW0NIMl0yKVtDQEBdNChbQ0gzXSlDKD1bQ0hdW0NIMl0zKVtDSDJdQyg9TylbQ0gyXUM0PU8=

>  <s_epik_cmdline>  (252) 
J2VwaWtfcHl0aG9uJywgJy1waHQnLCAnMi4wJywgJy1waCcsICc3LjAnLCAnLXRuJywgJzgnLCAnLW1hJywgJzIwMCcsICctaW1hZScsICc8aW5maWxlLm1hZT4nLCAnLW9tYWUnLCAnPG91dGZpbGUubWFlPic=

>  <r_lp_tautomer_probability>  (252) 
0.99995

>  <r_epik_Ionization_Penalty>  (252) 
0.00204128

>  <r_epik_Ionization_Penalty_Charging>  (252) 
0

>  <r_epik_Ionization_Penalty_Neutral>  (252) 
0.00204128

>  <r_epik_State_Penalty>  (252) 
0.00139632

>  <r_epik_Charging_Adjusted_Penalty>  (252) 
0.00139632

>  <i_epik_Tot_Q>  (252) 
0

>  <i_epik_Tot_abs_Q>  (252) 
0

>  <s_lp_Force_Field>  (252) 
OPLS3e

>  <r_lp_Energy>  (252) 
34.9521

>  <b_lp_Chiralities_Consistent>  (252) 
1

>  <s_lp_Variant>  (252) 
91:0-1

>  <s_i_glide_gridfile>  (252) 
pfpi4k_grid

>  <i_i_glide_lignum>  (252) 
4

>  <i_i_glide_rotatable_bonds>  (252) 
0

>  <r_i_docking_score>  (252) 
-3.47174

>  <r_i_glide_ligand_efficiency>  (252) 
-0.157806

>  <r_i_glide_ligand_efficiency_sa>  (252) 
-0.442179

>  <r_i_glide_ligand_efficiency_ln>  (252) 
-0.848619

>  <r_i_glide_gscore>  (252) 
-3.47174

>  <r_i_glide_lipo>  (252) 
-0.318506

>  <r_i_glide_hbond>  (252) 
-0.00524567

>  <r_i_glide_metal>  (252) 
-0

>  <r_i_glide_rewards>  (252) 
-1.46244

>  <r_i_glide_evdw>  (252) 
-23.3875

>  <r_i_glide_ecoul>  (252) 
-3.15842

>  <r_i_glide_erotb>  (252) 
0

>  <r_i_glide_esite>  (252) 
-0.0424063

>  <r_i_glide_emodel>  (252) 
-31.9725

>  <r_i_glide_energy>  (252) 
-26.5459

>  <r_i_glide_einternal>  (252) 
0

>  <r_i_glide_intrahb_reward>  (252) 
-0

>  <i_i_glide_confnum>  (252) 
1

>  <i_i_glide_posenum>  (252) 
11

>  <r_i_glide_eff_state_penalty>  (252) 
0

>  <ligand_id>  (252) 
91

>  <original_smiles>  (252) 
CC12CCC3C(CC=C4CC(=O)CC(=O)C43C)C1CCC2=O

>  <smiles>  (252) 
[H]C1=C2C([H])([H])C(=O)C([H])([H])C(=O)C2(C([H])([H])[H])C2([H])C([H])([H])C([H])([H])C3(C([H])([H])[H])C(=O)C([H])([H])C([H])([H])C3([H])C2([H])C1([H])[H]

$$$$
92:0:0
     RDKit          3D

 35 38  0  0  1  0  0  0  0  0999 V2000
    0.8123   -6.3230    0.6699 O   0  0  0  0  0  0  0  0  0  0  0  0
    1.8249   -5.9173    1.2362 C   0  0  0  0  0  0  0  0  0  0  0  0
    3.1374   -6.1111    0.9093 N   0  0  0  0  0  0  0  0  0  0  0  0
    4.0355   -5.2647    1.6552 C   0  0  1  0  0  0  0  0  0  0  0  0
    4.6042   -4.0639    0.8210 C   0  0  1  0  0  0  0  0  0  0  0  0
    5.5780   -3.2231    1.7011 C   0  0  0  0  0  0  0  0  0  0  0  0
    6.1855   -2.0597    0.8944 C   0  0  2  0  0  0  0  0  0  0  0  0
    5.0566   -1.1400    0.3916 C   0  0  0  0  0  0  0  0  0  0  0  0
    4.1151   -1.9451   -0.5257 C   0  0  1  0  0  0  0  0  0  0  0  0
    4.9098   -2.5025   -1.7218 C   0  0  0  0  0  0  0  0  0  0  0  0
    6.0223   -3.4266   -1.1982 C   0  0  1  0  0  0  0  0  0  0  0  0
    6.9851   -2.6401   -0.2903 C   0  0  0  0  0  0  0  0  0  0  0  0
    5.4133   -4.5976   -0.3985 C   0  0  0  0  0  0  0  0  0  0  0  0
    3.4920   -3.1121    0.2670 C   0  0  0  0  0  0  0  0  0  0  0  0
    3.1146   -4.8240    2.8125 C   0  0  0  0  0  0  0  0  0  0  0  0
    1.8166   -5.1033    2.3117 O   0  0  0  0  0  0  0  0  0  0  0  0
    3.3970   -6.7547    0.1481 H   0  0  0  0  0  0  0  0  0  0  0  0
    4.8424   -5.8749    2.0598 H   0  0  0  0  0  0  0  0  0  0  0  0
    5.0721   -2.8081    2.5786 H   0  0  0  0  0  0  0  0  0  0  0  0
    6.3794   -3.8609    2.0786 H   0  0  0  0  0  0  0  0  0  0  0  0
    6.8526   -1.4878    1.5386 H   0  0  0  0  0  0  0  0  0  0  0  0
    4.4930   -0.7391    1.2358 H   0  0  0  0  0  0  0  0  0  0  0  0
    5.4696   -0.2774   -0.1345 H   0  0  0  0  0  0  0  0  0  0  0  0
    3.3229   -1.2938   -0.8913 H   0  0  0  0  0  0  0  0  0  0  0  0
    4.2437   -3.0594   -2.3842 H   0  0  0  0  0  0  0  0  0  0  0  0
    5.3313   -1.6884   -2.3158 H   0  0  0  0  0  0  0  0  0  0  0  0
    6.5819   -3.8171   -2.0481 H   0  0  0  0  0  0  0  0  0  0  0  0
    7.4736   -1.8571   -0.8607 H   0  0  0  0  0  0  0  0  0  0  0  0
    7.7767   -3.2930    0.0812 H   0  0  0  0  0  0  0  0  0  0  0  0
    6.1985   -5.2689   -0.0563 H   0  0  0  0  0  0  0  0  0  0  0  0
    4.7664   -5.1813   -1.0638 H   0  0  0  0  0  0  0  0  0  0  0  0
    2.8030   -3.6440   -0.3928 H   0  0  0  0  0  0  0  0  0  0  0  0
    2.8824   -2.6856    1.0678 H   0  0  0  0  0  0  0  0  0  0  0  0
    3.2786   -5.4055    3.7209 H   0  0  0  0  0  0  0  0  0  0  0  0
    3.2000   -3.7667    3.0666 H   0  0  0  0  0  0  0  0  0  0  0  0
  1  2  2  0
  2 16  1  0
  2  3  1  0
  3  4  1  0
  3 17  1  0
  4  5  1  0
  4 15  1  0
  4 18  1  1
  5 13  1  6
  5 14  1  0
  5  6  1  0
  6  7  1  0
  6 19  1  0
  6 20  1  0
  7 12  1  0
  7  8  1  0
  7 21  1  1
  8  9  1  0
  8 22  1  0
  8 23  1  0
  9 10  1  0
  9 14  1  0
  9 24  1  6
 10 11  1  0
 10 25  1  0
 10 26  1  0
 11 12  1  0
 11 13  1  0
 11 27  1  6
 12 28  1  0
 12 29  1  0
 13 30  1  0
 13 31  1  0
 14 32  1  0
 14 33  1  0
 15 16  1  0
 15 34  1  0
 15 35  1  0
M  END
>  <i_m_ct_stereo_status>  (253) 
1

>  <s_m_source_file>  (253) 
/var/tmp/pbs.5076255.sched01/tmp3ug8vllb/105tp2mz_hs.sdf

>  <i_m_source_file_index>  (253) 
5

>  <i_lp_mmshare_version>  (253) 
48012

>  <i_f3d_flags>  (253) 
0

>  <s_epik_input>  (253) 
Tz1DMVtOSF1bQ0BIXShbQ0gyXU8xKUMyM1tDSDJdW0NASF00W0NIMl1bQ0BASF0oW0NIMl0zKVtDSDJdW0NASF0oW0NIMl00KVtDSDJdMg==

>  <s_epik_cmdline>  (253) 
J2VwaWtfcHl0aG9uJywgJy1waHQnLCAnMi4wJywgJy1waCcsICc3LjAnLCAnLXRuJywgJzgnLCAnLW1hJywgJzIwMCcsICctaW1hZScsICc8aW5maWxlLm1hZT4nLCAnLW9tYWUnLCAnPG91dGZpbGUubWFlPic=

>  <r_lp_tautomer_probability>  (253) 
1

>  <r_epik_Ionization_Penalty>  (253) 
0.000120985

>  <r_epik_Ionization_Penalty_Charging>  (253) 
0

>  <r_epik_Ionization_Penalty_Neutral>  (253) 
0.000120985

>  <r_epik_State_Penalty>  (253) 
-0

>  <r_epik_Charging_Adjusted_Penalty>  (253) 
0

>  <i_epik_Tot_Q>  (253) 
0

>  <i_epik_Tot_abs_Q>  (253) 
0

>  <s_epik_Chemistry_Notes>  (253) 
This compound has an ester and may undergo hydrolysis at high or low pH.

>  <s_lp_Force_Field>  (253) 
OPLS3e

>  <r_lp_Energy>  (253) 
-9.95729

>  <b_lp_Chiralities_Consistent>  (253) 
1

>  <s_lp_Variant>  (253) 
92:0-1

>  <s_i_glide_gridfile>  (253) 
pfpi4k_grid

>  <i_i_glide_lignum>  (253) 
5

>  <i_i_glide_rotatable_bonds>  (253) 
1

>  <r_i_docking_score>  (253) 
-3.66781

>  <r_i_glide_ligand_efficiency>  (253) 
-0.229238

>  <r_i_glide_ligand_efficiency_sa>  (253) 
-0.577643

>  <r_i_glide_ligand_efficiency_ln>  (253) 
-0.972225

>  <r_i_glide_gscore>  (253) 
-3.66781

>  <r_i_glide_lipo>  (253) 
-0.451005

>  <r_i_glide_hbond>  (253) 
-0.16

>  <r_i_glide_metal>  (253) 
-0

>  <r_i_glide_rewards>  (253) 
-1.90026

>  <r_i_glide_evdw>  (253) 
-19.8427

>  <r_i_glide_ecoul>  (253) 
-2.99678

>  <r_i_glide_erotb>  (253) 
0.344579

>  <r_i_glide_esite>  (253) 
-0.059467

>  <r_i_glide_emodel>  (253) 
-28.3151

>  <r_i_glide_energy>  (253) 
-22.8395

>  <r_i_glide_einternal>  (253) 
0.00439962

>  <r_i_glide_intrahb_reward>  (253) 
-0

>  <i_i_glide_confnum>  (253) 
6

>  <i_i_glide_posenum>  (253) 
37

>  <r_i_glide_eff_state_penalty>  (253) 
0

>  <ligand_id>  (253) 
92

>  <original_smiles>  (253) 
O=C1NC(C23CC4CC(CC(C4)C2)C3)CO1

>  <smiles>  (253) 
[H]N1C(=O)OC([H])([H])C1([H])C12C([H])([H])C3([H])C([H])([H])C([H])(C([H])([H])C([H])(C3([H])[H])C1([H])[H])C2([H])[H]

$$$$
92:0:1
     RDKit          3D

 35 38  0  0  1  0  0  0  0  0999 V2000
    4.4637   -2.3190    5.0513 O   0  0  0  0  0  0  0  0  0  0  0  0
    4.3993   -3.0845    4.1220 C   0  0  0  0  0  0  0  0  0  0  0  0
    3.4962   -3.0957    3.0846 N   0  0  0  0  0  0  0  0  0  0  0  0
    3.7989   -4.0458    2.0530 C   0  0  1  0  0  0  0  0  0  0  0  0
    4.3626   -3.3822    0.7465 C   0  0  1  0  0  0  0  0  0  0  0  0
    4.6720   -4.4774   -0.3233 C   0  0  0  0  0  0  0  0  0  0  0  0
    5.1923   -3.8465   -1.6313 C   0  0  2  0  0  0  0  0  0  0  0  0
    6.4842   -3.0595   -1.3472 C   0  0  0  0  0  0  0  0  0  0  0  0
    6.1706   -1.9338   -0.3400 C   0  0  1  0  0  0  0  0  0  0  0  0
    5.0904   -1.0070   -0.9244 C   0  0  0  0  0  0  0  0  0  0  0  0
    3.8145   -1.8102   -1.1978 C   0  0  1  0  0  0  0  0  0  0  0  0
    4.1125   -2.9214   -2.2184 C   0  0  0  0  0  0  0  0  0  0  0  0
    3.2947   -2.4285    0.1210 C   0  0  0  0  0  0  0  0  0  0  0  0
    5.6595   -2.5446    0.9779 C   0  0  0  0  0  0  0  0  0  0  0  0
    4.8355   -4.9304    2.7755 C   0  0  0  0  0  0  0  0  0  0  0  0
    5.2360   -4.1085    3.8592 O   0  0  0  0  0  0  0  0  0  0  0  0
    2.7340   -2.4150    3.0846 H   0  0  0  0  0  0  0  0  0  0  0  0
    2.9056   -4.6373    1.8271 H   0  0  0  0  0  0  0  0  0  0  0  0
    5.4295   -5.1842    0.0253 H   0  0  0  0  0  0  0  0  0  0  0  0
    3.7774   -5.0633   -0.5375 H   0  0  0  0  0  0  0  0  0  0  0  0
    5.3983   -4.6425   -2.3511 H   0  0  0  0  0  0  0  0  0  0  0  0
    7.2499   -3.7152   -0.9366 H   0  0  0  0  0  0  0  0  0  0  0  0
    6.8832   -2.6525   -2.2726 H   0  0  0  0  0  0  0  0  0  0  0  0
    7.0708   -1.3650   -0.1280 H   0  0  0  0  0  0  0  0  0  0  0  0
    4.8706   -0.2072   -0.2149 H   0  0  0  0  0  0  0  0  0  0  0  0
    5.4315   -0.5367   -1.8436 H   0  0  0  0  0  0  0  0  0  0  0  0
    3.0528   -1.1440   -1.6103 H   0  0  0  0  0  0  0  0  0  0  0  0
    4.4476   -2.4888   -3.1587 H   0  0  0  0  0  0  0  0  0  0  0  0
    3.2051   -3.4874   -2.4273 H   0  0  0  0  0  0  0  0  0  0  0  0
    2.3668   -2.9640   -0.0763 H   0  0  0  0  0  0  0  0  0  0  0  0
    3.0464   -1.6154    0.8070 H   0  0  0  0  0  0  0  0  0  0  0  0
    5.4842   -1.7290    1.6841 H   0  0  0  0  0  0  0  0  0  0  0  0
    6.4606   -3.1491    1.4094 H   0  0  0  0  0  0  0  0  0  0  0  0
    4.3882   -5.8507    3.1573 H   0  0  0  0  0  0  0  0  0  0  0  0
    5.6850   -5.2127    2.1582 H   0  0  0  0  0  0  0  0  0  0  0  0
  1  2  2  0
  2 16  1  0
  2  3  1  0
  3  4  1  0
  3 17  1  0
  4  5  1  0
  4 15  1  0
  4 18  1  6
  5 13  1  6
  5 14  1  0
  5  6  1  0
  6  7  1  0
  6 19  1  0
  6 20  1  0
  7 12  1  0
  7  8  1  0
  7 21  1  6
  8  9  1  0
  8 22  1  0
  8 23  1  0
  9 10  1  0
  9 14  1  0
  9 24  1  1
 10 11  1  0
 10 25  1  0
 10 26  1  0
 11 12  1  0
 11 13  1  0
 11 27  1  6
 12 28  1  0
 12 29  1  0
 13 30  1  0
 13 31  1  0
 14 32  1  0
 14 33  1  0
 15 16  1  0
 15 34  1  0
 15 35  1  0
M  END
>  <i_m_ct_stereo_status>  (254) 
1

>  <s_m_source_file>  (254) 
/var/tmp/pbs.5076255.sched01/tmp3ug8vllb/105tp2mz_hs.sdf

>  <i_m_source_file_index>  (254) 
5

>  <i_lp_mmshare_version>  (254) 
48012

>  <i_f3d_flags>  (254) 
0

>  <s_epik_input>  (254) 
Tz1DMVtOSF1bQ0BIXShbQ0gyXU8xKUMyM1tDSDJdW0NASF00W0NIMl1bQ0BASF0oW0NIMl0zKVtDSDJdW0NASF0oW0NIMl00KVtDSDJdMg==

>  <s_epik_cmdline>  (254) 
J2VwaWtfcHl0aG9uJywgJy1waHQnLCAnMi4wJywgJy1waCcsICc3LjAnLCAnLXRuJywgJzgnLCAnLW1hJywgJzIwMCcsICctaW1hZScsICc8aW5maWxlLm1hZT4nLCAnLW9tYWUnLCAnPG91dGZpbGUubWFlPic=

>  <r_lp_tautomer_probability>  (254) 
1

>  <r_epik_Ionization_Penalty>  (254) 
0.000120985

>  <r_epik_Ionization_Penalty_Charging>  (254) 
0

>  <r_epik_Ionization_Penalty_Neutral>  (254) 
0.000120985

>  <r_epik_State_Penalty>  (254) 
-0

>  <r_epik_Charging_Adjusted_Penalty>  (254) 
0

>  <i_epik_Tot_Q>  (254) 
0

>  <i_epik_Tot_abs_Q>  (254) 
0

>  <s_epik_Chemistry_Notes>  (254) 
This compound has an ester and may undergo hydrolysis at high or low pH.

>  <s_lp_Force_Field>  (254) 
OPLS3e

>  <r_lp_Energy>  (254) 
-9.95729

>  <b_lp_Chiralities_Consistent>  (254) 
1

>  <s_lp_Variant>  (254) 
92:0-1

>  <s_i_glide_gridfile>  (254) 
pfpi4k_grid

>  <i_i_glide_lignum>  (254) 
5

>  <i_i_glide_rotatable_bonds>  (254) 
1

>  <r_i_docking_score>  (254) 
-2.80361

>  <r_i_glide_ligand_efficiency>  (254) 
-0.175226

>  <r_i_glide_ligand_efficiency_sa>  (254) 
-0.441541

>  <r_i_glide_ligand_efficiency_ln>  (254) 
-0.743153

>  <r_i_glide_gscore>  (254) 
-2.80361

>  <r_i_glide_lipo>  (254) 
-0.151567

>  <r_i_glide_hbond>  (254) 
0

>  <r_i_glide_metal>  (254) 
-0

>  <r_i_glide_rewards>  (254) 
-1.91731

>  <r_i_glide_evdw>  (254) 
-17.9099

>  <r_i_glide_ecoul>  (254) 
-1.22549

>  <r_i_glide_erotb>  (254) 
0.344579

>  <r_i_glide_esite>  (254) 
0

>  <r_i_glide_emodel>  (254) 
-23.2843

>  <r_i_glide_energy>  (254) 
-19.1353

>  <r_i_glide_einternal>  (254) 
0.00608852

>  <r_i_glide_intrahb_reward>  (254) 
-0

>  <i_i_glide_confnum>  (254) 
1

>  <i_i_glide_posenum>  (254) 
1

>  <r_i_glide_eff_state_penalty>  (254) 
0

>  <ligand_id>  (254) 
92

>  <original_smiles>  (254) 
O=C1NC(C23CC4CC(CC(C4)C2)C3)CO1

>  <smiles>  (254) 
[H]N1C(=O)OC([H])([H])C1([H])C12C([H])([H])C3([H])C([H])([H])C([H])(C([H])([H])C([H])(C3([H])[H])C1([H])[H])C2([H])[H]

$$$$
92:0:2
     RDKit          3D

 35 38  0  0  1  0  0  0  0  0999 V2000
    2.8490   -3.6700    3.4892 O   0  0  0  0  0  0  0  0  0  0  0  0
    3.1446   -4.1490    2.3911 C   0  0  0  0  0  0  0  0  0  0  0  0
    2.6019   -3.8379    1.1972 N   0  0  0  0  0  0  0  0  0  0  0  0
    3.2715   -4.4531    0.0677 C   0  0  1  0  0  0  0  0  0  0  0  0
    4.1468   -3.4255   -0.7316 C   0  0  1  0  0  0  0  0  0  0  0  0
    5.1826   -2.6527    0.1450 C   0  0  0  0  0  0  0  0  0  0  0  0
    6.0151   -1.6998   -0.7130 C   0  0  2  0  0  0  0  0  0  0  0  0
    5.0515   -0.7032   -1.4069 C   0  0  0  0  0  0  0  0  0  0  0  0
    4.0412   -1.4216   -2.2907 C   0  0  1  0  0  0  0  0  0  0  0  0
    4.7567   -2.2040   -3.3890 C   0  0  0  0  0  0  0  0  0  0  0  0
    5.7617   -3.1649   -2.7150 C   0  0  1  0  0  0  0  0  0  0  0  0
    6.7841   -2.5058   -1.7665 C   0  0  0  0  0  0  0  0  0  0  0  0
    4.9087   -4.1426   -1.8919 C   0  0  0  0  0  0  0  0  0  0  0  0
    3.2181   -2.3953   -1.4351 C   0  0  0  0  0  0  0  0  0  0  0  0
    4.1192   -5.5165    0.8037 C   0  0  0  0  0  0  0  0  0  0  0  0
    4.1083   -5.0472    2.1453 O   0  0  0  0  0  0  0  0  0  0  0  0
    1.8934   -3.1142    1.1564 H   0  0  0  0  0  0  0  0  0  0  0  0
    2.5433   -4.9249   -0.5994 H   0  0  0  0  0  0  0  0  0  0  0  0
    4.7058   -2.0542    0.9286 H   0  0  0  0  0  0  0  0  0  0  0  0
    5.8780   -3.3317    0.6440 H   0  0  0  0  0  0  0  0  0  0  0  0
    6.7142   -1.1607   -0.0834 H   0  0  0  0  0  0  0  0  0  0  0  0
    4.5314   -0.1291   -0.6398 H   0  0  0  0  0  0  0  0  0  0  0  0
    5.6140   -0.0156   -2.0297 H   0  0  0  0  0  0  0  0  0  0  0  0
    3.3782   -0.6870   -2.7659 H   0  0  0  0  0  0  0  0  0  0  0  0
    4.0537   -2.7624   -4.0038 H   0  0  0  0  0  0  0  0  0  0  0  0
    5.2088   -1.4992   -4.0541 H   0  0  0  0  0  0  0  0  0  0  0  0
    6.2921   -3.7200   -3.4878 H   0  0  0  0  0  0  0  0  0  0  0  0
    7.4893   -1.8578   -2.2933 H   0  0  0  0  0  0  0  0  0  0  0  0
    7.4170   -3.2625   -1.2976 H   0  0  0  0  0  0  0  0  0  0  0  0
    5.5551   -4.9278   -1.5034 H   0  0  0  0  0  0  0  0  0  0  0  0
    4.2174   -4.5898   -2.5820 H   0  0  0  0  0  0  0  0  0  0  0  0
    2.5009   -2.8900   -2.0857 H   0  0  0  0  0  0  0  0  0  0  0  0
    2.6658   -1.8232   -0.6964 H   0  0  0  0  0  0  0  0  0  0  0  0
    3.6434   -6.4984    0.7334 H   0  0  0  0  0  0  0  0  0  0  0  0
    5.1352   -5.6262    0.4389 H   0  0  0  0  0  0  0  0  0  0  0  0
  1  2  2  0
  2 16  1  0
  2  3  1  0
  3  4  1  0
  3 17  1  0
  4  5  1  0
  4 15  1  0
  4 18  1  6
  5 13  1  6
  5 14  1  0
  5  6  1  0
  6  7  1  0
  6 19  1  0
  6 20  1  0
  7 12  1  0
  7  8  1  0
  7 21  1  1
  8  9  1  0
  8 22  1  0
  8 23  1  0
  9 10  1  0
  9 14  1  0
  9 24  1  6
 10 11  1  0
 10 25  1  0
 10 26  1  0
 11 12  1  0
 11 13  1  0
 11 27  1  6
 12 28  1  0
 12 29  1  0
 13 30  1  0
 13 31  1  0
 14 32  1  0
 14 33  1  0
 15 16  1  0
 15 34  1  0
 15 35  1  0
M  END
>  <i_m_ct_stereo_status>  (255) 
1

>  <s_m_source_file>  (255) 
/var/tmp/pbs.5076255.sched01/tmp3ug8vllb/105tp2mz_hs.sdf

>  <i_m_source_file_index>  (255) 
5

>  <i_lp_mmshare_version>  (255) 
48012

>  <i_f3d_flags>  (255) 
0

>  <s_epik_input>  (255) 
Tz1DMVtOSF1bQ0BIXShbQ0gyXU8xKUMyM1tDSDJdW0NASF00W0NIMl1bQ0BASF0oW0NIMl0zKVtDSDJdW0NASF0oW0NIMl00KVtDSDJdMg==

>  <s_epik_cmdline>  (255) 
J2VwaWtfcHl0aG9uJywgJy1waHQnLCAnMi4wJywgJy1waCcsICc3LjAnLCAnLXRuJywgJzgnLCAnLW1hJywgJzIwMCcsICctaW1hZScsICc8aW5maWxlLm1hZT4nLCAnLW9tYWUnLCAnPG91dGZpbGUubWFlPic=

>  <r_lp_tautomer_probability>  (255) 
1

>  <r_epik_Ionization_Penalty>  (255) 
0.000120985

>  <r_epik_Ionization_Penalty_Charging>  (255) 
0

>  <r_epik_Ionization_Penalty_Neutral>  (255) 
0.000120985

>  <r_epik_State_Penalty>  (255) 
-0

>  <r_epik_Charging_Adjusted_Penalty>  (255) 
0

>  <i_epik_Tot_Q>  (255) 
0

>  <i_epik_Tot_abs_Q>  (255) 
0

>  <s_epik_Chemistry_Notes>  (255) 
This compound has an ester and may undergo hydrolysis at high or low pH.

>  <s_lp_Force_Field>  (255) 
OPLS3e

>  <r_lp_Energy>  (255) 
-9.95729

>  <b_lp_Chiralities_Consistent>  (255) 
1

>  <s_lp_Variant>  (255) 
92:0-1

>  <s_i_glide_gridfile>  (255) 
pfpi4k_grid

>  <i_i_glide_lignum>  (255) 
5

>  <i_i_glide_rotatable_bonds>  (255) 
1

>  <r_i_docking_score>  (255) 
-2.68021

>  <r_i_glide_ligand_efficiency>  (255) 
-0.167513

>  <r_i_glide_ligand_efficiency_sa>  (255) 
-0.422107

>  <r_i_glide_ligand_efficiency_ln>  (255) 
-0.710444

>  <r_i_glide_gscore>  (255) 
-2.68021

>  <r_i_glide_lipo>  (255) 
-0.365706

>  <r_i_glide_hbond>  (255) 
0

>  <r_i_glide_metal>  (255) 
-0

>  <r_i_glide_rewards>  (255) 
-1.90028

>  <r_i_glide_evdw>  (255) 
-9.35773

>  <r_i_glide_ecoul>  (255) 
-1.82573

>  <r_i_glide_erotb>  (255) 
0.344579

>  <r_i_glide_esite>  (255) 
-0.0170591

>  <r_i_glide_emodel>  (255) 
-14.6917

>  <r_i_glide_energy>  (255) 
-11.1835

>  <r_i_glide_einternal>  (255) 
0.201929

>  <r_i_glide_intrahb_reward>  (255) 
-0

>  <i_i_glide_confnum>  (255) 
6

>  <i_i_glide_posenum>  (255) 
4

>  <r_i_glide_eff_state_penalty>  (255) 
0

>  <ligand_id>  (255) 
92

>  <original_smiles>  (255) 
O=C1NC(C23CC4CC(CC(C4)C2)C3)CO1

>  <smiles>  (255) 
[H]N1C(=O)OC([H])([H])C1([H])C12C([H])([H])C3([H])C([H])([H])C([H])(C([H])([H])C([H])(C3([H])[H])C1([H])[H])C2([H])[H]

$$$$
93:0:0
     RDKit          3D

 77 83  0  0  1  0  0  0  0  0999 V2000
    4.7161    6.9690    4.5232 C   0  0  0  0  0  0  0  0  0  0  0  0
    3.6563    7.0657    5.6716 C   0  0  2  0  0  0  0  0  0  0  0  0
    4.2906    6.2143    6.9680 C   0  0  1  0  0  0  0  0  0  0  0  0
    4.0977    7.0266    8.1067 O   0  0  0  0  0  0  0  0  0  0  0  0
    4.0783    4.6158    7.3716 C   0  0  1  0  0  0  0  0  0  0  0  0
    5.0522    4.2875    8.3399 O   0  0  0  0  0  0  0  0  0  0  0  0
    2.6171    4.0034    7.8183 C   0  0  1  0  0  0  0  0  0  0  0  0
    2.3106    4.3441    9.3359 C   0  0  0  0  0  0  0  0  0  0  0  0
    1.7242    5.7596    9.6838 C   0  0  0  0  0  0  0  0  0  0  0  0
    0.7450    6.4037    8.6465 C   0  0  1  0  0  0  0  0  0  0  0  0
    1.2818    7.6461    8.2746 O   0  0  0  0  0  0  0  0  0  0  0  0
    0.4517    5.3612    7.4942 C   0  0  1  0  0  0  0  0  0  0  0  0
   -0.5443    4.4497    8.2995 C   0  0  0  0  0  0  0  0  0  0  0  0
   -0.1702    5.7506    6.1439 C   0  0  2  0  0  0  0  0  0  0  0  0
   -0.7072    4.4646    5.7220 O   0  0  0  0  0  0  0  0  0  0  0  0
    0.2158    3.5512    5.0734 C   0  0  2  0  0  0  0  0  0  0  0  0
    1.1716    4.6719    4.5464 C   0  0  2  0  0  0  0  0  0  0  0  0
    2.2777    4.5241    5.4390 C   0  0  0  0  0  0  0  0  0  0  0  0
    1.8221    4.8280    6.9586 C   0  0  2  0  0  0  0  0  0  0  0  0
    0.8047    6.1169    4.9577 C   0  0  2  0  0  0  0  0  0  0  0  0
    2.0504    7.2260    5.0923 C   0  0  1  0  0  0  0  0  0  0  0  0
    1.4710    8.6008    5.5133 C   0  0  0  0  0  0  0  0  0  0  0  0
    2.2150    7.4396    3.6920 O   0  0  0  0  0  0  0  0  0  0  0  0
   -0.6753    2.8707    3.9411 C   0  0  1  0  0  0  0  0  0  0  0  0
   -1.7091    3.8309    3.3009 C   0  0  0  0  0  0  0  0  0  0  0  0
    0.1180    2.5150    2.8283 O   0  0  0  0  0  0  0  0  0  0  0  0
   -1.4585    1.5845    4.4060 C   0  0  0  0  0  0  0  0  0  0  0  0
   -0.8012    0.5738    5.3963 C   0  0  0  0  0  0  0  0  0  0  0  0
   -0.0867    1.3583    6.5160 C   0  0  1  0  0  0  0  0  0  0  0  0
   -1.1485    1.9471    7.2209 O   0  0  0  0  0  0  0  0  0  0  0  0
    0.6539    0.5553    7.3825 O   0  0  0  0  0  0  0  0  0  0  0  0
    1.5162    1.4073    8.1766 C   0  0  0  0  0  0  0  0  0  0  0  0
    2.0187    2.5532    7.2444 C   0  0  1  0  0  0  0  0  0  0  0  0
    0.9859    2.3424    5.9549 C   0  0  2  0  0  0  0  0  0  0  0  0
    1.8651    1.4072    4.9968 C   0  0  0  0  0  0  0  0  0  0  0  0
    4.6459    6.0422    3.9564 H   0  0  0  0  0  0  0  0  0  0  0  0
    5.7366    7.0435    4.8993 H   0  0  0  0  0  0  0  0  0  0  0  0
    4.6312    7.7919    3.8119 H   0  0  0  0  0  0  0  0  0  0  0  0
    3.8779    8.0894    5.9792 H   0  0  0  0  0  0  0  0  0  0  0  0
    5.3715    6.2815    6.8494 H   0  0  0  0  0  0  0  0  0  0  0  0
    3.1631    7.0850    8.2699 H   0  0  0  0  0  0  0  0  0  0  0  0
    4.4649    4.0398    6.5325 H   0  0  0  0  0  0  0  0  0  0  0  0
    5.0587    3.3500    8.4529 H   0  0  0  0  0  0  0  0  0  0  0  0
    1.6299    3.6175    9.7658 H   0  0  0  0  0  0  0  0  0  0  0  0
    3.1998    4.1960    9.9467 H   0  0  0  0  0  0  0  0  0  0  0  0
    1.1990    5.6728   10.6348 H   0  0  0  0  0  0  0  0  0  0  0  0
    2.5363    6.4433    9.9230 H   0  0  0  0  0  0  0  0  0  0  0  0
   -0.1744    6.7267    9.1420 H   0  0  0  0  0  0  0  0  0  0  0  0
    1.1963    8.2401    9.0079 H   0  0  0  0  0  0  0  0  0  0  0  0
   -1.5183    4.3112    7.8317 H   0  0  0  0  0  0  0  0  0  0  0  0
   -0.8431    4.8137    9.2817 H   0  0  0  0  0  0  0  0  0  0  0  0
   -0.0952    3.5142    8.5666 H   0  0  0  0  0  0  0  0  0  0  0  0
   -0.9640    6.4836    6.2805 H   0  0  0  0  0  0  0  0  0  0  0  0
    1.4842    4.5687    3.5080 H   0  0  0  0  0  0  0  0  0  0  0  0
    2.8393    3.6338    5.2749 H   0  0  0  0  0  0  0  0  0  0  0  0
    3.0946    5.0254    4.9865 H   0  0  0  0  0  0  0  0  0  0  0  0
    2.1482    5.8117    7.0620 H   0  0  0  0  0  0  0  0  0  0  0  0
    0.1355    6.4850    4.1800 H   0  0  0  0  0  0  0  0  0  0  0  0
    1.9751    9.0232    6.3832 H   0  0  0  0  0  0  0  0  0  0  0  0
    0.4106    8.5394    5.7560 H   0  0  0  0  0  0  0  0  0  0  0  0
    1.5703    9.3678    4.7428 H   0  0  0  0  0  0  0  0  0  0  0  0
    1.3949    7.7591    3.3154 H   0  0  0  0  0  0  0  0  0  0  0  0
   -2.4815    4.1283    4.0147 H   0  0  0  0  0  0  0  0  0  0  0  0
   -2.2246    3.3354    2.4713 H   0  0  0  0  0  0  0  0  0  0  0  0
   -1.2364    4.7337    2.9052 H   0  0  0  0  0  0  0  0  0  0  0  0
    0.2009    3.2604    2.2285 H   0  0  0  0  0  0  0  0  0  0  0  0
   -2.3916    1.9139    4.8634 H   0  0  0  0  0  0  0  0  0  0  0  0
   -1.7739    1.0266    3.5220 H   0  0  0  0  0  0  0  0  0  0  0  0
   -1.5811   -0.0383    5.8480 H   0  0  0  0  0  0  0  0  0  0  0  0
   -0.1521   -0.1474    4.9078 H   0  0  0  0  0  0  0  0  0  0  0  0
   -0.8026    2.6722    7.7172 H   0  0  0  0  0  0  0  0  0  0  0  0
    0.9517    1.7534    9.0394 H   0  0  0  0  0  0  0  0  0  0  0  0
    2.3449    0.8109    8.5624 H   0  0  0  0  0  0  0  0  0  0  0  0
    2.9706    2.1265    6.9286 H   0  0  0  0  0  0  0  0  0  0  0  0
    2.2449    0.5399    5.5370 H   0  0  0  0  0  0  0  0  0  0  0  0
    2.7475    1.8415    4.5395 H   0  0  0  0  0  0  0  0  0  0  0  0
    1.3555    0.9894    4.1389 H   0  0  0  0  0  0  0  0  0  0  0  0
  1  2  1  0
  1 36  1  0
  1 37  1  0
  1 38  1  0
  2 21  1  0
  2  3  1  0
  2 39  1  1
  3  4  1  0
  3  5  1  0
  3 40  1  6
  4 41  1  0
  5  6  1  0
  5  7  1  0
  5 42  1  6
  6 43  1  0
  7 19  1  0
  7 33  1  0
  7  8  1  1
  8  9  1  0
  8 44  1  0
  8 45  1  0
  9 10  1  0
  9 46  1  0
  9 47  1  0
 10 11  1  0
 10 12  1  0
 10 48  1  1
 11 49  1  0
 12 19  1  0
 12 13  1  1
 12 14  1  0
 13 50  1  0
 13 51  1  0
 13 52  1  0
 14 20  1  0
 14 15  1  0
 14 53  1  1
 16 15  1  1
 16 34  1  0
 16 17  1  0
 16 24  1  0
 17 18  1  0
 17 20  1  0
 17 54  1  6
 18 19  1  0
 18 55  1  0
 18 56  1  0
 19 57  1  1
 20 21  1  0
 20 58  1  6
 21 22  1  0
 21 23  1  6
 22 59  1  0
 22 60  1  0
 22 61  1  0
 23 62  1  0
 24 25  1  0
 24 26  1  6
 24 27  1  0
 25 63  1  0
 25 64  1  0
 25 65  1  0
 26 66  1  0
 27 28  1  0
 27 67  1  0
 27 68  1  0
 28 29  1  0
 28 69  1  0
 28 70  1  0
 29 34  1  0
 29 30  1  1
 29 31  1  0
 30 71  1  0
 31 32  1  0
 32 33  1  0
 32 72  1  0
 32 73  1  0
 33 34  1  0
 33 74  1  6
 34 35  1  6
 35 75  1  0
 35 76  1  0
 35 77  1  0
M  END
>  <i_m_ct_stereo_status>  (256) 
1

>  <s_m_source_file>  (256) 
/var/tmp/pbs.5076255.sched01/tmp3ug8vllb/105tp2mz_hs.sdf

>  <i_m_source_file_index>  (256) 
6

>  <i_lp_mmshare_version>  (256) 
48012

>  <i_f3d_flags>  (256) 
0

>  <s_epik_input>  (256) 
W09IXVtDQEBIXTFbQ0BIXShbT0hdKVtDQEBIXShbQ0gzXSlbQ0BAXShbQ0gzXSkoW09IXSlbQ0BIXShbQ0BASF0yW0NAQF0oW0NIM10pKFtDSF0zW0NAQF0xNDUpW0NASF0oW09IXSlbQ0gyXVtDSDJdNClbQ0BASF0oW0NIMl0zKVtDQF02KE8yKVtDQF03KFtDSDNdKVtDQF0oW09IXSkoT1tDSDJdW0NASF01NylbQ0gyXVtDSDJdW0NAXTYoW0NIM10pW09IXQ==

>  <s_epik_cmdline>  (256) 
J2VwaWtfcHl0aG9uJywgJy1waHQnLCAnMi4wJywgJy1waCcsICc3LjAnLCAnLXRuJywgJzgnLCAnLW1hJywgJzIwMCcsICctaW1hZScsICc8aW5maWxlLm1hZT4nLCAnLW9tYWUnLCAnPG91dGZpbGUubWFlPic=

>  <r_lp_tautomer_probability>  (256) 
1

>  <r_epik_Ionization_Penalty>  (256) 
1.53775e-06

>  <r_epik_Ionization_Penalty_Charging>  (256) 
0

>  <r_epik_Ionization_Penalty_Neutral>  (256) 
1.53775e-06

>  <r_epik_State_Penalty>  (256) 
-0

>  <r_epik_Charging_Adjusted_Penalty>  (256) 
0

>  <i_epik_Tot_Q>  (256) 
0

>  <i_epik_Tot_abs_Q>  (256) 
0

>  <s_lp_Force_Field>  (256) 
OPLS3e

>  <r_lp_Energy>  (256) 
331.157

>  <b_lp_Chiralities_Consistent>  (256) 
1

>  <s_lp_Variant>  (256) 
93:0-1

>  <s_i_glide_gridfile>  (256) 
pfpi4k_grid

>  <i_i_glide_lignum>  (256) 
6

>  <i_i_glide_rotatable_bonds>  (256) 
6

>  <r_i_docking_score>  (256) 
-3.05671

>  <r_i_glide_ligand_efficiency>  (256) 
-0.0873345

>  <r_i_glide_ligand_efficiency_sa>  (256) 
-0.285677

>  <r_i_glide_ligand_efficiency_ln>  (256) 
-0.671016

>  <r_i_glide_gscore>  (256) 
-3.05671

>  <r_i_glide_lipo>  (256) 
-0.0383376

>  <r_i_glide_hbond>  (256) 
-0.304

>  <r_i_glide_metal>  (256) 
-0

>  <r_i_glide_rewards>  (256) 
-0.536698

>  <r_i_glide_evdw>  (256) 
-22.1365

>  <r_i_glide_ecoul>  (256) 
-7.08846

>  <r_i_glide_erotb>  (256) 
0

>  <r_i_glide_esite>  (256) 
-0.00757786

>  <r_i_glide_emodel>  (256) 
-39.9597

>  <r_i_glide_energy>  (256) 
-29.225

>  <r_i_glide_einternal>  (256) 
1.50911

>  <r_i_glide_intrahb_reward>  (256) 
-0.5

>  <i_i_glide_confnum>  (256) 
2

>  <i_i_glide_posenum>  (256) 
14

>  <r_i_glide_eff_state_penalty>  (256) 
0

>  <ligand_id>  (256) 
93

>  <original_smiles>  (256) 
CC1C(O)C(O)C23CCC(O)C4(C)C5OC6(C(CC42)C5C1(C)O)C(C)(O)CCC1(O)OCC3C16C

>  <smiles>  (256) 
[H]OC1([H])C([H])(O[H])C23C([H])([H])C([H])([H])C([H])(O[H])C4(C([H])([H])[H])C5([H])OC6(C([H])(C([H])([H])C42[H])C5([H])C(O[H])(C([H])([H])[H])C1([H])C([H])([H])[H])C(O[H])(C([H])([H])[H])C([H])([H])C([H])([H])C1(O[H])OC([H])([H])C3([H])C16C([H])([H])[H]

$$$$
93:0:1
     RDKit          3D

 77 83  0  0  1  0  0  0  0  0999 V2000
    2.9966   -9.4132    1.5071 C   0  0  0  0  0  0  0  0  0  0  0  0
    3.4430   -8.5902    2.7561 C   0  0  2  0  0  0  0  0  0  0  0  0
    2.0718   -7.8235    3.3329 C   0  0  1  0  0  0  0  0  0  0  0  0
    2.0594   -7.9969    4.7333 O   0  0  0  0  0  0  0  0  0  0  0  0
    1.4973   -6.3121    2.9750 C   0  0  1  0  0  0  0  0  0  0  0  0
    0.1737   -6.2567    3.4537 O   0  0  0  0  0  0  0  0  0  0  0  0
    2.3062   -4.9445    3.4034 C   0  0  1  0  0  0  0  0  0  0  0  0
    2.0735   -4.6102    4.9352 C   0  0  0  0  0  0  0  0  0  0  0  0
    2.9570   -5.3479    6.0073 C   0  0  0  0  0  0  0  0  0  0  0  0
    4.4342   -5.6751    5.6077 C   0  0  1  0  0  0  0  0  0  0  0  0
    4.6259   -7.0568    5.7163 O   0  0  0  0  0  0  0  0  0  0  0  0
    4.7515   -5.0350    4.2002 C   0  0  1  0  0  0  0  0  0  0  0  0
    4.9055   -3.5560    4.6934 C   0  0  0  0  0  0  0  0  0  0  0  0
    5.9610   -5.4449    3.3421 C   0  0  2  0  0  0  0  0  0  0  0  0
    6.0898   -4.2693    2.4922 O   0  0  0  0  0  0  0  0  0  0  0  0
    5.2374   -4.1947    1.3305 C   0  0  2  0  0  0  0  0  0  0  0  0
    5.0773   -5.7458    1.1873 C   0  0  2  0  0  0  0  0  0  0  0  0
    3.7407   -5.9190    1.6564 C   0  0  0  0  0  0  0  0  0  0  0  0
    3.6243   -5.4652    3.2027 C   0  0  2  0  0  0  0  0  0  0  0  0
    5.7569   -6.5990    2.2862 C   0  0  2  0  0  0  0  0  0  0  0  0
    5.0740   -8.0841    2.6510 C   0  0  1  0  0  0  0  0  0  0  0  0
    5.9144   -8.7775    3.7560 C   0  0  0  0  0  0  0  0  0  0  0  0
    5.5695   -8.7535    1.4992 O   0  0  0  0  0  0  0  0  0  0  0  0
    6.1798   -3.5236    0.2403 C   0  0  1  0  0  0  0  0  0  0  0  0
    7.6513   -3.9813    0.3332 C   0  0  0  0  0  0  0  0  0  0  0  0
    5.8105   -3.9476   -1.0564 O   0  0  0  0  0  0  0  0  0  0  0  0
    6.1744   -1.9512    0.2220 C   0  0  0  0  0  0  0  0  0  0  0  0
    4.8447   -1.1758    0.4683 C   0  0  0  0  0  0  0  0  0  0  0  0
    4.1022   -1.8332    1.6453 C   0  0  1  0  0  0  0  0  0  0  0  0
    4.9310   -1.5636    2.7417 O   0  0  0  0  0  0  0  0  0  0  0  0
    2.8352   -1.3027    1.8756 O   0  0  0  0  0  0  0  0  0  0  0  0
    2.1150   -2.1895    2.7621 C   0  0  0  0  0  0  0  0  0  0  0  0
    2.5080   -3.6464    2.3799 C   0  0  1  0  0  0  0  0  0  0  0  0
    3.7951   -3.3438    1.3811 C   0  0  2  0  0  0  0  0  0  0  0  0
    3.0891   -3.3289   -0.0575 C   0  0  0  0  0  0  0  0  0  0  0  0
    2.9769   -8.8244    0.5909 H   0  0  0  0  0  0  0  0  0  0  0  0
    2.0085   -9.8598    1.6317 H   0  0  0  0  0  0  0  0  0  0  0  0
    3.6564  -10.2547    1.3241 H   0  0  0  0  0  0  0  0  0  0  0  0
    3.5149   -9.4270    3.4518 H   0  0  0  0  0  0  0  0  0  0  0  0
    1.2507   -8.4722    3.0337 H   0  0  0  0  0  0  0  0  0  0  0  0
    2.8627   -7.6307    5.0954 H   0  0  0  0  0  0  0  0  0  0  0  0
    1.3001   -6.2991    1.9039 H   0  0  0  0  0  0  0  0  0  0  0  0
    0.2164   -6.5088    4.3685 H   0  0  0  0  0  0  0  0  0  0  0  0
    2.2016   -3.5479    5.1148 H   0  0  0  0  0  0  0  0  0  0  0  0
    1.0285   -4.7526    5.2056 H   0  0  0  0  0  0  0  0  0  0  0  0
    2.9812   -4.7226    6.8977 H   0  0  0  0  0  0  0  0  0  0  0  0
    2.4524   -6.2419    6.3652 H   0  0  0  0  0  0  0  0  0  0  0  0
    5.1156   -5.3239    6.3862 H   0  0  0  0  0  0  0  0  0  0  0  0
    5.5555   -7.2224    5.6496 H   0  0  0  0  0  0  0  0  0  0  0  0
    5.8444   -3.0871    4.4178 H   0  0  0  0  0  0  0  0  0  0  0  0
    4.8930   -3.3946    5.7710 H   0  0  0  0  0  0  0  0  0  0  0  0
    4.0807   -2.9492    4.3794 H   0  0  0  0  0  0  0  0  0  0  0  0
    6.8527   -5.5766    3.9544 H   0  0  0  0  0  0  0  0  0  0  0  0
    5.1927   -6.1432    0.1817 H   0  0  0  0  0  0  0  0  0  0  0  0
    3.0047   -5.5367    0.9892 H   0  0  0  0  0  0  0  0  0  0  0  0
    3.4289   -6.8784    1.3284 H   0  0  0  0  0  0  0  0  0  0  0  0
    3.6786   -6.3916    3.6736 H   0  0  0  0  0  0  0  0  0  0  0  0
    6.7704   -6.7956    1.9309 H   0  0  0  0  0  0  0  0  0  0  0  0
    5.3077   -9.1139    4.5964 H   0  0  0  0  0  0  0  0  0  0  0  0
    6.6810   -8.1101    4.1505 H   0  0  0  0  0  0  0  0  0  0  0  0
    6.4324   -9.6763    3.4140 H   0  0  0  0  0  0  0  0  0  0  0  0
    5.2949   -9.6634    1.5445 H   0  0  0  0  0  0  0  0  0  0  0  0
    8.1172   -3.6169    1.2549 H   0  0  0  0  0  0  0  0  0  0  0  0
    8.2303   -3.5712   -0.5007 H   0  0  0  0  0  0  0  0  0  0  0  0
    7.7478   -5.0699    0.3124 H   0  0  0  0  0  0  0  0  0  0  0  0
    5.6568   -4.8774   -1.0291 H   0  0  0  0  0  0  0  0  0  0  0  0
    6.8907   -1.6046    0.9724 H   0  0  0  0  0  0  0  0  0  0  0  0
    6.5811   -1.6132   -0.7309 H   0  0  0  0  0  0  0  0  0  0  0  0
    5.0699   -0.1432    0.7306 H   0  0  0  0  0  0  0  0  0  0  0  0
    4.2265   -1.0857   -0.4209 H   0  0  0  0  0  0  0  0  0  0  0  0
    5.0626   -0.6271    2.7844 H   0  0  0  0  0  0  0  0  0  0  0  0
    2.3687   -1.9236    3.7848 H   0  0  0  0  0  0  0  0  0  0  0  0
    1.0446   -2.0228    2.6395 H   0  0  0  0  0  0  0  0  0  0  0  0
    1.7020   -3.9082    1.7063 H   0  0  0  0  0  0  0  0  0  0  0  0
    2.2303   -2.6565   -0.0622 H   0  0  0  0  0  0  0  0  0  0  0  0
    2.7048   -4.2666   -0.4435 H   0  0  0  0  0  0  0  0  0  0  0  0
    3.6915   -2.9851   -0.8837 H   0  0  0  0  0  0  0  0  0  0  0  0
  1  2  1  0
  1 36  1  0
  1 37  1  0
  1 38  1  0
  2 21  1  0
  2  3  1  0
  2 39  1  1
  3  4  1  0
  3  5  1  0
  3 40  1  6
  4 41  1  0
  5  6  1  0
  5  7  1  0
  5 42  1  6
  6 43  1  0
  7 19  1  0
  7 33  1  0
  7  8  1  1
  8  9  1  0
  8 44  1  0
  8 45  1  0
  9 10  1  0
  9 46  1  0
  9 47  1  0
 10 11  1  0
 10 12  1  0
 10 48  1  1
 11 49  1  0
 12 19  1  0
 12 13  1  1
 12 14  1  0
 13 50  1  0
 13 51  1  0
 13 52  1  0
 14 20  1  0
 14 15  1  0
 14 53  1  1
 16 15  1  1
 16 34  1  0
 16 17  1  0
 16 24  1  0
 17 18  1  0
 17 20  1  0
 17 54  1  6
 18 19  1  0
 18 55  1  0
 18 56  1  0
 19 57  1  1
 20 21  1  0
 20 58  1  6
 21 22  1  0
 21 23  1  6
 22 59  1  0
 22 60  1  0
 22 61  1  0
 23 62  1  0
 24 25  1  0
 24 26  1  6
 24 27  1  0
 25 63  1  0
 25 64  1  0
 25 65  1  0
 26 66  1  0
 27 28  1  0
 27 67  1  0
 27 68  1  0
 28 29  1  0
 28 69  1  0
 28 70  1  0
 29 34  1  0
 29 30  1  1
 29 31  1  0
 30 71  1  0
 31 32  1  0
 32 33  1  0
 32 72  1  0
 32 73  1  0
 33 34  1  0
 33 74  1  6
 34 35  1  6
 35 75  1  0
 35 76  1  0
 35 77  1  0
M  END
>  <i_m_ct_stereo_status>  (257) 
1

>  <s_m_source_file>  (257) 
/var/tmp/pbs.5076255.sched01/tmp3ug8vllb/105tp2mz_hs.sdf

>  <i_m_source_file_index>  (257) 
6

>  <i_lp_mmshare_version>  (257) 
48012

>  <i_f3d_flags>  (257) 
0

>  <s_epik_input>  (257) 
W09IXVtDQEBIXTFbQ0BIXShbT0hdKVtDQEBIXShbQ0gzXSlbQ0BAXShbQ0gzXSkoW09IXSlbQ0BIXShbQ0BASF0yW0NAQF0oW0NIM10pKFtDSF0zW0NAQF0xNDUpW0NASF0oW09IXSlbQ0gyXVtDSDJdNClbQ0BASF0oW0NIMl0zKVtDQF02KE8yKVtDQF03KFtDSDNdKVtDQF0oW09IXSkoT1tDSDJdW0NASF01NylbQ0gyXVtDSDJdW0NAXTYoW0NIM10pW09IXQ==

>  <s_epik_cmdline>  (257) 
J2VwaWtfcHl0aG9uJywgJy1waHQnLCAnMi4wJywgJy1waCcsICc3LjAnLCAnLXRuJywgJzgnLCAnLW1hJywgJzIwMCcsICctaW1hZScsICc8aW5maWxlLm1hZT4nLCAnLW9tYWUnLCAnPG91dGZpbGUubWFlPic=

>  <r_lp_tautomer_probability>  (257) 
1

>  <r_epik_Ionization_Penalty>  (257) 
1.53775e-06

>  <r_epik_Ionization_Penalty_Charging>  (257) 
0

>  <r_epik_Ionization_Penalty_Neutral>  (257) 
1.53775e-06

>  <r_epik_State_Penalty>  (257) 
-0

>  <r_epik_Charging_Adjusted_Penalty>  (257) 
0

>  <i_epik_Tot_Q>  (257) 
0

>  <i_epik_Tot_abs_Q>  (257) 
0

>  <s_lp_Force_Field>  (257) 
OPLS3e

>  <r_lp_Energy>  (257) 
331.157

>  <b_lp_Chiralities_Consistent>  (257) 
1

>  <s_lp_Variant>  (257) 
93:0-1

>  <s_i_glide_gridfile>  (257) 
pfpi4k_grid

>  <i_i_glide_lignum>  (257) 
6

>  <i_i_glide_rotatable_bonds>  (257) 
6

>  <r_i_docking_score>  (257) 
-2.7775

>  <r_i_glide_ligand_efficiency>  (257) 
-0.0793571

>  <r_i_glide_ligand_efficiency_sa>  (257) 
-0.259582

>  <r_i_glide_ligand_efficiency_ln>  (257) 
-0.609722

>  <r_i_glide_gscore>  (257) 
-2.7775

>  <r_i_glide_lipo>  (257) 
-0.548047

>  <r_i_glide_hbond>  (257) 
0

>  <r_i_glide_metal>  (257) 
-0

>  <r_i_glide_rewards>  (257) 
-0.536698

>  <r_i_glide_evdw>  (257) 
-27.1059

>  <r_i_glide_ecoul>  (257) 
-2.23196

>  <r_i_glide_erotb>  (257) 
0

>  <r_i_glide_esite>  (257) 
-0.00266438

>  <r_i_glide_emodel>  (257) 
-39.6384

>  <r_i_glide_energy>  (257) 
-29.3378

>  <r_i_glide_einternal>  (257) 
0.750872

>  <r_i_glide_intrahb_reward>  (257) 
-0.5

>  <i_i_glide_confnum>  (257) 
1

>  <i_i_glide_posenum>  (257) 
1

>  <r_i_glide_eff_state_penalty>  (257) 
0

>  <ligand_id>  (257) 
93

>  <original_smiles>  (257) 
CC1C(O)C(O)C23CCC(O)C4(C)C5OC6(C(CC42)C5C1(C)O)C(C)(O)CCC1(O)OCC3C16C

>  <smiles>  (257) 
[H]OC1([H])C([H])(O[H])C23C([H])([H])C([H])([H])C([H])(O[H])C4(C([H])([H])[H])C5([H])OC6(C([H])(C([H])([H])C42[H])C5([H])C(O[H])(C([H])([H])[H])C1([H])C([H])([H])[H])C(O[H])(C([H])([H])[H])C([H])([H])C([H])([H])C1(O[H])OC([H])([H])C3([H])C16C([H])([H])[H]

$$$$
93:0:2
     RDKit          3D

 77 83  0  0  1  0  0  0  0  0999 V2000
    3.0465   -9.3993    1.5223 C   0  0  0  0  0  0  0  0  0  0  0  0
    3.4824   -8.5687    2.7707 C   0  0  2  0  0  0  0  0  0  0  0  0
    2.0994   -7.8103    3.3404 C   0  0  1  0  0  0  0  0  0  0  0  0
    2.0851   -7.9682    4.7416 O   0  0  0  0  0  0  0  0  0  0  0  0
    1.5085   -6.3042    2.9766 C   0  0  1  0  0  0  0  0  0  0  0  0
    0.1843   -6.2531    3.4529 O   0  0  0  0  0  0  0  0  0  0  0  0
    2.3077   -4.9263    3.3947 C   0  0  1  0  0  0  0  0  0  0  0  0
    2.0624   -4.5752    4.9241 C   0  0  0  0  0  0  0  0  0  0  0  0
    2.9476   -5.2893    6.0090 C   0  0  0  0  0  0  0  0  0  0  0  0
    4.4252   -5.6266    5.6199 C   0  0  1  0  0  0  0  0  0  0  0  0
    4.5835   -7.0126    5.7617 O   0  0  0  0  0  0  0  0  0  0  0  0
    4.7467   -4.9914    4.2040 C   0  0  1  0  0  0  0  0  0  0  0  0
    4.8845   -3.5019    4.6822 C   0  0  0  0  0  0  0  0  0  0  0  0
    5.9625   -5.3927    3.3491 C   0  0  2  0  0  0  0  0  0  0  0  0
    6.0804   -4.2194    2.4963 O   0  0  0  0  0  0  0  0  0  0  0  0
    5.2389   -4.1599    1.3206 C   0  0  2  0  0  0  0  0  0  0  0  0
    5.0942   -5.7141    1.1910 C   0  0  2  0  0  0  0  0  0  0  0  0
    3.7571   -5.8994    1.6589 C   0  0  0  0  0  0  0  0  0  0  0  0
    3.6281   -5.4385    3.2052 C   0  0  2  0  0  0  0  0  0  0  0  0
    5.7790   -6.5546    2.2975 C   0  0  2  0  0  0  0  0  0  0  0  0
    5.1114   -8.0431    2.6792 C   0  0  1  0  0  0  0  0  0  0  0  0
    5.9500   -8.7133    3.8000 C   0  0  0  0  0  0  0  0  0  0  0  0
    5.6361   -8.7314    1.5533 O   0  0  0  0  0  0  0  0  0  0  0  0
    6.1802   -3.4843    0.2245 C   0  0  1  0  0  0  0  0  0  0  0  0
    7.6614   -3.9303    0.3319 C   0  0  0  0  0  0  0  0  0  0  0  0
    5.8261   -3.9081   -1.0754 O   0  0  0  0  0  0  0  0  0  0  0  0
    6.1585   -1.9101    0.2074 C   0  0  0  0  0  0  0  0  0  0  0  0
    4.8188   -1.1501    0.4376 C   0  0  0  0  0  0  0  0  0  0  0  0
    4.0725   -1.8113    1.6120 C   0  0  1  0  0  0  0  0  0  0  0  0
    4.8950   -1.5254    2.7082 O   0  0  0  0  0  0  0  0  0  0  0  0
    2.7977   -1.2935    1.8314 O   0  0  0  0  0  0  0  0  0  0  0  0
    2.0835   -2.1757    2.7271 C   0  0  0  0  0  0  0  0  0  0  0  0
    2.5008   -3.6316    2.3619 C   0  0  1  0  0  0  0  0  0  0  0  0
    3.7873   -3.3244    1.3590 C   0  0  2  0  0  0  0  0  0  0  0  0
    3.0860   -3.3258   -0.0835 C   0  0  0  0  0  0  0  0  0  0  0  0
    3.0013   -8.8128    0.6108 H   0  0  0  0  0  0  0  0  0  0  0  0
    2.0699   -9.8635    1.6572 H   0  0  0  0  0  0  0  0  0  0  0  0
    3.7163  -10.2381    1.3318 H   0  0  0  0  0  0  0  0  0  0  0  0
    3.5624   -9.4016    3.4723 H   0  0  0  0  0  0  0  0  0  0  0  0
    1.2824   -8.4701    3.0477 H   0  0  0  0  0  0  0  0  0  0  0  0
    2.8882   -7.5915    5.0905 H   0  0  0  0  0  0  0  0  0  0  0  0
    1.3148   -6.3023    1.9049 H   0  0  0  0  0  0  0  0  0  0  0  0
    0.2225   -6.4979    4.3719 H   0  0  0  0  0  0  0  0  0  0  0  0
    2.1763   -3.5100    5.0970 H   0  0  0  0  0  0  0  0  0  0  0  0
    1.0179   -4.7268    5.1917 H   0  0  0  0  0  0  0  0  0  0  0  0
    2.9627   -4.6564    6.8967 H   0  0  0  0  0  0  0  0  0  0  0  0
    2.4360   -6.1796    6.3690 H   0  0  0  0  0  0  0  0  0  0  0  0
    5.1139   -5.2637    6.3883 H   0  0  0  0  0  0  0  0  0  0  0  0
    4.5673   -7.2233    6.6872 H   0  0  0  0  0  0  0  0  0  0  0  0
    5.8192   -3.0232    4.4069 H   0  0  0  0  0  0  0  0  0  0  0  0
    4.8799   -3.3351    5.7591 H   0  0  0  0  0  0  0  0  0  0  0  0
    4.0474   -2.9049    4.3801 H   0  0  0  0  0  0  0  0  0  0  0  0
    6.8544   -5.5130    3.9660 H   0  0  0  0  0  0  0  0  0  0  0  0
    5.2234   -6.1051    0.1818 H   0  0  0  0  0  0  0  0  0  0  0  0
    3.0177   -5.5275    0.9892 H   0  0  0  0  0  0  0  0  0  0  0  0
    3.4523   -6.8641    1.3372 H   0  0  0  0  0  0  0  0  0  0  0  0
    3.6927   -6.3616    3.6829 H   0  0  0  0  0  0  0  0  0  0  0  0
    6.7969   -6.7399    1.9528 H   0  0  0  0  0  0  0  0  0  0  0  0
    5.3393   -9.0441    4.6391 H   0  0  0  0  0  0  0  0  0  0  0  0
    6.7063   -8.0344    4.1932 H   0  0  0  0  0  0  0  0  0  0  0  0
    6.4753   -9.6130    3.4711 H   0  0  0  0  0  0  0  0  0  0  0  0
    5.0625   -8.5831    0.8147 H   0  0  0  0  0  0  0  0  0  0  0  0
    8.1300   -3.5623    1.2520 H   0  0  0  0  0  0  0  0  0  0  0  0
    8.2442   -3.5267   -0.5025 H   0  0  0  0  0  0  0  0  0  0  0  0
    7.7663   -5.0179    0.3161 H   0  0  0  0  0  0  0  0  0  0  0  0
    4.8814   -3.8455   -1.1641 H   0  0  0  0  0  0  0  0  0  0  0  0
    6.8692   -1.5504    0.9552 H   0  0  0  0  0  0  0  0  0  0  0  0
    6.5719   -1.5770   -0.7446 H   0  0  0  0  0  0  0  0  0  0  0  0
    5.0377   -0.1163    0.7044 H   0  0  0  0  0  0  0  0  0  0  0  0
    4.2082   -1.0627   -0.4567 H   0  0  0  0  0  0  0  0  0  0  0  0
    4.6453   -2.0946    3.4234 H   0  0  0  0  0  0  0  0  0  0  0  0
    2.3287   -1.8884    3.7471 H   0  0  0  0  0  0  0  0  0  0  0  0
    1.0111   -2.0207    2.5987 H   0  0  0  0  0  0  0  0  0  0  0  0
    1.7000   -3.9051    1.6880 H   0  0  0  0  0  0  0  0  0  0  0  0
    2.2177   -2.6675   -0.0885 H   0  0  0  0  0  0  0  0  0  0  0  0
    2.7108   -4.2711   -0.4621 H   0  0  0  0  0  0  0  0  0  0  0  0
    3.6745   -2.9661   -0.9137 H   0  0  0  0  0  0  0  0  0  0  0  0
  1  2  1  0
  1 36  1  0
  1 37  1  0
  1 38  1  0
  2 21  1  0
  2  3  1  0
  2 39  1  1
  3  4  1  0
  3  5  1  0
  3 40  1  6
  4 41  1  0
  5  6  1  0
  5  7  1  0
  5 42  1  6
  6 43  1  0
  7 19  1  0
  7 33  1  0
  7  8  1  1
  8  9  1  0
  8 44  1  0
  8 45  1  0
  9 10  1  0
  9 46  1  0
  9 47  1  0
 10 11  1  0
 10 12  1  0
 10 48  1  1
 11 49  1  0
 12 19  1  0
 12 13  1  1
 12 14  1  0
 13 50  1  0
 13 51  1  0
 13 52  1  0
 14 20  1  0
 14 15  1  0
 14 53  1  1
 16 15  1  1
 16 34  1  0
 16 17  1  0
 16 24  1  0
 17 18  1  0
 17 20  1  0
 17 54  1  6
 18 19  1  0
 18 55  1  0
 18 56  1  0
 19 57  1  1
 20 21  1  0
 20 58  1  6
 21 22  1  0
 21 23  1  6
 22 59  1  0
 22 60  1  0
 22 61  1  0
 23 62  1  0
 24 25  1  0
 24 26  1  6
 24 27  1  0
 25 63  1  0
 25 64  1  0
 25 65  1  0
 26 66  1  0
 27 28  1  0
 27 67  1  0
 27 68  1  0
 28 29  1  0
 28 69  1  0
 28 70  1  0
 29 34  1  0
 29 30  1  1
 29 31  1  0
 30 71  1  0
 31 32  1  0
 32 33  1  0
 32 72  1  0
 32 73  1  0
 33 34  1  0
 33 74  1  6
 34 35  1  6
 35 75  1  0
 35 76  1  0
 35 77  1  0
M  END
>  <i_m_ct_stereo_status>  (258) 
1

>  <s_m_source_file>  (258) 
/var/tmp/pbs.5076255.sched01/tmp3ug8vllb/105tp2mz_hs.sdf

>  <i_m_source_file_index>  (258) 
6

>  <i_lp_mmshare_version>  (258) 
48012

>  <i_f3d_flags>  (258) 
0

>  <s_epik_input>  (258) 
W09IXVtDQEBIXTFbQ0BIXShbT0hdKVtDQEBIXShbQ0gzXSlbQ0BAXShbQ0gzXSkoW09IXSlbQ0BIXShbQ0BASF0yW0NAQF0oW0NIM10pKFtDSF0zW0NAQF0xNDUpW0NASF0oW09IXSlbQ0gyXVtDSDJdNClbQ0BASF0oW0NIMl0zKVtDQF02KE8yKVtDQF03KFtDSDNdKVtDQF0oW09IXSkoT1tDSDJdW0NASF01NylbQ0gyXVtDSDJdW0NAXTYoW0NIM10pW09IXQ==

>  <s_epik_cmdline>  (258) 
J2VwaWtfcHl0aG9uJywgJy1waHQnLCAnMi4wJywgJy1waCcsICc3LjAnLCAnLXRuJywgJzgnLCAnLW1hJywgJzIwMCcsICctaW1hZScsICc8aW5maWxlLm1hZT4nLCAnLW9tYWUnLCAnPG91dGZpbGUubWFlPic=

>  <r_lp_tautomer_probability>  (258) 
1

>  <r_epik_Ionization_Penalty>  (258) 
1.53775e-06

>  <r_epik_Ionization_Penalty_Charging>  (258) 
0

>  <r_epik_Ionization_Penalty_Neutral>  (258) 
1.53775e-06

>  <r_epik_State_Penalty>  (258) 
-0

>  <r_epik_Charging_Adjusted_Penalty>  (258) 
0

>  <i_epik_Tot_Q>  (258) 
0

>  <i_epik_Tot_abs_Q>  (258) 
0

>  <s_lp_Force_Field>  (258) 
OPLS3e

>  <r_lp_Energy>  (258) 
331.157

>  <b_lp_Chiralities_Consistent>  (258) 
1

>  <s_lp_Variant>  (258) 
93:0-1

>  <s_i_glide_gridfile>  (258) 
pfpi4k_grid

>  <i_i_glide_lignum>  (258) 
6

>  <i_i_glide_rotatable_bonds>  (258) 
6

>  <r_i_docking_score>  (258) 
-2.74581

>  <r_i_glide_ligand_efficiency>  (258) 
-0.0784517

>  <r_i_glide_ligand_efficiency_sa>  (258) 
-0.256621

>  <r_i_glide_ligand_efficiency_ln>  (258) 
-0.602766

>  <r_i_glide_gscore>  (258) 
-2.74581

>  <r_i_glide_lipo>  (258) 
-0.54755

>  <r_i_glide_hbond>  (258) 
0

>  <r_i_glide_metal>  (258) 
-0

>  <r_i_glide_rewards>  (258) 
-0.536698

>  <r_i_glide_evdw>  (258) 
-27.1161

>  <r_i_glide_ecoul>  (258) 
-2.01535

>  <r_i_glide_erotb>  (258) 
0

>  <r_i_glide_esite>  (258) 
-0.00345093

>  <r_i_glide_emodel>  (258) 
-39.1386

>  <r_i_glide_energy>  (258) 
-29.1315

>  <r_i_glide_einternal>  (258) 
0.766622

>  <r_i_glide_intrahb_reward>  (258) 
-0.5

>  <i_i_glide_confnum>  (258) 
2

>  <i_i_glide_posenum>  (258) 
37

>  <r_i_glide_eff_state_penalty>  (258) 
0

>  <ligand_id>  (258) 
93

>  <original_smiles>  (258) 
CC1C(O)C(O)C23CCC(O)C4(C)C5OC6(C(CC42)C5C1(C)O)C(C)(O)CCC1(O)OCC3C16C

>  <smiles>  (258) 
[H]OC1([H])C([H])(O[H])C23C([H])([H])C([H])([H])C([H])(O[H])C4(C([H])([H])[H])C5([H])OC6(C([H])(C([H])([H])C42[H])C5([H])C(O[H])(C([H])([H])[H])C1([H])C([H])([H])[H])C(O[H])(C([H])([H])[H])C([H])([H])C([H])([H])C1(O[H])OC([H])([H])C3([H])C16C([H])([H])[H]

$$$$
96:0:0
     RDKit          3D

 83 93  0  0  1  0  0  0  0  0999 V2000
    6.8218   -9.1286    1.1031 C   0  0  0  0  0  0  0  0  0  0  0  0
    6.2063   -8.5124    2.3731 C   0  0  2  0  0  0  0  0  0  0  0  0
    4.9354   -9.3006    2.8434 C   0  0  1  0  0  0  0  0  0  0  0  0
    5.0796   -9.7061    4.1996 O   0  0  0  0  0  0  0  0  0  0  0  0
    3.8981   -9.4721    4.8663 C   0  0  2  0  0  0  0  0  0  0  0  0
    3.8040   -8.1689    5.4374 O   0  0  0  0  0  0  0  0  0  0  0  0
    2.5295   -8.3263    6.0394 C   0  0  2  0  0  0  0  0  0  0  0  0
    1.8383   -7.3931    6.9919 C   0  0  0  0  0  0  0  0  0  0  0  0
    1.6005   -6.0205    6.9044 C   0  0  0  0  0  0  0  0  0  0  0  0
    0.8427   -5.4115    7.9247 C   0  0  0  0  0  0  0  0  0  0  0  0
    0.3328   -6.1733    9.0045 C   0  0  0  0  0  0  0  0  0  0  0  0
    0.6044   -7.5558    9.1079 C   0  0  0  0  0  0  0  0  0  0  0  0
    1.3699   -8.1422    8.0878 C   0  0  0  0  0  0  0  0  0  0  0  0
    1.8607   -9.5746    8.0259 C   0  0  0  0  0  0  0  0  0  0  0  0
    3.0276   -9.3895    7.0410 C   0  0  1  0  0  0  0  0  0  0  0  0
    3.6867  -10.3692    6.0891 C   0  0  0  0  0  0  0  0  0  0  0  0
    3.9503  -11.5429    6.2478 O   0  0  0  0  0  0  0  0  0  0  0  0
    1.6955   -8.8677    4.8327 C   0  0  1  0  0  0  0  0  0  0  0  0
    0.2671   -8.5485    4.3338 C   0  0  1  0  0  0  0  0  0  0  0  0
   -0.0203   -7.3581    3.4148 C   0  0  0  0  0  0  0  0  0  0  0  0
   -1.3465   -7.7300    2.7522 C   0  0  0  0  0  0  0  0  0  0  0  0
   -1.4755   -9.2538    2.9274 C   0  0  0  0  0  0  0  0  0  0  0  0
   -0.2498   -9.7202    3.5898 N   0  0  1  0  0  0  0  0  0  0  0  0
    0.7195  -10.3622    2.6592 C   0  0  0  0  0  0  0  0  0  0  0  0
    2.0933  -10.7155    3.3240 C   0  0  0  0  0  0  0  0  0  0  0  0
    2.7430   -9.4047    3.8537 C   0  0  2  0  0  0  0  0  0  0  0  0
    3.5052   -8.6660    2.7073 C   0  0  1  0  0  0  0  0  0  0  0  0
    3.3907   -7.1265    2.4211 C   0  0  1  0  0  0  0  0  0  0  0  0
    3.1818   -6.1366    3.5881 C   0  0  0  0  0  0  0  0  0  0  0  0
    4.5932   -6.7164    1.6035 C   0  0  1  0  0  0  0  0  0  0  0  0
    4.4752   -7.0109    0.2072 O   0  0  0  0  0  0  0  0  0  0  0  0
    4.7729   -5.6575    0.5601 C   0  0  1  0  0  0  0  0  0  0  0  0
    3.6998   -4.6171    0.2825 C   0  0  0  0  0  0  0  0  0  0  0  0
    4.1313   -3.4277   -0.5534 C   0  0  0  0  0  0  0  0  0  0  0  0
    3.8540   -2.1512   -0.2863 C   0  0  0  0  0  0  0  0  0  0  0  0
    4.4186   -1.2171   -1.3230 C   0  0  0  0  0  0  0  0  0  0  0  0
    5.1062   -2.1565   -2.3375 C   0  0  0  0  0  0  0  0  0  0  0  0
    4.8759   -3.6059   -1.8711 C   0  0  0  0  0  0  0  0  0  0  0  0
    6.2371   -5.3574    0.6174 C   0  0  0  0  0  0  0  0  0  0  0  0
    6.8523   -6.1386    1.5083 C   0  0  0  0  0  0  0  0  0  0  0  0
    5.9120   -7.0126    2.2883 C   0  0  2  0  0  0  0  0  0  0  0  0
    6.1403   -9.0724    0.2584 H   0  0  0  0  0  0  0  0  0  0  0  0
    7.0313  -10.1851    1.2626 H   0  0  0  0  0  0  0  0  0  0  0  0
    7.7633   -8.6390    0.8403 H   0  0  0  0  0  0  0  0  0  0  0  0
    6.9802   -8.6390    3.1427 H   0  0  0  0  0  0  0  0  0  0  0  0
    4.9171  -10.2550    2.3086 H   0  0  0  0  0  0  0  0  0  0  0  0
    2.0038   -5.4345    6.0950 H   0  0  0  0  0  0  0  0  0  0  0  0
    0.6371   -4.3504    7.8779 H   0  0  0  0  0  0  0  0  0  0  0  0
   -0.2490   -5.6769    9.7646 H   0  0  0  0  0  0  0  0  0  0  0  0
    0.2659   -8.1353    9.9499 H   0  0  0  0  0  0  0  0  0  0  0  0
    2.2105   -9.9514    8.9869 H   0  0  0  0  0  0  0  0  0  0  0  0
    1.0950  -10.2500    7.6416 H   0  0  0  0  0  0  0  0  0  0  0  0
    3.8649   -8.9766    7.5998 H   0  0  0  0  0  0  0  0  0  0  0  0
    1.3186   -9.7413    5.3691 H   0  0  0  0  0  0  0  0  0  0  0  0
   -0.3773   -8.4250    5.2080 H   0  0  0  0  0  0  0  0  0  0  0  0
   -0.0831   -6.4042    3.9414 H   0  0  0  0  0  0  0  0  0  0  0  0
    0.7034   -7.2923    2.6087 H   0  0  0  0  0  0  0  0  0  0  0  0
   -2.1998   -7.2360    3.2273 H   0  0  0  0  0  0  0  0  0  0  0  0
   -1.3479   -7.4759    1.6900 H   0  0  0  0  0  0  0  0  0  0  0  0
   -2.3028   -9.4381    3.6162 H   0  0  0  0  0  0  0  0  0  0  0  0
   -1.7146   -9.7824    1.9975 H   0  0  0  0  0  0  0  0  0  0  0  0
    0.2587  -11.2758    2.2778 H   0  0  0  0  0  0  0  0  0  0  0  0
    0.9093   -9.7216    1.7970 H   0  0  0  0  0  0  0  0  0  0  0  0
    1.9270  -11.4246    4.1411 H   0  0  0  0  0  0  0  0  0  0  0  0
    2.7510  -11.2141    2.6018 H   0  0  0  0  0  0  0  0  0  0  0  0
    3.1480   -9.0624    1.7596 H   0  0  0  0  0  0  0  0  0  0  0  0
    2.5440   -6.9820    1.7480 H   0  0  0  0  0  0  0  0  0  0  0  0
    4.0212   -6.0735    4.2867 H   0  0  0  0  0  0  0  0  0  0  0  0
    2.2896   -6.3844    4.1501 H   0  0  0  0  0  0  0  0  0  0  0  0
    3.0112   -5.1256    3.2196 H   0  0  0  0  0  0  0  0  0  0  0  0
    2.8483   -5.1130   -0.1835 H   0  0  0  0  0  0  0  0  0  0  0  0
    3.3398   -4.2295    1.2353 H   0  0  0  0  0  0  0  0  0  0  0  0
    3.2784   -1.7840    0.5581 H   0  0  0  0  0  0  0  0  0  0  0  0
    3.6192   -0.6434   -1.7936 H   0  0  0  0  0  0  0  0  0  0  0  0
    5.1151   -0.5234   -0.8333 H   0  0  0  0  0  0  0  0  0  0  0  0
    4.7469   -2.0086   -3.3477 H   0  0  0  0  0  0  0  0  0  0  0  0
    6.1789   -1.9704   -2.3201 H   0  0  0  0  0  0  0  0  0  0  0  0
    5.8578   -4.0999   -1.7773 H   0  0  0  0  0  0  0  0  0  0  0  0
    4.2406   -4.1683   -2.5713 H   0  0  0  0  0  0  0  0  0  0  0  0
    6.7827   -4.6346    0.0171 H   0  0  0  0  0  0  0  0  0  0  0  0
    7.9173   -6.1471    1.6692 H   0  0  0  0  0  0  0  0  0  0  0  0
    5.8979   -6.6000    3.2892 H   0  0  0  0  0  0  0  0  0  0  0  0
   -0.5397  -10.4086    4.2683 H   0  0  0  0  0  0  0  0  0  0  0  0
  1  2  1  0
  1 42  1  0
  1 43  1  0
  1 44  1  0
  2 41  1  0
  2  3  1  0
  2 45  1  1
  3 27  1  0
  3  4  1  0
  3 46  1  6
  5  4  1  6
  5 16  1  0
  5 26  1  0
  5  6  1  0
  6  7  1  0
  7 15  1  0
  7  8  1  1
  7 18  1  0
  8 13  2  0
  8  9  1  0
  9 10  2  0
  9 47  1  0
 10 11  1  0
 10 48  1  0
 11 12  2  0
 11 49  1  0
 12 13  1  0
 12 50  1  0
 13 14  1  0
 14 15  1  0
 14 51  1  0
 14 52  1  0
 15 16  1  0
 15 53  1  1
 16 17  2  0
 18 26  1  0
 18 19  1  0
 18 54  1  1
 19 23  1  0
 19 20  1  0
 19 55  1  1
 20 21  1  0
 20 56  1  0
 20 57  1  0
 21 22  1  0
 21 58  1  0
 21 59  1  0
 22 23  1  0
 22 60  1  0
 22 61  1  0
 23 24  1  0
 23 83  1  1
 24 25  1  0
 24 62  1  0
 24 63  1  0
 26 25  1  6
 25 64  1  0
 25 65  1  0
 26 27  1  0
 27 28  1  0
 27 66  1  6
 28 29  1  0
 28 30  1  0
 28 67  1  6
 29 68  1  0
 29 69  1  0
 29 70  1  0
 30 32  1  0
 30 41  1  0
 30 31  1  6
 31 32  1  0
 32 33  1  1
 32 39  1  0
 33 34  1  0
 33 71  1  0
 33 72  1  0
 34 38  1  0
 34 35  2  0
 35 36  1  0
 35 73  1  0
 36 37  1  0
 36 74  1  0
 36 75  1  0
 37 38  1  0
 37 76  1  0
 37 77  1  0
 38 78  1  0
 38 79  1  0
 39 40  2  0
 39 80  1  0
 40 41  1  0
 40 81  1  0
 41 82  1  1
M  CHG  1  23   1
M  END
>  <i_m_ct_stereo_status>  (259) 
1

>  <s_m_source_file>  (259) 
/var/tmp/pbs.5076255.sched01/tmp3ug8vllb/105tp2mz_hs.sdf

>  <i_m_source_file_index>  (259) 
9

>  <i_lp_mmshare_version>  (259) 
48012

>  <i_f3d_flags>  (259) 
0

>  <s_epik_input>  (259) 
W0NIMl0xW0NIMl1bQ0gyXVtDSF09QzFbQ0gyXVtDQEBdKE8yKShbQ0hdPVtDSF0zKVtDQF0yKFtDQEBIXTRbQ0gzXSlbQ0BIXTNbQ0BIXShbQ0gzXSlbQ0BASF0oTzUpW0NASF00W0NAQF02KFtDQEBdNTc4KVtDQEhdKFtDQEBIXTlOKFtDSDJdW0NIMl02KVtDSDJdW0NIMl1bQ0gyXTkpW0NAQF0xKE83KWMyYyhbQ0gyXVtDQEhdMUM4PU8pW2NIXVtjSF1bY0hdW2NIXTI=

>  <s_epik_cmdline>  (259) 
J2VwaWtfcHl0aG9uJywgJy1waHQnLCAnMi4wJywgJy1waCcsICc3LjAnLCAnLXRuJywgJzgnLCAnLW1hJywgJzIwMCcsICctaW1hZScsICc8aW5maWxlLm1hZT4nLCAnLW9tYWUnLCAnPG91dGZpbGUubWFlPic=

>  <r_epik_Ionization_Penalty>  (259) 
0.00363136

>  <r_epik_Ionization_Penalty_Charging>  (259) 
0.00363128

>  <r_epik_Ionization_Penalty_Neutral>  (259) 
8.07351e-08

>  <r_epik_State_Penalty>  (259) 
0.00258292

>  <r_epik_Charging_Adjusted_Penalty>  (259) 
0.00621419

>  <i_epik_Tot_Q>  (259) 
1

>  <i_epik_Tot_abs_Q>  (259) 
1

>  <s_lp_Force_Field>  (259) 
OPLS3e

>  <r_lp_Energy>  (259) 
113.437

>  <b_lp_Chiralities_Consistent>  (259) 
1

>  <s_lp_Variant>  (259) 
96:0-1

>  <s_i_glide_gridfile>  (259) 
pfpi4k_grid

>  <i_i_glide_lignum>  (259) 
9

>  <i_i_glide_rotatable_bonds>  (259) 
2

>  <r_i_docking_score>  (259) 
-3.1968

>  <r_i_glide_ligand_efficiency>  (259) 
-0.0779707

>  <r_i_glide_ligand_efficiency_sa>  (259) 
-0.26886

>  <r_i_glide_ligand_efficiency_ln>  (259) 
-0.678211

>  <r_i_glide_gscore>  (259) 
-3.1968

>  <r_i_glide_lipo>  (259) 
-0.825469

>  <r_i_glide_hbond>  (259) 
-0.158334

>  <r_i_glide_metal>  (259) 
-0

>  <r_i_glide_rewards>  (259) 
0

>  <r_i_glide_evdw>  (259) 
-31.2506

>  <r_i_glide_ecoul>  (259) 
-4.04317

>  <r_i_glide_erotb>  (259) 
0.064211

>  <r_i_glide_esite>  (259) 
-0.1082

>  <r_i_glide_emodel>  (259) 
-41.9715

>  <r_i_glide_energy>  (259) 
-35.2938

>  <r_i_glide_einternal>  (259) 
1.9413

>  <r_i_glide_intrahb_reward>  (259) 
-0

>  <i_i_glide_confnum>  (259) 
2

>  <i_i_glide_posenum>  (259) 
36

>  <r_i_glide_eff_state_penalty>  (259) 
0

>  <ligand_id>  (259) 
96

>  <original_smiles>  (259) 
CC1C2OC34OC5(c6ccccc6CC5C3=O)C3C5CCCN5CCC34C2C(C)C23OC2(CC2=CCCC2)C=CC13

>  <smiles>  (259) 
[H]C1=C(C([H])([H])C23OC24C([H])(C([H])=C3[H])C([H])(C([H])([H])[H])C2([H])OC35OC6(c7c([H])c([H])c([H])c([H])c7C([H])([H])C6([H])C3=O)C3([H])C5(C([H])([H])C([H])([H])[N+]5([H])C([H])([H])C([H])([H])C([H])([H])C35[H])C2([H])C4([H])C([H])([H])[H])C([H])([H])C([H])([H])C1([H])[H]

$$$$
96:0:1
     RDKit          3D

 83 93  0  0  1  0  0  0  0  0999 V2000
    5.3547   -0.1538    3.9714 C   0  0  0  0  0  0  0  0  0  0  0  0
    4.1767   -1.1108    3.6934 C   0  0  2  0  0  0  0  0  0  0  0  0
    4.2582   -2.4302    4.5358 C   0  0  1  0  0  0  0  0  0  0  0  0
    3.0790   -2.6227    5.3073 O   0  0  0  0  0  0  0  0  0  0  0  0
    2.6948   -3.9491    5.2214 C   0  0  2  0  0  0  0  0  0  0  0  0
    1.8141   -4.2187    4.1351 O   0  0  0  0  0  0  0  0  0  0  0  0
    1.6262   -5.6005    4.3845 C   0  0  2  0  0  0  0  0  0  0  0  0
    0.6336   -6.5259    3.7266 C   0  0  0  0  0  0  0  0  0  0  0  0
    0.4025   -6.7749    2.3675 C   0  0  0  0  0  0  0  0  0  0  0  0
   -0.5299   -7.7820    2.0320 C   0  0  0  0  0  0  0  0  0  0  0  0
   -1.1887   -8.5262    3.0395 C   0  0  0  0  0  0  0  0  0  0  0  0
   -0.9638   -8.2480    4.4042 C   0  0  0  0  0  0  0  0  0  0  0  0
   -0.0482   -7.2303    4.7332 C   0  0  0  0  0  0  0  0  0  0  0  0
    0.2992   -6.7044    6.1233 C   0  0  0  0  0  0  0  0  0  0  0  0
    0.8671   -5.3414    5.7027 C   0  0  1  0  0  0  0  0  0  0  0  0
    1.8555   -4.4470    6.4061 C   0  0  0  0  0  0  0  0  0  0  0  0
    1.9858   -4.2411    7.6121 O   0  0  0  0  0  0  0  0  0  0  0  0
    3.1007   -6.0977    4.5327 C   0  0  1  0  0  0  0  0  0  0  0  0
    3.8336   -7.3621    4.0247 C   0  0  1  0  0  0  0  0  0  0  0  0
    4.4397   -7.4538    2.6233 C   0  0  0  0  0  0  0  0  0  0  0  0
    5.4883   -8.5702    2.7458 C   0  0  0  0  0  0  0  0  0  0  0  0
    5.7710   -8.7026    4.2488 C   0  0  0  0  0  0  0  0  0  0  0  0
    4.9821   -7.6517    4.9299 N   0  0  1  0  0  0  0  0  0  0  0  0
    5.7851   -6.4463    5.3379 C   0  0  0  0  0  0  0  0  0  0  0  0
    4.9167   -5.2820    5.9164 C   0  0  0  0  0  0  0  0  0  0  0  0
    3.9079   -4.8220    4.8304 C   0  0  2  0  0  0  0  0  0  0  0  0
    4.5764   -3.8076    3.8499 C   0  0  1  0  0  0  0  0  0  0  0  0
    4.4307   -3.8923    2.3045 C   0  0  1  0  0  0  0  0  0  0  0  0
    3.1437   -4.4455    1.6860 C   0  0  0  0  0  0  0  0  0  0  0  0
    4.7813   -2.5559    1.7160 C   0  0  1  0  0  0  0  0  0  0  0  0
    6.2042   -2.3513    1.6098 O   0  0  0  0  0  0  0  0  0  0  0  0
    5.4200   -2.1918    0.4141 C   0  0  1  0  0  0  0  0  0  0  0  0
    5.6203   -3.1862   -0.7104 C   0  0  0  0  0  0  0  0  0  0  0  0
    4.6045   -3.0604   -1.8372 C   0  0  0  0  0  0  0  0  0  0  0  0
    4.8923   -2.8971   -3.1253 C   0  0  0  0  0  0  0  0  0  0  0  0
    3.6603   -2.8170   -3.9855 C   0  0  0  0  0  0  0  0  0  0  0  0
    2.4883   -2.9693   -2.9985 C   0  0  0  0  0  0  0  0  0  0  0  0
    3.1121   -3.1539   -1.6093 C   0  0  0  0  0  0  0  0  0  0  0  0
    5.0273   -0.7923    0.1775 C   0  0  0  0  0  0  0  0  0  0  0  0
    4.2385   -0.3464    1.1630 C   0  0  0  0  0  0  0  0  0  0  0  0
    3.9255   -1.4111    2.2007 C   0  0  2  0  0  0  0  0  0  0  0  0
    6.3046   -0.5482    3.6200 H   0  0  0  0  0  0  0  0  0  0  0  0
    5.4409    0.0519    5.0387 H   0  0  0  0  0  0  0  0  0  0  0  0
    5.1995    0.8116    3.4925 H   0  0  0  0  0  0  0  0  0  0  0  0
    3.3036   -0.5601    4.0511 H   0  0  0  0  0  0  0  0  0  0  0  0
    5.0256   -2.2857    5.2989 H   0  0  0  0  0  0  0  0  0  0  0  0
    0.9217   -6.2311    1.5972 H   0  0  0  0  0  0  0  0  0  0  0  0
   -0.7120   -8.0129    0.9953 H   0  0  0  0  0  0  0  0  0  0  0  0
   -1.8591   -9.3256    2.7591 H   0  0  0  0  0  0  0  0  0  0  0  0
   -1.4786   -8.8140    5.1709 H   0  0  0  0  0  0  0  0  0  0  0  0
   -0.5708   -6.5910    6.7656 H   0  0  0  0  0  0  0  0  0  0  0  0
    1.0362   -7.3433    6.6161 H   0  0  0  0  0  0  0  0  0  0  0  0
    0.0129   -4.6946    5.4984 H   0  0  0  0  0  0  0  0  0  0  0  0
    2.9408   -6.5713    5.5020 H   0  0  0  0  0  0  0  0  0  0  0  0
    3.1490   -8.2104    4.1191 H   0  0  0  0  0  0  0  0  0  0  0  0
    3.7047   -7.6636    1.8450 H   0  0  0  0  0  0  0  0  0  0  0  0
    4.9805   -6.5493    2.3683 H   0  0  0  0  0  0  0  0  0  0  0  0
    5.1138   -9.5150    2.3442 H   0  0  0  0  0  0  0  0  0  0  0  0
    6.3958   -8.3196    2.1917 H   0  0  0  0  0  0  0  0  0  0  0  0
    5.3834   -9.6630    4.5848 H   0  0  0  0  0  0  0  0  0  0  0  0
    6.8328   -8.6819    4.4900 H   0  0  0  0  0  0  0  0  0  0  0  0
    6.5077   -6.7566    6.0900 H   0  0  0  0  0  0  0  0  0  0  0  0
    6.3649   -6.0880    4.4869 H   0  0  0  0  0  0  0  0  0  0  0  0
    4.4045   -5.6268    6.8159 H   0  0  0  0  0  0  0  0  0  0  0  0
    5.5522   -4.4543    6.2304 H   0  0  0  0  0  0  0  0  0  0  0  0
    5.6584   -3.9124    3.9539 H   0  0  0  0  0  0  0  0  0  0  0  0
    5.2198   -4.5477    1.9554 H   0  0  0  0  0  0  0  0  0  0  0  0
    2.2718   -3.7948    1.7912 H   0  0  0  0  0  0  0  0  0  0  0  0
    2.8947   -5.4306    2.0591 H   0  0  0  0  0  0  0  0  0  0  0  0
    3.3363   -4.5996    0.6330 H   0  0  0  0  0  0  0  0  0  0  0  0
    6.6285   -3.0523   -1.1023 H   0  0  0  0  0  0  0  0  0  0  0  0
    5.5724   -4.1950   -0.3083 H   0  0  0  0  0  0  0  0  0  0  0  0
    5.8934   -2.8402   -3.5157 H   0  0  0  0  0  0  0  0  0  0  0  0
    3.6126   -1.8570   -4.4965 H   0  0  0  0  0  0  0  0  0  0  0  0
    3.6655   -3.6270   -4.7159 H   0  0  0  0  0  0  0  0  0  0  0  0
    1.8202   -2.1114   -3.0060 H   0  0  0  0  0  0  0  0  0  0  0  0
    1.8878   -3.8464   -3.2384 H   0  0  0  0  0  0  0  0  0  0  0  0
    2.8155   -4.1463   -1.2718 H   0  0  0  0  0  0  0  0  0  0  0  0
    2.7703   -2.3985   -0.8969 H   0  0  0  0  0  0  0  0  0  0  0  0
    5.3578   -0.2398   -0.6864 H   0  0  0  0  0  0  0  0  0  0  0  0
    3.8241    0.6460    1.2106 H   0  0  0  0  0  0  0  0  0  0  0  0
    2.8716   -1.6636    2.0711 H   0  0  0  0  0  0  0  0  0  0  0  0
    4.6148   -8.0473    5.7853 H   0  0  0  0  0  0  0  0  0  0  0  0
  1  2  1  0
  1 42  1  0
  1 43  1  0
  1 44  1  0
  2 41  1  0
  2  3  1  0
  2 45  1  1
  3 27  1  0
  3  4  1  0
  3 46  1  1
  5  4  1  1
  5 16  1  0
  5 26  1  0
  5  6  1  0
  6  7  1  0
  7 15  1  0
  7  8  1  6
  7 18  1  0
  8 13  2  0
  8  9  1  0
  9 10  2  0
  9 47  1  0
 10 11  1  0
 10 48  1  0
 11 12  2  0
 11 49  1  0
 12 13  1  0
 12 50  1  0
 13 14  1  0
 14 15  1  0
 14 51  1  0
 14 52  1  0
 15 16  1  0
 15 53  1  6
 16 17  2  0
 18 26  1  0
 18 19  1  0
 18 54  1  1
 19 23  1  0
 19 20  1  0
 19 55  1  6
 20 21  1  0
 20 56  1  0
 20 57  1  0
 21 22  1  0
 21 58  1  0
 21 59  1  0
 22 23  1  0
 22 60  1  0
 22 61  1  0
 23 24  1  0
 23 83  1  1
 24 25  1  0
 24 62  1  0
 24 63  1  0
 26 25  1  1
 25 64  1  0
 25 65  1  0
 26 27  1  0
 27 28  1  0
 27 66  1  6
 28 29  1  0
 28 30  1  0
 28 67  1  6
 29 68  1  0
 29 69  1  0
 29 70  1  0
 30 32  1  0
 30 41  1  0
 30 31  1  1
 31 32  1  0
 32 33  1  6
 32 39  1  0
 33 34  1  0
 33 71  1  0
 33 72  1  0
 34 38  1  0
 34 35  2  0
 35 36  1  0
 35 73  1  0
 36 37  1  0
 36 74  1  0
 36 75  1  0
 37 38  1  0
 37 76  1  0
 37 77  1  0
 38 78  1  0
 38 79  1  0
 39 40  2  0
 39 80  1  0
 40 41  1  0
 40 81  1  0
 41 82  1  1
M  CHG  1  23   1
M  END
>  <i_m_ct_stereo_status>  (260) 
1

>  <s_m_source_file>  (260) 
/var/tmp/pbs.5076255.sched01/tmp3ug8vllb/105tp2mz_hs.sdf

>  <i_m_source_file_index>  (260) 
9

>  <i_lp_mmshare_version>  (260) 
48012

>  <i_f3d_flags>  (260) 
0

>  <s_epik_input>  (260) 
W0NIMl0xW0NIMl1bQ0gyXVtDSF09QzFbQ0gyXVtDQEBdKE8yKShbQ0hdPVtDSF0zKVtDQF0yKFtDQEBIXTRbQ0gzXSlbQ0BIXTNbQ0BIXShbQ0gzXSlbQ0BASF0oTzUpW0NASF00W0NAQF02KFtDQEBdNTc4KVtDQEhdKFtDQEBIXTlOKFtDSDJdW0NIMl02KVtDSDJdW0NIMl1bQ0gyXTkpW0NAQF0xKE83KWMyYyhbQ0gyXVtDQEhdMUM4PU8pW2NIXVtjSF1bY0hdW2NIXTI=

>  <s_epik_cmdline>  (260) 
J2VwaWtfcHl0aG9uJywgJy1waHQnLCAnMi4wJywgJy1waCcsICc3LjAnLCAnLXRuJywgJzgnLCAnLW1hJywgJzIwMCcsICctaW1hZScsICc8aW5maWxlLm1hZT4nLCAnLW9tYWUnLCAnPG91dGZpbGUubWFlPic=

>  <r_epik_Ionization_Penalty>  (260) 
0.00363136

>  <r_epik_Ionization_Penalty_Charging>  (260) 
0.00363128

>  <r_epik_Ionization_Penalty_Neutral>  (260) 
8.07351e-08

>  <r_epik_State_Penalty>  (260) 
0.00258292

>  <r_epik_Charging_Adjusted_Penalty>  (260) 
0.00621419

>  <i_epik_Tot_Q>  (260) 
1

>  <i_epik_Tot_abs_Q>  (260) 
1

>  <s_lp_Force_Field>  (260) 
OPLS3e

>  <r_lp_Energy>  (260) 
113.437

>  <b_lp_Chiralities_Consistent>  (260) 
1

>  <s_lp_Variant>  (260) 
96:0-1

>  <s_i_glide_gridfile>  (260) 
pfpi4k_grid

>  <i_i_glide_lignum>  (260) 
9

>  <i_i_glide_rotatable_bonds>  (260) 
2

>  <r_i_docking_score>  (260) 
-2.65352

>  <r_i_glide_ligand_efficiency>  (260) 
-0.06472

>  <r_i_glide_ligand_efficiency_sa>  (260) 
-0.223169

>  <r_i_glide_ligand_efficiency_ln>  (260) 
-0.562953

>  <r_i_glide_gscore>  (260) 
-2.65352

>  <r_i_glide_lipo>  (260) 
-0.812777

>  <r_i_glide_hbond>  (260) 
0

>  <r_i_glide_metal>  (260) 
-0

>  <r_i_glide_rewards>  (260) 
0

>  <r_i_glide_evdw>  (260) 
-32.1214

>  <r_i_glide_ecoul>  (260) 
-1.99254

>  <r_i_glide_erotb>  (260) 
0.064211

>  <r_i_glide_esite>  (260) 
0

>  <r_i_glide_emodel>  (260) 
-39.7026

>  <r_i_glide_energy>  (260) 
-34.114

>  <r_i_glide_einternal>  (260) 
1.60594

>  <r_i_glide_intrahb_reward>  (260) 
-0

>  <i_i_glide_confnum>  (260) 
4

>  <i_i_glide_posenum>  (260) 
40

>  <r_i_glide_eff_state_penalty>  (260) 
0

>  <ligand_id>  (260) 
96

>  <original_smiles>  (260) 
CC1C2OC34OC5(c6ccccc6CC5C3=O)C3C5CCCN5CCC34C2C(C)C23OC2(CC2=CCCC2)C=CC13

>  <smiles>  (260) 
[H]C1=C(C([H])([H])C23OC24C([H])(C([H])=C3[H])C([H])(C([H])([H])[H])C2([H])OC35OC6(c7c([H])c([H])c([H])c([H])c7C([H])([H])C6([H])C3=O)C3([H])C5(C([H])([H])C([H])([H])[N+]5([H])C([H])([H])C([H])([H])C([H])([H])C35[H])C2([H])C4([H])C([H])([H])[H])C([H])([H])C([H])([H])C1([H])[H]

$$$$
96:0:2
     RDKit          3D

 83 93  0  0  1  0  0  0  0  0999 V2000
    4.7147    0.2501    4.7252 C   0  0  0  0  0  0  0  0  0  0  0  0
    3.6623   -0.8377    4.4148 C   0  0  2  0  0  0  0  0  0  0  0  0
    3.9475   -2.1846    5.1660 C   0  0  1  0  0  0  0  0  0  0  0  0
    2.8368   -2.5886    5.9539 O   0  0  0  0  0  0  0  0  0  0  0  0
    2.6352   -3.9476    5.7919 C   0  0  2  0  0  0  0  0  0  0  0  0
    1.7628   -4.2692    4.7125 O   0  0  0  0  0  0  0  0  0  0  0  0
    1.7716   -5.6748    4.8777 C   0  0  2  0  0  0  0  0  0  0  0  0
    0.8941   -6.6837    4.1836 C   0  0  0  0  0  0  0  0  0  0  0  0
    0.6483   -6.8752    2.8170 C   0  0  0  0  0  0  0  0  0  0  0  0
   -0.1417   -7.9852    2.4365 C   0  0  0  0  0  0  0  0  0  0  0  0
   -0.6520   -8.8718    3.4128 C   0  0  0  0  0  0  0  0  0  0  0  0
   -0.4188   -8.6516    4.7854 C   0  0  0  0  0  0  0  0  0  0  0  0
    0.3551   -7.5380    5.1578 C   0  0  0  0  0  0  0  0  0  0  0  0
    0.6776   -7.0622    6.5714 C   0  0  0  0  0  0  0  0  0  0  0  0
    1.0341   -5.6076    6.2327 C   0  0  1  0  0  0  0  0  0  0  0  0
    1.9162   -4.6316    6.9625 C   0  0  0  0  0  0  0  0  0  0  0  0
    2.0691   -4.4825    8.1770 O   0  0  0  0  0  0  0  0  0  0  0  0
    3.3065   -5.9705    4.9496 C   0  0  1  0  0  0  0  0  0  0  0  0
    4.1878   -7.0884    4.3389 C   0  0  1  0  0  0  0  0  0  0  0  0
    4.7478   -7.0061    2.9198 C   0  0  0  0  0  0  0  0  0  0  0  0
    5.9447   -7.9707    2.9351 C   0  0  0  0  0  0  0  0  0  0  0  0
    6.2984   -8.1578    4.4165 C   0  0  0  0  0  0  0  0  0  0  0  0
    5.3988   -7.2706    5.1912 N   0  0  1  0  0  0  0  0  0  0  0  0
    6.0429   -5.9929    5.6566 C   0  0  0  0  0  0  0  0  0  0  0  0
    5.0439   -4.9982    6.3342 C   0  0  0  0  0  0  0  0  0  0  0  0
    3.9402   -4.6184    5.3075 C   0  0  2  0  0  0  0  0  0  0  0  0
    4.4120   -3.4581    4.3747 C   0  0  1  0  0  0  0  0  0  0  0  0
    4.2198   -3.4588    2.8233 C   0  0  1  0  0  0  0  0  0  0  0  0
    2.9942   -4.1345    2.1760 C   0  0  0  0  0  0  0  0  0  0  0  0
    4.3831   -2.0504    2.3224 C   0  0  1  0  0  0  0  0  0  0  0  0
    5.7555   -1.6418    2.2361 O   0  0  0  0  0  0  0  0  0  0  0  0
    4.9602   -1.5132    1.0440 C   0  0  1  0  0  0  0  0  0  0  0  0
    5.2470   -2.4147   -0.1515 C   0  0  0  0  0  0  0  0  0  0  0  0
    6.5911   -3.1184   -0.0739 C   0  0  0  0  0  0  0  0  0  0  0  0
    6.8447   -4.3173    0.4583 C   0  0  0  0  0  0  0  0  0  0  0  0
    8.2952   -4.6936    0.3851 C   0  0  0  0  0  0  0  0  0  0  0  0
    8.9450   -3.5067   -0.3550 C   0  0  0  0  0  0  0  0  0  0  0  0
    7.8252   -2.4820   -0.6462 C   0  0  0  0  0  0  0  0  0  0  0  0
    4.3231   -0.1902    0.9017 C   0  0  0  0  0  0  0  0  0  0  0  0
    3.5094    0.0738    1.9384 C   0  0  0  0  0  0  0  0  0  0  0  0
    3.3909   -1.0784    2.9139 C   0  0  2  0  0  0  0  0  0  0  0  0
    5.7056    0.0071    4.3440 H   0  0  0  0  0  0  0  0  0  0  0  0
    4.8008    0.4032    5.8012 H   0  0  0  0  0  0  0  0  0  0  0  0
    4.4209    1.2143    4.3066 H   0  0  0  0  0  0  0  0  0  0  0  0
    2.7384   -0.4379    4.8374 H   0  0  0  0  0  0  0  0  0  0  0  0
    4.7152   -1.9898    5.9152 H   0  0  0  0  0  0  0  0  0  0  0  0
    1.0533   -6.2111    2.0736 H   0  0  0  0  0  0  0  0  0  0  0  0
   -0.3284   -8.1813    1.3924 H   0  0  0  0  0  0  0  0  0  0  0  0
   -1.2206   -9.7362    3.1042 H   0  0  0  0  0  0  0  0  0  0  0  0
   -0.8269   -9.3237    5.5298 H   0  0  0  0  0  0  0  0  0  0  0  0
   -0.1734   -7.1258    7.2489 H   0  0  0  0  0  0  0  0  0  0  0  0
    1.5099   -7.6208    7.0032 H   0  0  0  0  0  0  0  0  0  0  0  0
    0.0902   -5.0760    6.0962 H   0  0  0  0  0  0  0  0  0  0  0  0
    3.2498   -6.5221    5.8888 H   0  0  0  0  0  0  0  0  0  0  0  0
    3.6305   -8.0292    4.3971 H   0  0  0  0  0  0  0  0  0  0  0  0
    4.0224   -7.2646    2.1491 H   0  0  0  0  0  0  0  0  0  0  0  0
    5.1471   -6.0194    2.7204 H   0  0  0  0  0  0  0  0  0  0  0  0
    5.6893   -8.9299    2.4827 H   0  0  0  0  0  0  0  0  0  0  0  0
    6.7884   -7.5631    2.3753 H   0  0  0  0  0  0  0  0  0  0  0  0
    6.0567   -9.1825    4.7010 H   0  0  0  0  0  0  0  0  0  0  0  0
    7.3559   -8.0085    4.6329 H   0  0  0  0  0  0  0  0  0  0  0  0
    6.8302   -6.2476    6.3668 H   0  0  0  0  0  0  0  0  0  0  0  0
    6.5401   -5.5049    4.8180 H   0  0  0  0  0  0  0  0  0  0  0  0
    4.6210   -5.4689    7.2213 H   0  0  0  0  0  0  0  0  0  0  0  0
    5.5711   -4.1144    6.6877 H   0  0  0  0  0  0  0  0  0  0  0  0
    5.5007   -3.4200    4.4413 H   0  0  0  0  0  0  0  0  0  0  0  0
    5.0860   -3.9767    2.4407 H   0  0  0  0  0  0  0  0  0  0  0  0
    2.0483   -3.6437    2.4008 H   0  0  0  0  0  0  0  0  0  0  0  0
    2.9269   -5.1760    2.4620 H   0  0  0  0  0  0  0  0  0  0  0  0
    3.0854   -4.1504    1.0939 H   0  0  0  0  0  0  0  0  0  0  0  0
    4.4627   -3.1624   -0.2215 H   0  0  0  0  0  0  0  0  0  0  0  0
    5.1782   -1.8365   -1.0751 H   0  0  0  0  0  0  0  0  0  0  0  0
    6.1196   -4.9815    0.8963 H   0  0  0  0  0  0  0  0  0  0  0  0
    8.7008   -4.8198    1.3895 H   0  0  0  0  0  0  0  0  0  0  0  0
    8.4092   -5.6330   -0.1549 H   0  0  0  0  0  0  0  0  0  0  0  0
    9.7237   -3.0443    0.2492 H   0  0  0  0  0  0  0  0  0  0  0  0
    9.3993   -3.8546   -1.2829 H   0  0  0  0  0  0  0  0  0  0  0  0
    7.6934   -2.3380   -1.7206 H   0  0  0  0  0  0  0  0  0  0  0  0
    8.0166   -1.5212   -0.1658 H   0  0  0  0  0  0  0  0  0  0  0  0
    4.5398    0.4903    0.0946 H   0  0  0  0  0  0  0  0  0  0  0  0
    2.9769    1.0005    2.0672 H   0  0  0  0  0  0  0  0  0  0  0  0
    2.3790   -1.4692    2.8059 H   0  0  0  0  0  0  0  0  0  0  0  0
    5.1204   -7.7653    6.0280 H   0  0  0  0  0  0  0  0  0  0  0  0
  1  2  1  0
  1 42  1  0
  1 43  1  0
  1 44  1  0
  2 41  1  0
  2  3  1  0
  2 45  1  1
  3 27  1  0
  3  4  1  0
  3 46  1  1
  5  4  1  1
  5 16  1  0
  5 26  1  0
  5  6  1  0
  6  7  1  0
  7 15  1  0
  7  8  1  6
  7 18  1  0
  8 13  2  0
  8  9  1  0
  9 10  2  0
  9 47  1  0
 10 11  1  0
 10 48  1  0
 11 12  2  0
 11 49  1  0
 12 13  1  0
 12 50  1  0
 13 14  1  0
 14 15  1  0
 14 51  1  0
 14 52  1  0
 15 16  1  0
 15 53  1  6
 16 17  2  0
 18 26  1  0
 18 19  1  0
 18 54  1  1
 19 23  1  0
 19 20  1  0
 19 55  1  6
 20 21  1  0
 20 56  1  0
 20 57  1  0
 21 22  1  0
 21 58  1  0
 21 59  1  0
 22 23  1  0
 22 60  1  0
 22 61  1  0
 23 24  1  0
 23 83  1  1
 24 25  1  0
 24 62  1  0
 24 63  1  0
 26 25  1  1
 25 64  1  0
 25 65  1  0
 26 27  1  0
 27 28  1  0
 27 66  1  6
 28 29  1  0
 28 30  1  0
 28 67  1  6
 29 68  1  0
 29 69  1  0
 29 70  1  0
 30 32  1  0
 30 41  1  0
 30 31  1  1
 31 32  1  0
 32 33  1  6
 32 39  1  0
 33 34  1  0
 33 71  1  0
 33 72  1  0
 34 38  1  0
 34 35  2  0
 35 36  1  0
 35 73  1  0
 36 37  1  0
 36 74  1  0
 36 75  1  0
 37 38  1  0
 37 76  1  0
 37 77  1  0
 38 78  1  0
 38 79  1  0
 39 40  2  0
 39 80  1  0
 40 41  1  0
 40 81  1  0
 41 82  1  1
M  CHG  1  23   1
M  END
>  <i_m_ct_stereo_status>  (261) 
1

>  <s_m_source_file>  (261) 
/var/tmp/pbs.5076255.sched01/tmp3ug8vllb/105tp2mz_hs.sdf

>  <i_m_source_file_index>  (261) 
9

>  <i_lp_mmshare_version>  (261) 
48012

>  <i_f3d_flags>  (261) 
0

>  <s_epik_input>  (261) 
W0NIMl0xW0NIMl1bQ0gyXVtDSF09QzFbQ0gyXVtDQEBdKE8yKShbQ0hdPVtDSF0zKVtDQF0yKFtDQEBIXTRbQ0gzXSlbQ0BIXTNbQ0BIXShbQ0gzXSlbQ0BASF0oTzUpW0NASF00W0NAQF02KFtDQEBdNTc4KVtDQEhdKFtDQEBIXTlOKFtDSDJdW0NIMl02KVtDSDJdW0NIMl1bQ0gyXTkpW0NAQF0xKE83KWMyYyhbQ0gyXVtDQEhdMUM4PU8pW2NIXVtjSF1bY0hdW2NIXTI=

>  <s_epik_cmdline>  (261) 
J2VwaWtfcHl0aG9uJywgJy1waHQnLCAnMi4wJywgJy1waCcsICc3LjAnLCAnLXRuJywgJzgnLCAnLW1hJywgJzIwMCcsICctaW1hZScsICc8aW5maWxlLm1hZT4nLCAnLW9tYWUnLCAnPG91dGZpbGUubWFlPic=

>  <r_epik_Ionization_Penalty>  (261) 
0.00363136

>  <r_epik_Ionization_Penalty_Charging>  (261) 
0.00363128

>  <r_epik_Ionization_Penalty_Neutral>  (261) 
8.07351e-08

>  <r_epik_State_Penalty>  (261) 
0.00258292

>  <r_epik_Charging_Adjusted_Penalty>  (261) 
0.00621419

>  <i_epik_Tot_Q>  (261) 
1

>  <i_epik_Tot_abs_Q>  (261) 
1

>  <s_lp_Force_Field>  (261) 
OPLS3e

>  <r_lp_Energy>  (261) 
113.437

>  <b_lp_Chiralities_Consistent>  (261) 
1

>  <s_lp_Variant>  (261) 
96:0-1

>  <s_i_glide_gridfile>  (261) 
pfpi4k_grid

>  <i_i_glide_lignum>  (261) 
9

>  <i_i_glide_rotatable_bonds>  (261) 
2

>  <r_i_docking_score>  (261) 
-2.2788

>  <r_i_glide_ligand_efficiency>  (261) 
-0.0555804

>  <r_i_glide_ligand_efficiency_sa>  (261) 
-0.191653

>  <r_i_glide_ligand_efficiency_ln>  (261) 
-0.483454

>  <r_i_glide_gscore>  (261) 
-2.2788

>  <r_i_glide_lipo>  (261) 
-0.60988

>  <r_i_glide_hbond>  (261) 
0

>  <r_i_glide_metal>  (261) 
-0

>  <r_i_glide_rewards>  (261) 
0

>  <r_i_glide_evdw>  (261) 
-27.3683

>  <r_i_glide_ecoul>  (261) 
-2.43141

>  <r_i_glide_erotb>  (261) 
0.064211

>  <r_i_glide_esite>  (261) 
0

>  <r_i_glide_emodel>  (261) 
-33.2676

>  <r_i_glide_energy>  (261) 
-29.7998

>  <r_i_glide_einternal>  (261) 
4.08268

>  <r_i_glide_intrahb_reward>  (261) 
-0

>  <i_i_glide_confnum>  (261) 
6

>  <i_i_glide_posenum>  (261) 
26

>  <r_i_glide_eff_state_penalty>  (261) 
0

>  <ligand_id>  (261) 
96

>  <original_smiles>  (261) 
CC1C2OC34OC5(c6ccccc6CC5C3=O)C3C5CCCN5CCC34C2C(C)C23OC2(CC2=CCCC2)C=CC13

>  <smiles>  (261) 
[H]C1=C(C([H])([H])C23OC24C([H])(C([H])=C3[H])C([H])(C([H])([H])[H])C2([H])OC35OC6(c7c([H])c([H])c([H])c([H])c7C([H])([H])C6([H])C3=O)C3([H])C5(C([H])([H])C([H])([H])[N+]5([H])C([H])([H])C([H])([H])C([H])([H])C35[H])C2([H])C4([H])C([H])([H])[H])C([H])([H])C([H])([H])C1([H])[H]

$$$$
97:0:0
     RDKit          3D

 48 51  0  0  1  0  0  0  0  0999 V2000
    3.3566   -2.2258   -2.7283 C   0  0  0  0  0  0  0  0  0  0  0  0
    3.8120   -2.4790   -1.3193 C   0  0  0  0  0  0  0  0  0  0  0  0
    4.7397   -1.7174   -0.6976 C   0  0  0  0  0  0  0  0  0  0  0  0
    5.3028   -1.7726    0.7100 C   0  0  1  0  0  0  0  0  0  0  0  0
    4.2672   -1.7621    1.8517 C   0  0  1  0  0  0  0  0  0  0  0  0
    2.9992   -0.9176    1.6626 C   0  0  0  0  0  0  0  0  0  0  0  0
    3.9650   -3.1339    2.1387 O   0  0  0  0  0  0  0  0  0  0  0  0
    4.8390   -3.9902    1.3913 C   0  0  1  0  0  0  0  0  0  0  0  0
    6.0175   -3.0635    1.0545 C   0  0  1  0  0  0  0  0  0  0  0  0
    7.0971   -3.7165    0.1697 C   0  0  1  0  0  0  0  0  0  0  0  0
    8.2363   -2.7433   -0.1951 C   0  0  0  0  0  0  0  0  0  0  0  0
    7.6480   -4.9313    0.9526 C   0  0  0  0  0  0  0  0  0  0  0  0
    6.5555   -5.8617    1.5080 C   0  0  0  0  0  0  0  0  0  0  0  0
    6.7402   -7.0746    1.5074 O   0  0  0  0  0  0  0  0  0  0  0  0
    5.3070   -5.2301    2.1924 C   0  0  1  0  0  0  0  0  0  0  0  0
    5.6689   -4.8513    3.5065 O   0  0  0  0  0  0  0  0  0  0  0  0
    4.0575   -6.1786    2.1893 C   0  0  1  0  0  0  0  0  0  0  0  0
    3.4177   -6.4347    3.5747 C   0  0  0  0  0  0  0  0  0  0  0  0
    3.0886   -5.6430    1.0816 C   0  0  1  0  0  0  0  0  0  0  0  0
    1.9466   -5.0877    1.7332 O   0  0  0  0  0  0  0  0  0  0  0  0
    3.9184   -4.5854    0.2612 C   0  0  2  0  0  0  0  0  0  0  0  0
    4.6202   -5.4030   -0.6566 O   0  0  0  0  0  0  0  0  0  0  0  0
    3.1128   -3.5969   -0.6100 C   0  0  0  0  0  0  0  0  0  0  0  0
    1.9489   -3.8960   -0.8783 O   0  0  0  0  0  0  0  0  0  0  0  0
    3.4277   -3.1443   -3.3054 H   0  0  0  0  0  0  0  0  0  0  0  0
    3.9713   -1.4694   -3.2046 H   0  0  0  0  0  0  0  0  0  0  0  0
    2.3220   -1.8874   -2.7368 H   0  0  0  0  0  0  0  0  0  0  0  0
    5.1509   -0.9035   -1.2810 H   0  0  0  0  0  0  0  0  0  0  0  0
    5.9804   -0.9210    0.8085 H   0  0  0  0  0  0  0  0  0  0  0  0
    4.7740   -1.3770    2.7399 H   0  0  0  0  0  0  0  0  0  0  0  0
    3.2343    0.1174    1.4166 H   0  0  0  0  0  0  0  0  0  0  0  0
    2.4087   -0.9144    2.5785 H   0  0  0  0  0  0  0  0  0  0  0  0
    2.3555   -1.3099    0.8788 H   0  0  0  0  0  0  0  0  0  0  0  0
    6.5218   -2.8384    1.9955 H   0  0  0  0  0  0  0  0  0  0  0  0
    6.6607   -4.0442   -0.7636 H   0  0  0  0  0  0  0  0  0  0  0  0
    8.7489   -2.3362    0.6753 H   0  0  0  0  0  0  0  0  0  0  0  0
    7.8730   -1.9109   -0.7903 H   0  0  0  0  0  0  0  0  0  0  0  0
    8.9905   -3.2554   -0.8022 H   0  0  0  0  0  0  0  0  0  0  0  0
    8.3238   -5.5067    0.3212 H   0  0  0  0  0  0  0  0  0  0  0  0
    8.2440   -4.5886    1.7981 H   0  0  0  0  0  0  0  0  0  0  0  0
    5.9304   -5.6280    3.9590 H   0  0  0  0  0  0  0  0  0  0  0  0
    4.3551   -7.1684    1.8407 H   0  0  0  0  0  0  0  0  0  0  0  0
    3.0965   -5.5075    4.0524 H   0  0  0  0  0  0  0  0  0  0  0  0
    4.1233   -6.9182    4.2504 H   0  0  0  0  0  0  0  0  0  0  0  0
    2.5492   -7.0899    3.5025 H   0  0  0  0  0  0  0  0  0  0  0  0
    2.7233   -6.4632    0.4645 H   0  0  0  0  0  0  0  0  0  0  0  0
    2.2399   -4.3409    2.2226 H   0  0  0  0  0  0  0  0  0  0  0  0
    3.9999   -5.7137   -1.3163 H   0  0  0  0  0  0  0  0  0  0  0  0
  1  2  1  0
  1 25  1  0
  1 26  1  0
  1 27  1  0
  2 23  1  0
  2  3  2  0
  3  4  1  0
  3 28  1  0
  4  9  1  0
  4  5  1  0
  4 29  1  1
  5  6  1  0
  5  7  1  0
  5 30  1  1
  6 31  1  0
  6 32  1  0
  6 33  1  0
  8  7  1  1
  8 15  1  0
  8 21  1  0
  8  9  1  0
  9 10  1  0
  9 34  1  1
 10 11  1  0
 10 12  1  0
 10 35  1  6
 11 36  1  0
 11 37  1  0
 11 38  1  0
 12 13  1  0
 12 39  1  0
 12 40  1  0
 13 14  2  0
 13 15  1  0
 15 16  1  1
 15 17  1  0
 16 41  1  0
 17 18  1  0
 17 19  1  0
 17 42  1  6
 18 43  1  0
 18 44  1  0
 18 45  1  0
 19 20  1  0
 19 21  1  0
 19 46  1  6
 20 47  1  0
 21 22  1  6
 21 23  1  0
 22 48  1  0
 23 24  2  0
M  END
>  <i_m_ct_stereo_status>  (262) 
1

>  <s_m_source_file>  (262) 
/var/tmp/pbs.5076255.sched01/tmp3ug8vllb/105tp2mz_hs.sdf

>  <i_m_source_file_index>  (262) 
10

>  <i_lp_mmshare_version>  (262) 
48012

>  <i_f3d_flags>  (262) 
0

>  <s_epik_input>  (262) 
W0NIM11bQ0BASF0oTzEpW0NAQEhdKFtDQEhdMltDQF0xMzQpW0NIXT1DKFtDSDNdKUMoPU8pW0NAXTQoW09IXSlbQ0BIXShbT0hdKVtDQEhdKFtDSDNdKVtDQEBdMyhbT0hdKUMoPU8pW0NIMl1bQ0BASF0yW0NIM10=

>  <s_epik_cmdline>  (262) 
J2VwaWtfcHl0aG9uJywgJy1waHQnLCAnMi4wJywgJy1waCcsICc3LjAnLCAnLXRuJywgJzgnLCAnLW1hJywgJzIwMCcsICctaW1hZScsICc8aW5maWxlLm1hZT4nLCAnLW9tYWUnLCAnPG91dGZpbGUubWFlPic=

>  <r_lp_tautomer_probability>  (262) 
1

>  <r_epik_Ionization_Penalty>  (262) 
7.61863e-06

>  <r_epik_Ionization_Penalty_Charging>  (262) 
0

>  <r_epik_Ionization_Penalty_Neutral>  (262) 
7.61863e-06

>  <r_epik_State_Penalty>  (262) 
-0

>  <r_epik_Charging_Adjusted_Penalty>  (262) 
0

>  <i_epik_Tot_Q>  (262) 
0

>  <i_epik_Tot_abs_Q>  (262) 
0

>  <s_lp_Force_Field>  (262) 
OPLS3e

>  <r_lp_Energy>  (262) 
46.0631

>  <b_lp_Chiralities_Consistent>  (262) 
1

>  <s_lp_Variant>  (262) 
97:0-1

>  <s_i_glide_gridfile>  (262) 
pfpi4k_grid

>  <i_i_glide_lignum>  (262) 
10

>  <i_i_glide_rotatable_bonds>  (262) 
3

>  <r_i_docking_score>  (262) 
-4.40432

>  <r_i_glide_ligand_efficiency>  (262) 
-0.183513

>  <r_i_glide_ligand_efficiency_sa>  (262) 
-0.529344

>  <r_i_glide_ligand_efficiency_ln>  (262) 
-1.05415

>  <r_i_glide_gscore>  (262) 
-4.40432

>  <r_i_glide_lipo>  (262) 
-0.517599

>  <r_i_glide_hbond>  (262) 
-0.00537334

>  <r_i_glide_metal>  (262) 
-0

>  <r_i_glide_rewards>  (262) 
-1.76012

>  <r_i_glide_evdw>  (262) 
-25.2443

>  <r_i_glide_ecoul>  (262) 
-5.72668

>  <r_i_glide_erotb>  (262) 
0

>  <r_i_glide_esite>  (262) 
0

>  <r_i_glide_emodel>  (262) 
-42.6671

>  <r_i_glide_energy>  (262) 
-30.971

>  <r_i_glide_einternal>  (262) 
3.45576

>  <r_i_glide_intrahb_reward>  (262) 
-0.5

>  <i_i_glide_confnum>  (262) 
1

>  <i_i_glide_posenum>  (262) 
32

>  <r_i_glide_eff_state_penalty>  (262) 
0

>  <ligand_id>  (262) 
97

>  <original_smiles>  (262) 
CC1=CC2C(C)OC34C2C(C)CC(=O)C3(O)C(C)C(O)C4(O)C1=O

>  <smiles>  (262) 
[H]OC1([H])C2(O[H])C(=O)C(C([H])([H])[H])=C([H])C3([H])C([H])(C([H])([H])[H])OC24C(O[H])(C(=O)C([H])([H])C([H])(C([H])([H])[H])C34[H])C1([H])C([H])([H])[H]

$$$$
97:0:1
     RDKit          3D

 48 51  0  0  1  0  0  0  0  0999 V2000
    3.6293   -2.2107   -2.6899 C   0  0  0  0  0  0  0  0  0  0  0  0
    4.0389   -2.4672   -1.2499 C   0  0  0  0  0  0  0  0  0  0  0  0
    4.9404   -1.6825   -0.6228 C   0  0  0  0  0  0  0  0  0  0  0  0
    5.4516   -1.7371    0.8125 C   0  0  1  0  0  0  0  0  0  0  0  0
    4.3783   -1.7289    1.9207 C   0  0  1  0  0  0  0  0  0  0  0  0
    3.1094   -0.8970    1.6798 C   0  0  0  0  0  0  0  0  0  0  0  0
    4.0906   -3.1032    2.2204 O   0  0  0  0  0  0  0  0  0  0  0  0
    4.9873   -3.9538    1.4898 C   0  0  1  0  0  0  0  0  0  0  0  0
    6.1589   -3.0184    1.1785 C   0  0  1  0  0  0  0  0  0  0  0  0
    7.2845   -3.6623    0.3419 C   0  0  1  0  0  0  0  0  0  0  0  0
    8.4252   -2.6873    0.0031 C   0  0  0  0  0  0  0  0  0  0  0  0
    7.8177   -4.8726    1.1491 C   0  0  0  0  0  0  0  0  0  0  0  0
    6.7220   -5.8125    1.6852 C   0  0  0  0  0  0  0  0  0  0  0  0
    6.8799   -7.0226    1.6228 O   0  0  0  0  0  0  0  0  0  0  0  0
    5.4339   -5.1847    2.3161 C   0  0  1  0  0  0  0  0  0  0  0  0
    5.7649   -4.7907    3.6324 O   0  0  0  0  0  0  0  0  0  0  0  0
    4.1972   -6.1444    2.2626 C   0  0  1  0  0  0  0  0  0  0  0  0
    3.5056   -6.4002    3.6261 C   0  0  0  0  0  0  0  0  0  0  0  0
    3.2664   -5.6211    1.1185 C   0  0  1  0  0  0  0  0  0  0  0  0
    2.0933   -5.0891    1.7173 O   0  0  0  0  0  0  0  0  0  0  0  0
    4.1240   -4.5694    0.3359 C   0  0  2  0  0  0  0  0  0  0  0  0
    4.9086   -5.3400   -0.5575 O   0  0  0  0  0  0  0  0  0  0  0  0
    3.3383   -3.5813   -0.5787 C   0  0  0  0  0  0  0  0  0  0  0  0
    2.1606   -3.8541   -0.8285 O   0  0  0  0  0  0  0  0  0  0  0  0
    3.7264   -3.1296   -3.2616 H   0  0  0  0  0  0  0  0  0  0  0  0
    4.2547   -1.4520   -3.1454 H   0  0  0  0  0  0  0  0  0  0  0  0
    2.5940   -1.8784   -2.7332 H   0  0  0  0  0  0  0  0  0  0  0  0
    5.3637   -0.8718   -1.1827 H   0  0  0  0  0  0  0  0  0  0  0  0
    6.1194   -0.8806    0.9303 H   0  0  0  0  0  0  0  0  0  0  0  0
    4.8523   -1.3309    2.8194 H   0  0  0  0  0  0  0  0  0  0  0  0
    3.3484    0.1399    1.4412 H   0  0  0  0  0  0  0  0  0  0  0  0
    2.4891   -0.8928    2.5751 H   0  0  0  0  0  0  0  0  0  0  0  0
    2.4991   -1.2930    0.8707 H   0  0  0  0  0  0  0  0  0  0  0  0
    6.6207   -2.7802    2.1342 H   0  0  0  0  0  0  0  0  0  0  0  0
    6.8964   -3.9941   -0.6169 H   0  0  0  0  0  0  0  0  0  0  0  0
    8.9103   -2.2678    0.8776 H   0  0  0  0  0  0  0  0  0  0  0  0
    8.0731   -1.8549   -0.6045 H   0  0  0  0  0  0  0  0  0  0  0  0
    9.1996   -3.1962   -0.5729 H   0  0  0  0  0  0  0  0  0  0  0  0
    8.5156   -5.4491    0.5424 H   0  0  0  0  0  0  0  0  0  0  0  0
    8.3848   -4.5246    2.0119 H   0  0  0  0  0  0  0  0  0  0  0  0
    4.9945   -4.3767    4.0139 H   0  0  0  0  0  0  0  0  0  0  0  0
    4.5084   -7.1338    1.9345 H   0  0  0  0  0  0  0  0  0  0  0  0
    3.1542   -5.4774    4.0894 H   0  0  0  0  0  0  0  0  0  0  0  0
    4.1941   -6.8753    4.3241 H   0  0  0  0  0  0  0  0  0  0  0  0
    2.6479   -7.0652    3.5224 H   0  0  0  0  0  0  0  0  0  0  0  0
    2.9306   -6.4406    0.4753 H   0  0  0  0  0  0  0  0  0  0  0  0
    2.3454   -4.3209    2.2195 H   0  0  0  0  0  0  0  0  0  0  0  0
    5.2726   -6.0980   -0.1109 H   0  0  0  0  0  0  0  0  0  0  0  0
  1  2  1  0
  1 25  1  0
  1 26  1  0
  1 27  1  0
  2 23  1  0
  2  3  2  0
  3  4  1  0
  3 28  1  0
  4  9  1  0
  4  5  1  0
  4 29  1  1
  5  6  1  0
  5  7  1  0
  5 30  1  1
  6 31  1  0
  6 32  1  0
  6 33  1  0
  8  7  1  1
  8 15  1  0
  8 21  1  0
  8  9  1  0
  9 10  1  0
  9 34  1  1
 10 11  1  0
 10 12  1  0
 10 35  1  6
 11 36  1  0
 11 37  1  0
 11 38  1  0
 12 13  1  0
 12 39  1  0
 12 40  1  0
 13 14  2  0
 13 15  1  0
 15 16  1  1
 15 17  1  0
 16 41  1  0
 17 18  1  0
 17 19  1  0
 17 42  1  6
 18 43  1  0
 18 44  1  0
 18 45  1  0
 19 20  1  0
 19 21  1  0
 19 46  1  6
 20 47  1  0
 21 22  1  6
 21 23  1  0
 22 48  1  0
 23 24  2  0
M  END
>  <i_m_ct_stereo_status>  (263) 
1

>  <s_m_source_file>  (263) 
/var/tmp/pbs.5076255.sched01/tmp3ug8vllb/105tp2mz_hs.sdf

>  <i_m_source_file_index>  (263) 
10

>  <i_lp_mmshare_version>  (263) 
48012

>  <i_f3d_flags>  (263) 
0

>  <s_epik_input>  (263) 
W0NIM11bQ0BASF0oTzEpW0NAQEhdKFtDQEhdMltDQF0xMzQpW0NIXT1DKFtDSDNdKUMoPU8pW0NAXTQoW09IXSlbQ0BIXShbT0hdKVtDQEhdKFtDSDNdKVtDQEBdMyhbT0hdKUMoPU8pW0NIMl1bQ0BASF0yW0NIM10=

>  <s_epik_cmdline>  (263) 
J2VwaWtfcHl0aG9uJywgJy1waHQnLCAnMi4wJywgJy1waCcsICc3LjAnLCAnLXRuJywgJzgnLCAnLW1hJywgJzIwMCcsICctaW1hZScsICc8aW5maWxlLm1hZT4nLCAnLW9tYWUnLCAnPG91dGZpbGUubWFlPic=

>  <r_lp_tautomer_probability>  (263) 
1

>  <r_epik_Ionization_Penalty>  (263) 
7.61863e-06

>  <r_epik_Ionization_Penalty_Charging>  (263) 
0

>  <r_epik_Ionization_Penalty_Neutral>  (263) 
7.61863e-06

>  <r_epik_State_Penalty>  (263) 
-0

>  <r_epik_Charging_Adjusted_Penalty>  (263) 
0

>  <i_epik_Tot_Q>  (263) 
0

>  <i_epik_Tot_abs_Q>  (263) 
0

>  <s_lp_Force_Field>  (263) 
OPLS3e

>  <r_lp_Energy>  (263) 
46.0631

>  <b_lp_Chiralities_Consistent>  (263) 
1

>  <s_lp_Variant>  (263) 
97:0-1

>  <s_i_glide_gridfile>  (263) 
pfpi4k_grid

>  <i_i_glide_lignum>  (263) 
10

>  <i_i_glide_rotatable_bonds>  (263) 
3

>  <r_i_docking_score>  (263) 
-3.59028

>  <r_i_glide_ligand_efficiency>  (263) 
-0.149595

>  <r_i_glide_ligand_efficiency_sa>  (263) 
-0.431507

>  <r_i_glide_ligand_efficiency_ln>  (263) 
-0.85932

>  <r_i_glide_gscore>  (263) 
-3.59028

>  <r_i_glide_lipo>  (263) 
-0.581134

>  <r_i_glide_hbond>  (263) 
0

>  <r_i_glide_metal>  (263) 
-0

>  <r_i_glide_rewards>  (263) 
-1.74585

>  <r_i_glide_evdw>  (263) 
-26.6385

>  <r_i_glide_ecoul>  (263) 
0.457534

>  <r_i_glide_erotb>  (263) 
0

>  <r_i_glide_esite>  (263) 
0

>  <r_i_glide_emodel>  (263) 
-38.053

>  <r_i_glide_energy>  (263) 
-26.181

>  <r_i_glide_einternal>  (263) 
0.0242134

>  <r_i_glide_intrahb_reward>  (263) 
-0.5

>  <i_i_glide_confnum>  (263) 
1

>  <i_i_glide_posenum>  (263) 
15

>  <r_i_glide_eff_state_penalty>  (263) 
0

>  <ligand_id>  (263) 
97

>  <original_smiles>  (263) 
CC1=CC2C(C)OC34C2C(C)CC(=O)C3(O)C(C)C(O)C4(O)C1=O

>  <smiles>  (263) 
[H]OC1([H])C2(O[H])C(=O)C(C([H])([H])[H])=C([H])C3([H])C([H])(C([H])([H])[H])OC24C(O[H])(C(=O)C([H])([H])C([H])(C([H])([H])[H])C34[H])C1([H])C([H])([H])[H]

$$$$
97:0:2
     RDKit          3D

 48 51  0  0  1  0  0  0  0  0999 V2000
    3.6238   -2.1800   -2.6878 C   0  0  0  0  0  0  0  0  0  0  0  0
    4.0339   -2.4485   -1.2502 C   0  0  0  0  0  0  0  0  0  0  0  0
    4.9406   -1.6714   -0.6218 C   0  0  0  0  0  0  0  0  0  0  0  0
    5.4569   -1.7361    0.8114 C   0  0  1  0  0  0  0  0  0  0  0  0
    4.3848   -1.7315    1.9197 C   0  0  1  0  0  0  0  0  0  0  0  0
    3.1180   -0.8942    1.6889 C   0  0  0  0  0  0  0  0  0  0  0  0
    4.0806   -3.1056    2.1934 O   0  0  0  0  0  0  0  0  0  0  0  0
    4.9824   -3.9577    1.4719 C   0  0  1  0  0  0  0  0  0  0  0  0
    6.1574   -3.0248    1.1673 C   0  0  1  0  0  0  0  0  0  0  0  0
    7.2808   -3.6661    0.3250 C   0  0  1  0  0  0  0  0  0  0  0  0
    8.4242   -2.6942   -0.0063 C   0  0  0  0  0  0  0  0  0  0  0  0
    7.8099   -4.8843    1.1204 C   0  0  0  0  0  0  0  0  0  0  0  0
    6.7116   -5.8224    1.6524 C   0  0  0  0  0  0  0  0  0  0  0  0
    6.8725   -7.0327    1.6017 O   0  0  0  0  0  0  0  0  0  0  0  0
    5.4261   -5.1981    2.2902 C   0  0  1  0  0  0  0  0  0  0  0  0
    5.7506   -4.8228    3.6118 O   0  0  0  0  0  0  0  0  0  0  0  0
    4.1876   -6.1563    2.2307 C   0  0  1  0  0  0  0  0  0  0  0  0
    3.4987   -6.4203    3.5949 C   0  0  0  0  0  0  0  0  0  0  0  0
    3.2557   -5.6180    1.0952 C   0  0  1  0  0  0  0  0  0  0  0  0
    2.0865   -5.0826    1.7008 O   0  0  0  0  0  0  0  0  0  0  0  0
    4.1170   -4.5651    0.3162 C   0  0  2  0  0  0  0  0  0  0  0  0
    4.8968   -5.3290   -0.5865 O   0  0  0  0  0  0  0  0  0  0  0  0
    3.3320   -3.5707   -0.5902 C   0  0  0  0  0  0  0  0  0  0  0  0
    2.1573   -3.8482   -0.8487 O   0  0  0  0  0  0  0  0  0  0  0  0
    3.7174   -3.0946   -3.2670 H   0  0  0  0  0  0  0  0  0  0  0  0
    4.2512   -1.4200   -3.1385 H   0  0  0  0  0  0  0  0  0  0  0  0
    2.5899   -1.8435   -2.7269 H   0  0  0  0  0  0  0  0  0  0  0  0
    5.3652   -0.8580   -1.1783 H   0  0  0  0  0  0  0  0  0  0  0  0
    6.1290   -0.8836    0.9353 H   0  0  0  0  0  0  0  0  0  0  0  0
    4.8619   -1.3498    2.8249 H   0  0  0  0  0  0  0  0  0  0  0  0
    3.3592    0.1439    1.4599 H   0  0  0  0  0  0  0  0  0  0  0  0
    2.5006   -0.8980    2.5867 H   0  0  0  0  0  0  0  0  0  0  0  0
    2.5059   -1.2833    0.8779 H   0  0  0  0  0  0  0  0  0  0  0  0
    6.6214   -2.7979    2.1246 H   0  0  0  0  0  0  0  0  0  0  0  0
    6.8906   -3.9875   -0.6360 H   0  0  0  0  0  0  0  0  0  0  0  0
    8.9099   -2.2852    0.8802 H   0  0  0  0  0  0  0  0  0  0  0  0
    8.0768   -1.8553   -0.6061 H   0  0  0  0  0  0  0  0  0  0  0  0
    9.1967   -3.1995   -0.5871 H   0  0  0  0  0  0  0  0  0  0  0  0
    8.5043   -5.4583    0.5067 H   0  0  0  0  0  0  0  0  0  0  0  0
    8.3825   -4.5446    1.9833 H   0  0  0  0  0  0  0  0  0  0  0  0
    5.9927   -5.6116    4.0764 H   0  0  0  0  0  0  0  0  0  0  0  0
    4.4942   -7.1446    1.8927 H   0  0  0  0  0  0  0  0  0  0  0  0
    3.1584   -5.4957    4.0640 H   0  0  0  0  0  0  0  0  0  0  0  0
    4.1832   -6.9045    4.2904 H   0  0  0  0  0  0  0  0  0  0  0  0
    2.6351   -7.0776    3.4888 H   0  0  0  0  0  0  0  0  0  0  0  0
    2.9146   -6.4340    0.4515 H   0  0  0  0  0  0  0  0  0  0  0  0
    2.3491   -4.3257    2.2149 H   0  0  0  0  0  0  0  0  0  0  0  0
    5.2625   -6.0899   -0.1471 H   0  0  0  0  0  0  0  0  0  0  0  0
  1  2  1  0
  1 25  1  0
  1 26  1  0
  1 27  1  0
  2 23  1  0
  2  3  2  0
  3  4  1  0
  3 28  1  0
  4  9  1  0
  4  5  1  0
  4 29  1  1
  5  6  1  0
  5  7  1  0
  5 30  1  1
  6 31  1  0
  6 32  1  0
  6 33  1  0
  8  7  1  1
  8 15  1  0
  8 21  1  0
  8  9  1  0
  9 10  1  0
  9 34  1  1
 10 11  1  0
 10 12  1  0
 10 35  1  6
 11 36  1  0
 11 37  1  0
 11 38  1  0
 12 13  1  0
 12 39  1  0
 12 40  1  0
 13 14  2  0
 13 15  1  0
 15 16  1  1
 15 17  1  0
 16 41  1  0
 17 18  1  0
 17 19  1  0
 17 42  1  6
 18 43  1  0
 18 44  1  0
 18 45  1  0
 19 20  1  0
 19 21  1  0
 19 46  1  6
 20 47  1  0
 21 22  1  6
 21 23  1  0
 22 48  1  0
 23 24  2  0
M  END
>  <i_m_ct_stereo_status>  (264) 
1

>  <s_m_source_file>  (264) 
/var/tmp/pbs.5076255.sched01/tmp3ug8vllb/105tp2mz_hs.sdf

>  <i_m_source_file_index>  (264) 
10

>  <i_lp_mmshare_version>  (264) 
48012

>  <i_f3d_flags>  (264) 
0

>  <s_epik_input>  (264) 
W0NIM11bQ0BASF0oTzEpW0NAQEhdKFtDQEhdMltDQF0xMzQpW0NIXT1DKFtDSDNdKUMoPU8pW0NAXTQoW09IXSlbQ0BIXShbT0hdKVtDQEhdKFtDSDNdKVtDQEBdMyhbT0hdKUMoPU8pW0NIMl1bQ0BASF0yW0NIM10=

>  <s_epik_cmdline>  (264) 
J2VwaWtfcHl0aG9uJywgJy1waHQnLCAnMi4wJywgJy1waCcsICc3LjAnLCAnLXRuJywgJzgnLCAnLW1hJywgJzIwMCcsICctaW1hZScsICc8aW5maWxlLm1hZT4nLCAnLW9tYWUnLCAnPG91dGZpbGUubWFlPic=

>  <r_lp_tautomer_probability>  (264) 
1

>  <r_epik_Ionization_Penalty>  (264) 
7.61863e-06

>  <r_epik_Ionization_Penalty_Charging>  (264) 
0

>  <r_epik_Ionization_Penalty_Neutral>  (264) 
7.61863e-06

>  <r_epik_State_Penalty>  (264) 
-0

>  <r_epik_Charging_Adjusted_Penalty>  (264) 
0

>  <i_epik_Tot_Q>  (264) 
0

>  <i_epik_Tot_abs_Q>  (264) 
0

>  <s_lp_Force_Field>  (264) 
OPLS3e

>  <r_lp_Energy>  (264) 
46.0631

>  <b_lp_Chiralities_Consistent>  (264) 
1

>  <s_lp_Variant>  (264) 
97:0-1

>  <s_i_glide_gridfile>  (264) 
pfpi4k_grid

>  <i_i_glide_lignum>  (264) 
10

>  <i_i_glide_rotatable_bonds>  (264) 
3

>  <r_i_docking_score>  (264) 
-3.57603

>  <r_i_glide_ligand_efficiency>  (264) 
-0.149001

>  <r_i_glide_ligand_efficiency_sa>  (264) 
-0.429794

>  <r_i_glide_ligand_efficiency_ln>  (264) 
-0.855908

>  <r_i_glide_gscore>  (264) 
-3.57603

>  <r_i_glide_lipo>  (264) 
-0.57926

>  <r_i_glide_hbond>  (264) 
0

>  <r_i_glide_metal>  (264) 
-0

>  <r_i_glide_rewards>  (264) 
-1.75274

>  <r_i_glide_evdw>  (264) 
-26.6794

>  <r_i_glide_ecoul>  (264) 
0.59959

>  <r_i_glide_erotb>  (264) 
0

>  <r_i_glide_esite>  (264) 
0

>  <r_i_glide_emodel>  (264) 
-37.0968

>  <r_i_glide_energy>  (264) 
-26.0798

>  <r_i_glide_einternal>  (264) 
1.65688

>  <r_i_glide_intrahb_reward>  (264) 
-0.5

>  <i_i_glide_confnum>  (264) 
1

>  <i_i_glide_posenum>  (264) 
7

>  <r_i_glide_eff_state_penalty>  (264) 
0

>  <ligand_id>  (264) 
97

>  <original_smiles>  (264) 
CC1=CC2C(C)OC34C2C(C)CC(=O)C3(O)C(C)C(O)C4(O)C1=O

>  <smiles>  (264) 
[H]OC1([H])C2(O[H])C(=O)C(C([H])([H])[H])=C([H])C3([H])C([H])(C([H])([H])[H])OC24C(O[H])(C(=O)C([H])([H])C([H])(C([H])([H])[H])C34[H])C1([H])C([H])([H])[H]

$$$$
100:0:0
     RDKit          3D

 57 60  0  0  1  0  0  0  0  0999 V2000
    6.5903   -0.6496    2.4146 C   0  0  0  0  0  0  0  0  0  0  0  0
    6.5863   -1.2175    1.0057 C   0  0  0  0  0  0  0  0  0  0  0  0
    7.6363   -1.5939    0.4603 O   0  0  0  0  0  0  0  0  0  0  0  0
    5.3712   -1.3107    0.4767 O   0  0  0  0  0  0  0  0  0  0  0  0
    5.1107   -2.2583   -0.5474 C   0  0  2  0  0  0  0  0  0  0  0  0
    4.3231   -1.5609   -1.6622 C   0  0  2  0  0  0  0  0  0  0  0  0
    2.9761   -2.1102   -2.0769 C   0  0  2  0  0  0  0  0  0  0  0  0
    2.4033   -3.3304   -1.3416 C   0  0  0  0  0  0  0  0  0  0  0  0
    2.8560   -3.3777    0.1613 C   0  0  1  0  0  0  0  0  0  0  0  0
    2.2812   -2.1272    0.9334 C   0  0  0  0  0  0  0  0  0  0  0  0
    2.3878   -1.9183    2.3054 O   0  0  0  0  0  0  0  0  0  0  0  0
    2.4847   -4.6912    0.8654 C   0  0  0  0  0  0  0  0  0  0  0  0
    3.7491   -5.2786    1.5741 C   0  0  2  0  0  0  0  0  0  0  0  0
    4.0147   -6.5218    0.9364 O   0  0  0  0  0  0  0  0  0  0  0  0
    3.5779   -5.4617    3.1076 C   0  0  1  0  0  0  0  0  0  0  0  0
    4.4898   -6.3949    3.6478 O   0  0  0  0  0  0  0  0  0  0  0  0
    3.9063   -4.0875    3.6957 C   0  0  1  0  0  0  0  0  0  0  0  0
    4.3679   -3.9764    5.1621 C   0  0  0  0  0  0  0  0  0  0  0  0
    4.8722   -3.4323    2.6908 C   0  0  0  0  0  0  0  0  0  0  0  0
    4.8751   -4.2299    1.3601 C   0  0  1  0  0  0  0  0  0  0  0  0
    6.2926   -4.8343    1.1508 C   0  0  0  0  0  0  0  0  0  0  0  0
    4.3758   -3.4838    0.0862 C   0  0  2  0  0  0  0  0  0  0  0  0
    4.1148   -2.0750   -3.0724 C   0  0  0  0  0  0  0  0  0  0  0  0
    4.0136   -1.0506   -4.1988 C   0  0  0  0  0  0  0  0  0  0  0  0
    4.7768   -3.3430   -3.5645 C   0  0  0  0  0  0  0  0  0  0  0  0
    6.1305    0.3569    2.4021 H   0  0  0  0  0  0  0  0  0  0  0  0
    7.6135   -0.5098    2.7725 H   0  0  0  0  0  0  0  0  0  0  0  0
    6.0305   -1.2566    3.1228 H   0  0  0  0  0  0  0  0  0  0  0  0
    6.0428   -2.5853   -1.0287 H   0  0  0  0  0  0  0  0  0  0  0  0
    4.3563   -0.4715   -1.5783 H   0  0  0  0  0  0  0  0  0  0  0  0
    2.2535   -1.3157   -2.2292 H   0  0  0  0  0  0  0  0  0  0  0  0
    1.3215   -3.3222   -1.4497 H   0  0  0  0  0  0  0  0  0  0  0  0
    2.7139   -4.2256   -1.8828 H   0  0  0  0  0  0  0  0  0  0  0  0
    2.5783   -1.1955    0.4413 H   0  0  0  0  0  0  0  0  0  0  0  0
    1.2043   -2.0942    0.8892 H   0  0  0  0  0  0  0  0  0  0  0  0
    2.2982   -0.9884    2.3950 H   0  0  0  0  0  0  0  0  0  0  0  0
    1.6936   -4.5202    1.5917 H   0  0  0  0  0  0  0  0  0  0  0  0
    2.0868   -5.4048    0.1433 H   0  0  0  0  0  0  0  0  0  0  0  0
    4.2007   -6.3396    0.0284 H   0  0  0  0  0  0  0  0  0  0  0  0
    2.5651   -5.7708    3.3684 H   0  0  0  0  0  0  0  0  0  0  0  0
    4.3018   -6.4502    4.5714 H   0  0  0  0  0  0  0  0  0  0  0  0
    2.9507   -3.5821    3.7128 H   0  0  0  0  0  0  0  0  0  0  0  0
    5.3509   -4.4223    5.3448 H   0  0  0  0  0  0  0  0  0  0  0  0
    3.6395   -4.4114    5.8448 H   0  0  0  0  0  0  0  0  0  0  0  0
    4.4422   -2.9199    5.4228 H   0  0  0  0  0  0  0  0  0  0  0  0
    4.5756   -2.3952    2.5441 H   0  0  0  0  0  0  0  0  0  0  0  0
    5.8781   -3.4622    3.1197 H   0  0  0  0  0  0  0  0  0  0  0  0
    7.0451   -4.0506    1.0617 H   0  0  0  0  0  0  0  0  0  0  0  0
    6.3698   -5.4585    0.2572 H   0  0  0  0  0  0  0  0  0  0  0  0
    6.5795   -5.4372    2.0156 H   0  0  0  0  0  0  0  0  0  0  0  0
    4.5639   -4.2324   -0.6759 H   0  0  0  0  0  0  0  0  0  0  0  0
    3.4305   -1.4375   -5.0356 H   0  0  0  0  0  0  0  0  0  0  0  0
    5.0030   -0.7787   -4.5604 H   0  0  0  0  0  0  0  0  0  0  0  0
    3.5257   -0.1399   -3.8451 H   0  0  0  0  0  0  0  0  0  0  0  0
    4.2074   -3.7570   -4.4012 H   0  0  0  0  0  0  0  0  0  0  0  0
    4.8246   -4.0904   -2.7771 H   0  0  0  0  0  0  0  0  0  0  0  0
    5.7974   -3.1248   -3.8781 H   0  0  0  0  0  0  0  0  0  0  0  0
  1  2  1  0
  1 26  1  0
  1 27  1  0
  1 28  1  0
  2  3  2  0
  2  4  1  0
  4  5  1  0
  5 22  1  0
  5  6  1  0
  5 29  1  6
  6 23  1  0
  6  7  1  0
  6 30  1  6
  7  8  1  0
  7 23  1  0
  7 31  1  6
  8  9  1  0
  8 32  1  0
  8 33  1  0
  9 22  1  0
  9 10  1  1
  9 12  1  0
 10 11  1  0
 10 34  1  0
 10 35  1  0
 11 36  1  0
 12 13  1  0
 12 37  1  0
 12 38  1  0
 13 20  1  0
 13 14  1  6
 13 15  1  0
 14 39  1  0
 15 16  1  0
 15 17  1  0
 15 40  1  6
 16 41  1  0
 17 18  1  0
 17 19  1  0
 17 42  1  1
 18 43  1  0
 18 44  1  0
 18 45  1  0
 19 20  1  0
 19 46  1  0
 19 47  1  0
 20 21  1  6
 20 22  1  0
 21 48  1  0
 21 49  1  0
 21 50  1  0
 22 51  1  6
 23 24  1  0
 23 25  1  0
 24 52  1  0
 24 53  1  0
 24 54  1  0
 25 55  1  0
 25 56  1  0
 25 57  1  0
M  END
>  <i_m_ct_stereo_status>  (265) 
1

>  <s_m_source_file>  (265) 
/var/tmp/pbs.5076255.sched01/tmp3ug8vllb/105tp2mz_hs.sdf

>  <i_m_source_file_index>  (265) 
13

>  <i_lp_mmshare_version>  (265) 
48012

>  <i_f3d_flags>  (265) 
0

>  <s_epik_input>  (265) 
W0NIM11DMShbQ0gzXSlbQ0BASF0oW0NIMl0yKVtDQEhdMVtDQEBIXShPQyg9TylbQ0gzXSlbQ0BIXShbQ0BAXTIzW0NIMl1bT0hdKVtDQF00KFtDSDNdKVtDQEBdKFtDSDJdMykoW09IXSlbQ0BASF0oW09IXSlbQ0BASF0oW0NIM10pW0NIMl00

>  <s_epik_cmdline>  (265) 
J2VwaWtfcHl0aG9uJywgJy1waHQnLCAnMi4wJywgJy1waCcsICc3LjAnLCAnLXRuJywgJzgnLCAnLW1hJywgJzIwMCcsICctaW1hZScsICc8aW5maWxlLm1hZT4nLCAnLW9tYWUnLCAnPG91dGZpbGUubWFlPic=

>  <r_lp_tautomer_probability>  (265) 
1

>  <r_epik_Ionization_Penalty>  (265) 
1.42147e-06

>  <r_epik_Ionization_Penalty_Charging>  (265) 
0

>  <r_epik_Ionization_Penalty_Neutral>  (265) 
1.42147e-06

>  <r_epik_State_Penalty>  (265) 
-0

>  <r_epik_Charging_Adjusted_Penalty>  (265) 
0

>  <i_epik_Tot_Q>  (265) 
0

>  <i_epik_Tot_abs_Q>  (265) 
0

>  <s_epik_Chemistry_Notes>  (265) 
This compound has an ester and may undergo hydrolysis at high or low pH.

>  <s_lp_Force_Field>  (265) 
OPLS3e

>  <r_lp_Energy>  (265) 
53.0084

>  <b_lp_Chiralities_Consistent>  (265) 
1

>  <s_lp_Variant>  (265) 
100:0-1

>  <s_i_glide_gridfile>  (265) 
pfpi4k_grid

>  <i_i_glide_lignum>  (265) 
13

>  <i_i_glide_rotatable_bonds>  (265) 
6

>  <r_i_docking_score>  (265) 
-2.53387

>  <r_i_glide_ligand_efficiency>  (265) 
-0.101355

>  <r_i_glide_ligand_efficiency_sa>  (265) 
-0.296364

>  <r_i_glide_ligand_efficiency_ln>  (265) 
-0.600604

>  <r_i_glide_gscore>  (265) 
-2.53387

>  <r_i_glide_lipo>  (265) 
-0.723889

>  <r_i_glide_hbond>  (265) 
-0.0201412

>  <r_i_glide_metal>  (265) 
-0

>  <r_i_glide_rewards>  (265) 
-1.06044

>  <r_i_glide_evdw>  (265) 
-13.2236

>  <r_i_glide_ecoul>  (265) 
-2.50315

>  <r_i_glide_erotb>  (265) 
0.307252

>  <r_i_glide_esite>  (265) 
0

>  <r_i_glide_emodel>  (265) 
-12.206

>  <r_i_glide_energy>  (265) 
-15.7267

>  <r_i_glide_einternal>  (265) 
8.58494

>  <r_i_glide_intrahb_reward>  (265) 
-0

>  <i_i_glide_confnum>  (265) 
2

>  <i_i_glide_posenum>  (265) 
15

>  <r_i_glide_eff_state_penalty>  (265) 
0

>  <ligand_id>  (265) 
100

>  <original_smiles>  (265) 
CC(=O)OC1C2C(CC3(CO)CC4(O)C(O)C(C)CC4(C)C13)C2(C)C

>  <smiles>  (265) 
[H]OC([H])([H])C12C([H])([H])C3([H])C([H])(C([H])(OC(=O)C([H])([H])[H])C1([H])C1(C([H])([H])[H])C([H])([H])C([H])(C([H])([H])[H])C([H])(O[H])C1(O[H])C2([H])[H])C3(C([H])([H])[H])C([H])([H])[H]

$$$$
100:0:1
     RDKit          3D

 57 60  0  0  1  0  0  0  0  0999 V2000
    2.7092    0.1261    1.6745 C   0  0  0  0  0  0  0  0  0  0  0  0
    1.8696   -1.0550    2.1882 C   0  0  0  0  0  0  0  0  0  0  0  0
    0.8610   -0.8552    2.8426 O   0  0  0  0  0  0  0  0  0  0  0  0
    2.3150   -2.2871    1.8401 O   0  0  0  0  0  0  0  0  0  0  0  0
    3.6068   -2.5493    1.3068 C   0  0  2  0  0  0  0  0  0  0  0  0
    3.5824   -2.3973   -0.2416 C   0  0  2  0  0  0  0  0  0  0  0  0
    4.1453   -3.5136   -1.1377 C   0  0  2  0  0  0  0  0  0  0  0  0
    4.6593   -4.7792   -0.4305 C   0  0  0  0  0  0  0  0  0  0  0  0
    3.8523   -5.0992    0.8451 C   0  0  1  0  0  0  0  0  0  0  0  0
    2.3562   -5.2946    0.4175 C   0  0  0  0  0  0  0  0  0  0  0  0
    1.4653   -5.8474    1.3404 O   0  0  0  0  0  0  0  0  0  0  0  0
    4.4244   -6.2786    1.6716 C   0  0  0  0  0  0  0  0  0  0  0  0
    4.5861   -5.8294    3.1657 C   0  0  2  0  0  0  0  0  0  0  0  0
    5.9776   -5.8438    3.4519 O   0  0  0  0  0  0  0  0  0  0  0  0
    3.8051   -6.7039    4.1826 C   0  0  1  0  0  0  0  0  0  0  0  0
    4.3744   -6.6220    5.4737 O   0  0  0  0  0  0  0  0  0  0  0  0
    2.3876   -6.1121    4.1682 C   0  0  1  0  0  0  0  0  0  0  0  0
    1.5340   -6.3583    5.4447 C   0  0  0  0  0  0  0  0  0  0  0  0
    2.5540   -4.6154    3.8228 C   0  0  0  0  0  0  0  0  0  0  0  0
    3.9800   -4.4022    3.2618 C   0  0  1  0  0  0  0  0  0  0  0  0
    4.7379   -3.4426    4.2271 C   0  0  0  0  0  0  0  0  0  0  0  0
    4.0998   -3.9287    1.7944 C   0  0  2  0  0  0  0  0  0  0  0  0
    4.7888   -2.1439   -1.0849 C   0  0  0  0  0  0  0  0  0  0  0  0
    4.6127   -1.2417   -2.3026 C   0  0  0  0  0  0  0  0  0  0  0  0
    6.1675   -1.9031   -0.4997 C   0  0  0  0  0  0  0  0  0  0  0  0
    3.7383    0.0939    2.0407 H   0  0  0  0  0  0  0  0  0  0  0  0
    2.2575    1.0819    1.9863 H   0  0  0  0  0  0  0  0  0  0  0  0
    2.7272    0.1379    0.5856 H   0  0  0  0  0  0  0  0  0  0  0  0
    4.3010   -1.8066    1.6913 H   0  0  0  0  0  0  0  0  0  0  0  0
    2.6724   -1.9515   -0.6041 H   0  0  0  0  0  0  0  0  0  0  0  0
    3.5281   -3.7262   -1.9998 H   0  0  0  0  0  0  0  0  0  0  0  0
    4.6183   -5.6117   -1.1350 H   0  0  0  0  0  0  0  0  0  0  0  0
    5.7061   -4.6468   -0.2214 H   0  0  0  0  0  0  0  0  0  0  0  0
    1.8961   -4.3651    0.0667 H   0  0  0  0  0  0  0  0  0  0  0  0
    2.3621   -5.9146   -0.4855 H   0  0  0  0  0  0  0  0  0  0  0  0
    1.8865   -6.6662    1.7367 H   0  0  0  0  0  0  0  0  0  0  0  0
    3.8147   -7.1701    1.5712 H   0  0  0  0  0  0  0  0  0  0  0  0
    5.4000   -6.5526    1.2587 H   0  0  0  0  0  0  0  0  0  0  0  0
    6.2832   -6.7344    3.3291 H   0  0  0  0  0  0  0  0  0  0  0  0
    3.8034   -7.7542    3.8836 H   0  0  0  0  0  0  0  0  0  0  0  0
    5.2422   -7.0164    5.4487 H   0  0  0  0  0  0  0  0  0  0  0  0
    1.8952   -6.5710    3.3330 H   0  0  0  0  0  0  0  0  0  0  0  0
    1.9036   -5.8783    6.3514 H   0  0  0  0  0  0  0  0  0  0  0  0
    1.4319   -7.4193    5.6508 H   0  0  0  0  0  0  0  0  0  0  0  0
    0.5399   -5.9744    5.2639 H   0  0  0  0  0  0  0  0  0  0  0  0
    1.7652   -4.3411    3.1283 H   0  0  0  0  0  0  0  0  0  0  0  0
    2.4179   -3.9946    4.7078 H   0  0  0  0  0  0  0  0  0  0  0  0
    4.2493   -2.4697    4.2856 H   0  0  0  0  0  0  0  0  0  0  0  0
    5.7731   -3.2661    3.9301 H   0  0  0  0  0  0  0  0  0  0  0  0
    4.7587   -3.8529    5.2383 H   0  0  0  0  0  0  0  0  0  0  0  0
    5.1694   -3.7731    1.7222 H   0  0  0  0  0  0  0  0  0  0  0  0
    5.3544   -1.4900   -3.0606 H   0  0  0  0  0  0  0  0  0  0  0  0
    4.7162   -0.1914   -2.0276 H   0  0  0  0  0  0  0  0  0  0  0  0
    3.6289   -1.3803   -2.7371 H   0  0  0  0  0  0  0  0  0  0  0  0
    6.9325   -2.1617   -1.2372 H   0  0  0  0  0  0  0  0  0  0  0  0
    6.3153   -2.5159    0.3816 H   0  0  0  0  0  0  0  0  0  0  0  0
    6.2675   -0.8525   -0.2138 H   0  0  0  0  0  0  0  0  0  0  0  0
  1  2  1  0
  1 26  1  0
  1 27  1  0
  1 28  1  0
  2  3  2  0
  2  4  1  0
  4  5  1  0
  5 22  1  0
  5  6  1  0
  5 29  1  1
  6 23  1  0
  6  7  1  0
  6 30  1  6
  7  8  1  0
  7 23  1  0
  7 31  1  6
  8  9  1  0
  8 32  1  0
  8 33  1  0
  9 22  1  0
  9 10  1  6
  9 12  1  0
 10 11  1  0
 10 34  1  0
 10 35  1  0
 11 36  1  0
 12 13  1  0
 12 37  1  0
 12 38  1  0
 13 20  1  0
 13 14  1  1
 13 15  1  0
 14 39  1  0
 15 16  1  0
 15 17  1  0
 15 40  1  6
 16 41  1  0
 17 18  1  0
 17 19  1  0
 17 42  1  6
 18 43  1  0
 18 44  1  0
 18 45  1  0
 19 20  1  0
 19 46  1  0
 19 47  1  0
 20 21  1  1
 20 22  1  0
 21 48  1  0
 21 49  1  0
 21 50  1  0
 22 51  1  1
 23 24  1  0
 23 25  1  0
 24 52  1  0
 24 53  1  0
 24 54  1  0
 25 55  1  0
 25 56  1  0
 25 57  1  0
M  END
>  <i_m_ct_stereo_status>  (266) 
1

>  <s_m_source_file>  (266) 
/var/tmp/pbs.5076255.sched01/tmp3ug8vllb/105tp2mz_hs.sdf

>  <i_m_source_file_index>  (266) 
13

>  <i_lp_mmshare_version>  (266) 
48012

>  <i_f3d_flags>  (266) 
0

>  <s_epik_input>  (266) 
W0NIM11DMShbQ0gzXSlbQ0BASF0oW0NIMl0yKVtDQEhdMVtDQEBIXShPQyg9TylbQ0gzXSlbQ0BIXShbQ0BAXTIzW0NIMl1bT0hdKVtDQF00KFtDSDNdKVtDQEBdKFtDSDJdMykoW09IXSlbQ0BASF0oW09IXSlbQ0BASF0oW0NIM10pW0NIMl00

>  <s_epik_cmdline>  (266) 
J2VwaWtfcHl0aG9uJywgJy1waHQnLCAnMi4wJywgJy1waCcsICc3LjAnLCAnLXRuJywgJzgnLCAnLW1hJywgJzIwMCcsICctaW1hZScsICc8aW5maWxlLm1hZT4nLCAnLW9tYWUnLCAnPG91dGZpbGUubWFlPic=

>  <r_lp_tautomer_probability>  (266) 
1

>  <r_epik_Ionization_Penalty>  (266) 
1.42147e-06

>  <r_epik_Ionization_Penalty_Charging>  (266) 
0

>  <r_epik_Ionization_Penalty_Neutral>  (266) 
1.42147e-06

>  <r_epik_State_Penalty>  (266) 
-0

>  <r_epik_Charging_Adjusted_Penalty>  (266) 
0

>  <i_epik_Tot_Q>  (266) 
0

>  <i_epik_Tot_abs_Q>  (266) 
0

>  <s_epik_Chemistry_Notes>  (266) 
This compound has an ester and may undergo hydrolysis at high or low pH.

>  <s_lp_Force_Field>  (266) 
OPLS3e

>  <r_lp_Energy>  (266) 
53.0084

>  <b_lp_Chiralities_Consistent>  (266) 
1

>  <s_lp_Variant>  (266) 
100:0-1

>  <s_i_glide_gridfile>  (266) 
pfpi4k_grid

>  <i_i_glide_lignum>  (266) 
13

>  <i_i_glide_rotatable_bonds>  (266) 
6

>  <r_i_docking_score>  (266) 
-2.14066

>  <r_i_glide_ligand_efficiency>  (266) 
-0.0856264

>  <r_i_glide_ligand_efficiency_sa>  (266) 
-0.250373

>  <r_i_glide_ligand_efficiency_ln>  (266) 
-0.507401

>  <r_i_glide_gscore>  (266) 
-2.14066

>  <r_i_glide_lipo>  (266) 
-0.0927805

>  <r_i_glide_hbond>  (266) 
-0.133825

>  <r_i_glide_metal>  (266) 
-0

>  <r_i_glide_rewards>  (266) 
-1.00592

>  <r_i_glide_evdw>  (266) 
-16.4808

>  <r_i_glide_ecoul>  (266) 
-2.30627

>  <r_i_glide_erotb>  (266) 
0.307252

>  <r_i_glide_esite>  (266) 
-0.0454084

>  <r_i_glide_emodel>  (266) 
-16.266

>  <r_i_glide_energy>  (266) 
-18.787

>  <r_i_glide_einternal>  (266) 
9.21108

>  <r_i_glide_intrahb_reward>  (266) 
-0

>  <i_i_glide_confnum>  (266) 
2

>  <i_i_glide_posenum>  (266) 
10

>  <r_i_glide_eff_state_penalty>  (266) 
0

>  <ligand_id>  (266) 
100

>  <original_smiles>  (266) 
CC(=O)OC1C2C(CC3(CO)CC4(O)C(O)C(C)CC4(C)C13)C2(C)C

>  <smiles>  (266) 
[H]OC([H])([H])C12C([H])([H])C3([H])C([H])(C([H])(OC(=O)C([H])([H])[H])C1([H])C1(C([H])([H])[H])C([H])([H])C([H])(C([H])([H])[H])C([H])(O[H])C1(O[H])C2([H])[H])C3(C([H])([H])[H])C([H])([H])[H]

$$$$
100:0:2
     RDKit          3D

 57 60  0  0  1  0  0  0  0  0999 V2000
    2.6981   -0.0202    1.9502 C   0  0  0  0  0  0  0  0  0  0  0  0
    1.8333   -1.2123    2.4030 C   0  0  0  0  0  0  0  0  0  0  0  0
    0.8022   -1.0222    3.0173 O   0  0  0  0  0  0  0  0  0  0  0  0
    2.2957   -2.4397    2.0472 O   0  0  0  0  0  0  0  0  0  0  0  0
    3.5951   -2.6881    1.5241 C   0  0  2  0  0  0  0  0  0  0  0  0
    3.5965   -2.4526   -0.0103 C   0  0  2  0  0  0  0  0  0  0  0  0
    4.1664   -3.5158   -0.9670 C   0  0  2  0  0  0  0  0  0  0  0  0
    4.6549   -4.8253   -0.3345 C   0  0  0  0  0  0  0  0  0  0  0  0
    3.8251   -5.2101    0.9108 C   0  0  1  0  0  0  0  0  0  0  0  0
    2.3387   -5.3674    0.4546 C   0  0  0  0  0  0  0  0  0  0  0  0
    1.4305   -5.9757    1.3306 O   0  0  0  0  0  0  0  0  0  0  0  0
    4.3704   -6.4393    1.6730 C   0  0  0  0  0  0  0  0  0  0  0  0
    4.5225   -6.0722    3.1884 C   0  0  2  0  0  0  0  0  0  0  0  0
    5.9162   -6.0994    3.4609 O   0  0  0  0  0  0  0  0  0  0  0  0
    3.7246   -7.0044    4.1383 C   0  0  1  0  0  0  0  0  0  0  0  0
    4.2763   -7.0374    5.4357 O   0  0  0  0  0  0  0  0  0  0  0  0
    2.3115   -6.4021    4.1539 C   0  0  1  0  0  0  0  0  0  0  0  0
    1.4302   -6.7175    5.3947 C   0  0  0  0  0  0  0  0  0  0  0  0
    2.4882   -4.8913    3.8959 C   0  0  0  0  0  0  0  0  0  0  0  0
    3.9228   -4.6530    3.3682 C   0  0  1  0  0  0  0  0  0  0  0  0
    4.6741   -3.7637    4.4038 C   0  0  0  0  0  0  0  0  0  0  0  0
    4.0676   -4.0986    1.9338 C   0  0  2  0  0  0  0  0  0  0  0  0
    4.8166   -2.1514   -0.8240 C   0  0  0  0  0  0  0  0  0  0  0  0
    4.6275   -1.1727   -1.9797 C   0  0  0  0  0  0  0  0  0  0  0  0
    6.1921   -1.9603   -0.2026 C   0  0  0  0  0  0  0  0  0  0  0  0
    3.7118   -0.0650    2.3548 H   0  0  0  0  0  0  0  0  0  0  0  0
    2.2371    0.9261    2.2740 H   0  0  0  0  0  0  0  0  0  0  0  0
    2.7562    0.0277    0.8635 H   0  0  0  0  0  0  0  0  0  0  0  0
    4.2883   -1.9752    1.9654 H   0  0  0  0  0  0  0  0  0  0  0  0
    2.6960   -1.9825   -0.3651 H   0  0  0  0  0  0  0  0  0  0  0  0
    3.5622   -3.6689   -1.8509 H   0  0  0  0  0  0  0  0  0  0  0  0
    4.6121   -5.5997   -1.1042 H   0  0  0  0  0  0  0  0  0  0  0  0
    5.7004   -4.7211   -0.1011 H   0  0  0  0  0  0  0  0  0  0  0  0
    1.8917   -4.4189    0.1410 H   0  0  0  0  0  0  0  0  0  0  0  0
    2.3551   -5.9364   -0.4804 H   0  0  0  0  0  0  0  0  0  0  0  0
    1.8396   -6.8023    1.7101 H   0  0  0  0  0  0  0  0  0  0  0  0
    3.7536   -7.3195    1.5186 H   0  0  0  0  0  0  0  0  0  0  0  0
    5.3485   -6.7008    1.2613 H   0  0  0  0  0  0  0  0  0  0  0  0
    6.1898   -7.0050    3.3841 H   0  0  0  0  0  0  0  0  0  0  0  0
    3.7223   -8.0336    3.7822 H   0  0  0  0  0  0  0  0  0  0  0  0
    3.7762   -7.6586    5.9554 H   0  0  0  0  0  0  0  0  0  0  0  0
    1.8243   -6.8025    3.2877 H   0  0  0  0  0  0  0  0  0  0  0  0
    1.7792   -6.2934    6.3368 H   0  0  0  0  0  0  0  0  0  0  0  0
    1.3044   -7.7859    5.5405 H   0  0  0  0  0  0  0  0  0  0  0  0
    0.4422   -6.3132    5.2226 H   0  0  0  0  0  0  0  0  0  0  0  0
    1.7119   -4.5742    3.2038 H   0  0  0  0  0  0  0  0  0  0  0  0
    2.3451   -4.3246    4.8170 H   0  0  0  0  0  0  0  0  0  0  0  0
    4.1955   -2.7902    4.5138 H   0  0  0  0  0  0  0  0  0  0  0  0
    5.7159   -3.5813    4.1357 H   0  0  0  0  0  0  0  0  0  0  0  0
    4.6764   -4.2346    5.3889 H   0  0  0  0  0  0  0  0  0  0  0  0
    5.1401   -3.9492    1.8887 H   0  0  0  0  0  0  0  0  0  0  0  0
    5.3120   -1.3947   -2.7875 H   0  0  0  0  0  0  0  0  0  0  0  0
    4.7613   -0.1447   -1.6358 H   0  0  0  0  0  0  0  0  0  0  0  0
    3.6380   -1.2802   -2.4113 H   0  0  0  0  0  0  0  0  0  0  0  0
    6.9695   -2.1810   -0.9395 H   0  0  0  0  0  0  0  0  0  0  0  0
    6.3259   -2.6238    0.6472 H   0  0  0  0  0  0  0  0  0  0  0  0
    6.3037   -0.9288    0.1436 H   0  0  0  0  0  0  0  0  0  0  0  0
  1  2  1  0
  1 26  1  0
  1 27  1  0
  1 28  1  0
  2  3  2  0
  2  4  1  0
  4  5  1  0
  5 22  1  0
  5  6  1  0
  5 29  1  1
  6 23  1  0
  6  7  1  0
  6 30  1  6
  7  8  1  0
  7 23  1  0
  7 31  1  6
  8  9  1  0
  8 32  1  0
  8 33  1  0
  9 22  1  0
  9 10  1  6
  9 12  1  0
 10 11  1  0
 10 34  1  0
 10 35  1  0
 11 36  1  0
 12 13  1  0
 12 37  1  0
 12 38  1  0
 13 20  1  0
 13 14  1  1
 13 15  1  0
 14 39  1  0
 15 16  1  0
 15 17  1  0
 15 40  1  6
 16 41  1  0
 17 18  1  0
 17 19  1  0
 17 42  1  6
 18 43  1  0
 18 44  1  0
 18 45  1  0
 19 20  1  0
 19 46  1  0
 19 47  1  0
 20 21  1  1
 20 22  1  0
 21 48  1  0
 21 49  1  0
 21 50  1  0
 22 51  1  1
 23 24  1  0
 23 25  1  0
 24 52  1  0
 24 53  1  0
 24 54  1  0
 25 55  1  0
 25 56  1  0
 25 57  1  0
M  END
>  <i_m_ct_stereo_status>  (267) 
1

>  <s_m_source_file>  (267) 
/var/tmp/pbs.5076255.sched01/tmp3ug8vllb/105tp2mz_hs.sdf

>  <i_m_source_file_index>  (267) 
13

>  <i_lp_mmshare_version>  (267) 
48012

>  <i_f3d_flags>  (267) 
0

>  <s_epik_input>  (267) 
W0NIM11DMShbQ0gzXSlbQ0BASF0oW0NIMl0yKVtDQEhdMVtDQEBIXShPQyg9TylbQ0gzXSlbQ0BIXShbQ0BAXTIzW0NIMl1bT0hdKVtDQF00KFtDSDNdKVtDQEBdKFtDSDJdMykoW09IXSlbQ0BASF0oW09IXSlbQ0BASF0oW0NIM10pW0NIMl00

>  <s_epik_cmdline>  (267) 
J2VwaWtfcHl0aG9uJywgJy1waHQnLCAnMi4wJywgJy1waCcsICc3LjAnLCAnLXRuJywgJzgnLCAnLW1hJywgJzIwMCcsICctaW1hZScsICc8aW5maWxlLm1hZT4nLCAnLW9tYWUnLCAnPG91dGZpbGUubWFlPic=

>  <r_lp_tautomer_probability>  (267) 
1

>  <r_epik_Ionization_Penalty>  (267) 
1.42147e-06

>  <r_epik_Ionization_Penalty_Charging>  (267) 
0

>  <r_epik_Ionization_Penalty_Neutral>  (267) 
1.42147e-06

>  <r_epik_State_Penalty>  (267) 
-0

>  <r_epik_Charging_Adjusted_Penalty>  (267) 
0

>  <i_epik_Tot_Q>  (267) 
0

>  <i_epik_Tot_abs_Q>  (267) 
0

>  <s_epik_Chemistry_Notes>  (267) 
This compound has an ester and may undergo hydrolysis at high or low pH.

>  <s_lp_Force_Field>  (267) 
OPLS3e

>  <r_lp_Energy>  (267) 
53.0084

>  <b_lp_Chiralities_Consistent>  (267) 
1

>  <s_lp_Variant>  (267) 
100:0-1

>  <s_i_glide_gridfile>  (267) 
pfpi4k_grid

>  <i_i_glide_lignum>  (267) 
13

>  <i_i_glide_rotatable_bonds>  (267) 
6

>  <r_i_docking_score>  (267) 
-2.09796

>  <r_i_glide_ligand_efficiency>  (267) 
-0.0839183

>  <r_i_glide_ligand_efficiency_sa>  (267) 
-0.245379

>  <r_i_glide_ligand_efficiency_ln>  (267) 
-0.497279

>  <r_i_glide_gscore>  (267) 
-2.09796

>  <r_i_glide_lipo>  (267) 
-0.082478

>  <r_i_glide_hbond>  (267) 
-0.124863

>  <r_i_glide_metal>  (267) 
-0

>  <r_i_glide_rewards>  (267) 
-1.00592

>  <r_i_glide_evdw>  (267) 
-16.4447

>  <r_i_glide_ecoul>  (267) 
-2.27502

>  <r_i_glide_erotb>  (267) 
0.307252

>  <r_i_glide_esite>  (267) 
-0.0284619

>  <r_i_glide_emodel>  (267) 
-16.103

>  <r_i_glide_energy>  (267) 
-18.7197

>  <r_i_glide_einternal>  (267) 
9.20839

>  <r_i_glide_intrahb_reward>  (267) 
-0

>  <i_i_glide_confnum>  (267) 
2

>  <i_i_glide_posenum>  (267) 
30

>  <r_i_glide_eff_state_penalty>  (267) 
0

>  <ligand_id>  (267) 
100

>  <original_smiles>  (267) 
CC(=O)OC1C2C(CC3(CO)CC4(O)C(O)C(C)CC4(C)C13)C2(C)C

>  <smiles>  (267) 
[H]OC([H])([H])C12C([H])([H])C3([H])C([H])(C([H])(OC(=O)C([H])([H])[H])C1([H])C1(C([H])([H])[H])C([H])([H])C([H])(C([H])([H])[H])C([H])(O[H])C1(O[H])C2([H])[H])C3(C([H])([H])[H])C([H])([H])[H]

$$$$
101:0:0
     RDKit          3D

 50 55  0  0  1  0  0  0  0  0999 V2000
    7.6251   -7.2696    2.2501 C   0  0  0  0  0  0  0  0  0  0  0  0
    6.4080   -7.5835    1.5875 O   0  0  0  0  0  0  0  0  0  0  0  0
    5.3027   -6.7809    1.9974 C   0  0  2  0  0  0  0  0  0  0  0  0
    3.9936   -7.3205    1.4057 C   0  0  0  0  0  0  0  0  0  0  0  0
    3.1423   -6.0613    1.2346 C   0  0  0  0  0  0  0  0  0  0  0  0
    1.9648   -6.0605    0.9068 O   0  0  0  0  0  0  0  0  0  0  0  0
    3.9539   -4.7889    1.5277 C   0  0  1  0  0  0  0  0  0  0  0  0
    3.5912   -4.3018    2.8112 O   0  0  0  0  0  0  0  0  0  0  0  0
    5.3956   -5.2997    1.5513 C   0  0  2  0  0  0  0  0  0  0  0  0
    5.9168   -5.1380    0.1220 C   0  0  0  0  0  0  0  0  0  0  0  0
    5.2363   -3.9098   -0.5098 C   0  0  2  0  0  0  0  0  0  0  0  0
    5.0117   -4.2975   -1.8498 O   0  0  0  0  0  0  0  0  0  0  0  0
    6.2541   -2.6546   -0.5139 C   0  0  1  0  0  0  0  0  0  0  0  0
    5.6185   -1.4428   -1.0856 C   0  0  1  0  0  0  0  0  0  0  0  0
    4.1931   -1.4629   -0.9992 C   0  0  1  0  0  0  0  0  0  0  0  0
    3.3951   -1.8121   -2.3013 C   0  0  0  0  0  0  0  0  0  0  0  0
    3.6555   -0.8487   -3.3065 O   0  0  0  0  0  0  0  0  0  0  0  0
    4.0466   -2.2662    0.4531 C   0  0  1  0  0  0  0  0  0  0  0  0
    4.6553   -1.2842    1.3679 C   0  0  2  0  0  0  0  0  0  0  0  0
    5.1226   -1.4555    2.8516 C   0  0  0  0  0  0  0  0  0  0  0  0
    3.0338   -1.3615    1.3099 C   0  0  0  0  0  0  0  0  0  0  0  0
    2.5553   -2.7858    0.6375 C   0  0  0  0  0  0  0  0  0  0  0  0
    3.8286   -3.7346    0.3670 C   0  0  1  0  0  0  0  0  0  0  0  0
    5.9330   -1.3129    0.3405 C   0  0  1  0  0  0  0  0  0  0  0  0
    8.4089   -7.9414    1.9052 H   0  0  0  0  0  0  0  0  0  0  0  0
    7.5353   -7.3830    3.3311 H   0  0  0  0  0  0  0  0  0  0  0  0
    7.9479   -6.2517    2.0339 H   0  0  0  0  0  0  0  0  0  0  0  0
    5.2096   -6.8148    3.0863 H   0  0  0  0  0  0  0  0  0  0  0  0
    4.1578   -7.7853    0.4331 H   0  0  0  0  0  0  0  0  0  0  0  0
    3.5065   -8.0477    2.0572 H   0  0  0  0  0  0  0  0  0  0  0  0
    2.6815   -4.0493    2.7798 H   0  0  0  0  0  0  0  0  0  0  0  0
    6.0085   -4.7052    2.2310 H   0  0  0  0  0  0  0  0  0  0  0  0
    7.0027   -5.0798    0.0817 H   0  0  0  0  0  0  0  0  0  0  0  0
    5.6322   -6.0296   -0.4274 H   0  0  0  0  0  0  0  0  0  0  0  0
    4.3488   -4.9737   -1.8870 H   0  0  0  0  0  0  0  0  0  0  0  0
    7.2719   -2.8419   -0.8121 H   0  0  0  0  0  0  0  0  0  0  0  0
    6.1225   -0.8555   -1.8269 H   0  0  0  0  0  0  0  0  0  0  0  0
    3.9352   -0.4137   -0.8465 H   0  0  0  0  0  0  0  0  0  0  0  0
    3.5564   -2.7848   -2.7593 H   0  0  0  0  0  0  0  0  0  0  0  0
    2.3260   -1.7895   -2.1123 H   0  0  0  0  0  0  0  0  0  0  0  0
    3.1473   -0.0776   -3.1083 H   0  0  0  0  0  0  0  0  0  0  0  0
    4.7418   -2.7694    1.1672 H   0  0  0  0  0  0  0  0  0  0  0  0
    5.3367   -0.4755    3.2777 H   0  0  0  0  0  0  0  0  0  0  0  0
    6.0382   -2.0433    2.9131 H   0  0  0  0  0  0  0  0  0  0  0  0
    4.3736   -1.9213    3.4885 H   0  0  0  0  0  0  0  0  0  0  0  0
    2.6319   -1.3175    2.3174 H   0  0  0  0  0  0  0  0  0  0  0  0
    2.5713   -0.4968    0.8247 H   0  0  0  0  0  0  0  0  0  0  0  0
    1.8718   -3.2633    1.3358 H   0  0  0  0  0  0  0  0  0  0  0  0
    1.9133   -2.6738   -0.2379 H   0  0  0  0  0  0  0  0  0  0  0  0
    6.7788   -0.6935    0.6107 H   0  0  0  0  0  0  0  0  0  0  0  0
  1  2  1  0
  1 25  1  0
  1 26  1  0
  1 27  1  0
  2  3  1  0
  3  9  1  0
  3  4  1  0
  3 28  1  1
  4  5  1  0
  4 29  1  0
  4 30  1  0
  5  6  2  0
  5  7  1  0
  7 23  1  0
  7  8  1  1
  7  9  1  0
  8 31  1  0
  9 10  1  0
  9 32  1  1
 10 11  1  0
 10 33  1  0
 10 34  1  0
 11 23  1  0
 11 12  1  6
 11 13  1  0
 12 35  1  0
 13 24  1  0
 13 14  1  0
 13 36  1  6
 14 24  1  0
 14 15  1  0
 14 37  1  6
 15 16  1  0
 15 18  1  0
 15 38  1  1
 16 17  1  0
 16 39  1  0
 16 40  1  0
 17 41  1  0
 18 23  1  0
 18 19  1  0
 18 42  1  1
 19 20  1  1
 19 21  1  0
 19 24  1  0
 20 43  1  0
 20 44  1  0
 20 45  1  0
 21 22  1  0
 21 46  1  0
 21 47  1  0
 23 22  1  6
 22 48  1  0
 22 49  1  0
 24 50  1  6
M  END
>  <i_m_ct_stereo_status>  (268) 
1

>  <s_m_source_file>  (268) 
/var/tmp/pbs.5076255.sched01/tmp3ug8vllb/105tp2mz_hs.sdf

>  <i_m_source_file_index>  (268) 
14

>  <i_lp_mmshare_version>  (268) 
48012

>  <i_f3d_flags>  (268) 
0

>  <s_epik_input>  (268) 
Tz1DMVtDSDJdW0NAQEhdKE9bQ0gzXSlbQ0BIXShbQ0BdMShbQ0BdMjM0KVtPSF0pW0NIMl1bQ0BdMihbT0hdKVtDQEhdNVtDQEBIXTZbQ0BIXTVbQ0BAXShbQ0gzXSkoW0NIMl1bQ0gyXTQpW0NAQEhdM1tDQEBIXTZbQ0gyXVtPSF0=

>  <s_epik_cmdline>  (268) 
J2VwaWtfcHl0aG9uJywgJy1waHQnLCAnMi4wJywgJy1waCcsICc3LjAnLCAnLXRuJywgJzgnLCAnLW1hJywgJzIwMCcsICctaW1hZScsICc8aW5maWxlLm1hZT4nLCAnLW9tYWUnLCAnPG91dGZpbGUubWFlPic=

>  <r_lp_tautomer_probability>  (268) 
1

>  <r_epik_Ionization_Penalty>  (268) 
1.2397e-06

>  <r_epik_Ionization_Penalty_Charging>  (268) 
0

>  <r_epik_Ionization_Penalty_Neutral>  (268) 
1.2397e-06

>  <r_epik_State_Penalty>  (268) 
-0

>  <r_epik_Charging_Adjusted_Penalty>  (268) 
0

>  <i_epik_Tot_Q>  (268) 
0

>  <i_epik_Tot_abs_Q>  (268) 
0

>  <s_lp_Force_Field>  (268) 
OPLS3e

>  <r_lp_Energy>  (268) 
351.629

>  <b_lp_Chiralities_Consistent>  (268) 
1

>  <s_lp_Variant>  (268) 
101:0-1

>  <s_i_glide_gridfile>  (268) 
pfpi4k_grid

>  <i_i_glide_lignum>  (268) 
14

>  <i_i_glide_rotatable_bonds>  (268) 
5

>  <r_i_docking_score>  (268) 
-3.95599

>  <r_i_glide_ligand_efficiency>  (268) 
-0.164833

>  <r_i_glide_ligand_efficiency_sa>  (268) 
-0.47546

>  <r_i_glide_ligand_efficiency_ln>  (268) 
-0.946849

>  <r_i_glide_gscore>  (268) 
-3.95599

>  <r_i_glide_lipo>  (268) 
-0.563018

>  <r_i_glide_hbond>  (268) 
-0.32

>  <r_i_glide_metal>  (268) 
-0

>  <r_i_glide_rewards>  (268) 
-1.16227

>  <r_i_glide_evdw>  (268) 
-20.0295

>  <r_i_glide_ecoul>  (268) 
-7.18582

>  <r_i_glide_erotb>  (268) 
0.168653

>  <r_i_glide_esite>  (268) 
0

>  <r_i_glide_emodel>  (268) 
-34.5581

>  <r_i_glide_energy>  (268) 
-27.2154

>  <r_i_glide_einternal>  (268) 
1.83472

>  <r_i_glide_intrahb_reward>  (268) 
-0

>  <i_i_glide_confnum>  (268) 
2

>  <i_i_glide_posenum>  (268) 
11

>  <r_i_glide_eff_state_penalty>  (268) 
0

>  <ligand_id>  (268) 
101

>  <original_smiles>  (268) 
COC1CC(=O)C2(O)C1CC1(O)C3C4C(CO)C5C(C)(CCC512)C43

>  <smiles>  (268) 
[H]OC([H])([H])C1([H])C2([H])C3([H])C2([H])C2(C([H])([H])[H])C([H])([H])C([H])([H])C4(C5(O[H])C(=O)C([H])([H])C([H])(OC([H])([H])[H])C5([H])C([H])([H])C34O[H])C12[H]

$$$$
101:0:1
     RDKit          3D

 50 55  0  0  1  0  0  0  0  0999 V2000
    7.6081   -7.2814    2.2467 C   0  0  0  0  0  0  0  0  0  0  0  0
    6.3915   -7.5948    1.5859 O   0  0  0  0  0  0  0  0  0  0  0  0
    5.2843   -6.7952    1.9954 C   0  0  2  0  0  0  0  0  0  0  0  0
    3.9740   -7.3286    1.3958 C   0  0  0  0  0  0  0  0  0  0  0  0
    3.1264   -6.0712    1.2204 C   0  0  0  0  0  0  0  0  0  0  0  0
    1.9531   -6.0753    0.8754 O   0  0  0  0  0  0  0  0  0  0  0  0
    3.9333   -4.8034    1.5310 C   0  0  1  0  0  0  0  0  0  0  0  0
    3.5558   -4.3366    2.8203 O   0  0  0  0  0  0  0  0  0  0  0  0
    5.3790   -5.3135    1.5554 C   0  0  2  0  0  0  0  0  0  0  0  0
    5.9052   -5.1456    0.1241 C   0  0  0  0  0  0  0  0  0  0  0  0
    5.2300   -3.9128   -0.5040 C   0  0  2  0  0  0  0  0  0  0  0  0
    5.0067   -4.2998   -1.8421 O   0  0  0  0  0  0  0  0  0  0  0  0
    6.2523   -2.6620   -0.5031 C   0  0  1  0  0  0  0  0  0  0  0  0
    5.6200   -1.4478   -1.0735 C   0  0  1  0  0  0  0  0  0  0  0  0
    4.1951   -1.4630   -0.9908 C   0  0  1  0  0  0  0  0  0  0  0  0
    3.4013   -1.8060   -2.2945 C   0  0  0  0  0  0  0  0  0  0  0  0
    3.6361   -0.8193   -3.2804 O   0  0  0  0  0  0  0  0  0  0  0  0
    4.0454   -2.2703    0.4591 C   0  0  1  0  0  0  0  0  0  0  0  0
    4.6512   -1.2937    1.3822 C   0  0  2  0  0  0  0  0  0  0  0  0
    5.1100   -1.4736    2.8667 C   0  0  0  0  0  0  0  0  0  0  0  0
    3.0291   -1.3690    1.3177 C   0  0  0  0  0  0  0  0  0  0  0  0
    2.5503   -2.7946    0.6420 C   0  0  0  0  0  0  0  0  0  0  0  0
    3.8219   -3.7414    0.3709 C   0  0  1  0  0  0  0  0  0  0  0  0
    5.9319   -1.3243    0.3584 C   0  0  1  0  0  0  0  0  0  0  0  0
    8.3912   -7.9543    1.9049 H   0  0  0  0  0  0  0  0  0  0  0  0
    7.5176   -7.3933    3.3264 H   0  0  0  0  0  0  0  0  0  0  0  0
    7.9328   -6.2657    2.0287 H   0  0  0  0  0  0  0  0  0  0  0  0
    5.1901   -6.8307    3.0840 H   0  0  0  0  0  0  0  0  0  0  0  0
    4.1439   -7.7919    0.4236 H   0  0  0  0  0  0  0  0  0  0  0  0
    3.4858   -8.0564    2.0460 H   0  0  0  0  0  0  0  0  0  0  0  0
    4.0971   -3.5938    3.0379 H   0  0  0  0  0  0  0  0  0  0  0  0
    5.9972   -4.7231    2.2347 H   0  0  0  0  0  0  0  0  0  0  0  0
    6.9924   -5.0896    0.0886 H   0  0  0  0  0  0  0  0  0  0  0  0
    5.6234   -6.0399   -0.4273 H   0  0  0  0  0  0  0  0  0  0  0  0
    4.3434   -4.9768   -1.8885 H   0  0  0  0  0  0  0  0  0  0  0  0
    7.2707   -2.8535   -0.7966 H   0  0  0  0  0  0  0  0  0  0  0  0
    6.1315   -0.8585   -1.8110 H   0  0  0  0  0  0  0  0  0  0  0  0
    3.9408   -0.4137   -0.8332 H   0  0  0  0  0  0  0  0  0  0  0  0
    3.5894   -2.7604   -2.7750 H   0  0  0  0  0  0  0  0  0  0  0  0
    2.3334   -1.8138   -2.1057 H   0  0  0  0  0  0  0  0  0  0  0  0
    3.0991   -0.0684   -3.0750 H   0  0  0  0  0  0  0  0  0  0  0  0
    4.7356   -2.7799    1.1730 H   0  0  0  0  0  0  0  0  0  0  0  0
    5.3267   -0.4945    3.2925 H   0  0  0  0  0  0  0  0  0  0  0  0
    6.0257   -2.0587    2.9299 H   0  0  0  0  0  0  0  0  0  0  0  0
    4.3561   -1.9305    3.5044 H   0  0  0  0  0  0  0  0  0  0  0  0
    2.6168   -1.3259    2.3249 H   0  0  0  0  0  0  0  0  0  0  0  0
    2.5663   -0.5006    0.8301 H   0  0  0  0  0  0  0  0  0  0  0  0
    1.8691   -3.2729    1.3460 H   0  0  0  0  0  0  0  0  0  0  0  0
    1.9055   -2.6759   -0.2301 H   0  0  0  0  0  0  0  0  0  0  0  0
    6.7763   -0.7072    0.6298 H   0  0  0  0  0  0  0  0  0  0  0  0
  1  2  1  0
  1 25  1  0
  1 26  1  0
  1 27  1  0
  2  3  1  0
  3  9  1  0
  3  4  1  0
  3 28  1  1
  4  5  1  0
  4 29  1  0
  4 30  1  0
  5  6  2  0
  5  7  1  0
  7 23  1  0
  7  8  1  1
  7  9  1  0
  8 31  1  0
  9 10  1  0
  9 32  1  1
 10 11  1  0
 10 33  1  0
 10 34  1  0
 11 23  1  0
 11 12  1  6
 11 13  1  0
 12 35  1  0
 13 24  1  0
 13 14  1  0
 13 36  1  6
 14 24  1  0
 14 15  1  0
 14 37  1  6
 15 16  1  0
 15 18  1  0
 15 38  1  1
 16 17  1  0
 16 39  1  0
 16 40  1  0
 17 41  1  0
 18 23  1  0
 18 19  1  0
 18 42  1  1
 19 20  1  1
 19 21  1  0
 19 24  1  0
 20 43  1  0
 20 44  1  0
 20 45  1  0
 21 22  1  0
 21 46  1  0
 21 47  1  0
 23 22  1  6
 22 48  1  0
 22 49  1  0
 24 50  1  6
M  END
>  <i_m_ct_stereo_status>  (269) 
1

>  <s_m_source_file>  (269) 
/var/tmp/pbs.5076255.sched01/tmp3ug8vllb/105tp2mz_hs.sdf

>  <i_m_source_file_index>  (269) 
14

>  <i_lp_mmshare_version>  (269) 
48012

>  <i_f3d_flags>  (269) 
0

>  <s_epik_input>  (269) 
Tz1DMVtDSDJdW0NAQEhdKE9bQ0gzXSlbQ0BIXShbQ0BdMShbQ0BdMjM0KVtPSF0pW0NIMl1bQ0BdMihbT0hdKVtDQEhdNVtDQEBIXTZbQ0BIXTVbQ0BAXShbQ0gzXSkoW0NIMl1bQ0gyXTQpW0NAQEhdM1tDQEBIXTZbQ0gyXVtPSF0=

>  <s_epik_cmdline>  (269) 
J2VwaWtfcHl0aG9uJywgJy1waHQnLCAnMi4wJywgJy1waCcsICc3LjAnLCAnLXRuJywgJzgnLCAnLW1hJywgJzIwMCcsICctaW1hZScsICc8aW5maWxlLm1hZT4nLCAnLW9tYWUnLCAnPG91dGZpbGUubWFlPic=

>  <r_lp_tautomer_probability>  (269) 
1

>  <r_epik_Ionization_Penalty>  (269) 
1.2397e-06

>  <r_epik_Ionization_Penalty_Charging>  (269) 
0

>  <r_epik_Ionization_Penalty_Neutral>  (269) 
1.2397e-06

>  <r_epik_State_Penalty>  (269) 
-0

>  <r_epik_Charging_Adjusted_Penalty>  (269) 
0

>  <i_epik_Tot_Q>  (269) 
0

>  <i_epik_Tot_abs_Q>  (269) 
0

>  <s_lp_Force_Field>  (269) 
OPLS3e

>  <r_lp_Energy>  (269) 
351.629

>  <b_lp_Chiralities_Consistent>  (269) 
1

>  <s_lp_Variant>  (269) 
101:0-1

>  <s_i_glide_gridfile>  (269) 
pfpi4k_grid

>  <i_i_glide_lignum>  (269) 
14

>  <i_i_glide_rotatable_bonds>  (269) 
5

>  <r_i_docking_score>  (269) 
-3.86954

>  <r_i_glide_ligand_efficiency>  (269) 
-0.161231

>  <r_i_glide_ligand_efficiency_sa>  (269) 
-0.465071

>  <r_i_glide_ligand_efficiency_ln>  (269) 
-0.926159

>  <r_i_glide_gscore>  (269) 
-3.86954

>  <r_i_glide_lipo>  (269) 
-0.565395

>  <r_i_glide_hbond>  (269) 
-0.32

>  <r_i_glide_metal>  (269) 
-0

>  <r_i_glide_rewards>  (269) 
-1.16005

>  <r_i_glide_evdw>  (269) 
-20.0084

>  <r_i_glide_ecoul>  (269) 
-6.61555

>  <r_i_glide_erotb>  (269) 
0.168653

>  <r_i_glide_esite>  (269) 
0

>  <r_i_glide_emodel>  (269) 
-34.6

>  <r_i_glide_energy>  (269) 
-26.624

>  <r_i_glide_einternal>  (269) 
0.246399

>  <r_i_glide_intrahb_reward>  (269) 
-0

>  <i_i_glide_confnum>  (269) 
4

>  <i_i_glide_posenum>  (269) 
6

>  <r_i_glide_eff_state_penalty>  (269) 
0

>  <ligand_id>  (269) 
101

>  <original_smiles>  (269) 
COC1CC(=O)C2(O)C1CC1(O)C3C4C(CO)C5C(C)(CCC512)C43

>  <smiles>  (269) 
[H]OC([H])([H])C1([H])C2([H])C3([H])C2([H])C2(C([H])([H])[H])C([H])([H])C([H])([H])C4(C5(O[H])C(=O)C([H])([H])C([H])(OC([H])([H])[H])C5([H])C([H])([H])C34O[H])C12[H]

$$$$
101:0:2
     RDKit          3D

 50 55  0  0  1  0  0  0  0  0999 V2000
    3.7331   -5.8107    5.1225 C   0  0  0  0  0  0  0  0  0  0  0  0
    2.5919   -5.0993    4.6709 O   0  0  0  0  0  0  0  0  0  0  0  0
    2.8782   -3.7753    4.2287 C   0  0  2  0  0  0  0  0  0  0  0  0
    1.5781   -3.0005    3.9772 C   0  0  0  0  0  0  0  0  0  0  0  0
    1.9647   -2.0494    2.8650 C   0  0  0  0  0  0  0  0  0  0  0  0
    1.2316   -1.1273    2.4806 O   0  0  0  0  0  0  0  0  0  0  0  0
    3.3532   -2.3246    2.3012 C   0  0  1  0  0  0  0  0  0  0  0  0
    4.2603   -1.3575    2.8197 O   0  0  0  0  0  0  0  0  0  0  0  0
    3.6738   -3.7019    2.9013 C   0  0  2  0  0  0  0  0  0  0  0  0
    3.2131   -4.7320    1.8564 C   0  0  0  0  0  0  0  0  0  0  0  0
    3.3985   -4.1283    0.4522 C   0  0  2  0  0  0  0  0  0  0  0  0
    2.2837   -4.6659   -0.2232 O   0  0  0  0  0  0  0  0  0  0  0  0
    4.7316   -4.7119   -0.2464 C   0  0  1  0  0  0  0  0  0  0  0  0
    4.9453   -4.1227   -1.5823 C   0  0  1  0  0  0  0  0  0  0  0  0
    4.3313   -2.8345   -1.7346 C   0  0  1  0  0  0  0  0  0  0  0  0
    2.9817   -2.7346   -2.5018 C   0  0  0  0  0  0  0  0  0  0  0  0
    3.0803   -3.4541   -3.7212 O   0  0  0  0  0  0  0  0  0  0  0  0
    4.5354   -2.2858   -0.1853 C   0  0  1  0  0  0  0  0  0  0  0  0
    6.0146   -2.1961   -0.1133 C   0  0  2  0  0  0  0  0  0  0  0  0
    6.9405   -2.0210    1.1213 C   0  0  0  0  0  0  0  0  0  0  0  0
    5.1885   -0.8199   -0.3516 C   0  0  0  0  0  0  0  0  0  0  0  0
    3.6066   -1.0151    0.0656 C   0  0  0  0  0  0  0  0  0  0  0  0
    3.3631   -2.4683    0.7268 C   0  0  1  0  0  0  0  0  0  0  0  0
    5.9808   -3.7603   -0.6134 C   0  0  1  0  0  0  0  0  0  0  0  0
    3.4270   -6.7987    5.4621 H   0  0  0  0  0  0  0  0  0  0  0  0
    4.2199   -5.3039    5.9558 H   0  0  0  0  0  0  0  0  0  0  0  0
    4.4619   -5.9470    4.3249 H   0  0  0  0  0  0  0  0  0  0  0  0
    3.4364   -3.2420    5.0008 H   0  0  0  0  0  0  0  0  0  0  0  0
    0.7815   -3.6578    3.6308 H   0  0  0  0  0  0  0  0  0  0  0  0
    1.2329   -2.4707    4.8655 H   0  0  0  0  0  0  0  0  0  0  0  0
    3.9631   -0.5089    2.5280 H   0  0  0  0  0  0  0  0  0  0  0  0
    4.7469   -3.8226    3.0642 H   0  0  0  0  0  0  0  0  0  0  0  0
    3.7327   -5.6870    1.9675 H   0  0  0  0  0  0  0  0  0  0  0  0
    2.1551   -4.9512    2.0380 H   0  0  0  0  0  0  0  0  0  0  0  0
    2.5414   -4.8337   -1.1239 H   0  0  0  0  0  0  0  0  0  0  0  0
    4.8929   -5.7836   -0.1673 H   0  0  0  0  0  0  0  0  0  0  0  0
    5.1904   -4.7371   -2.4390 H   0  0  0  0  0  0  0  0  0  0  0  0
    5.0123   -2.3107   -2.4107 H   0  0  0  0  0  0  0  0  0  0  0  0
    2.0828   -3.0446   -1.9743 H   0  0  0  0  0  0  0  0  0  0  0  0
    2.7927   -1.6906   -2.7457 H   0  0  0  0  0  0  0  0  0  0  0  0
    3.0132   -4.3739   -3.5240 H   0  0  0  0  0  0  0  0  0  0  0  0
    4.9057   -2.7091    0.7808 H   0  0  0  0  0  0  0  0  0  0  0  0
    7.9524   -1.7988    0.7872 H   0  0  0  0  0  0  0  0  0  0  0  0
    6.9931   -2.9407    1.7003 H   0  0  0  0  0  0  0  0  0  0  0  0
    6.6419   -1.2097    1.7847 H   0  0  0  0  0  0  0  0  0  0  0  0
    5.6004   -0.0269    0.2765 H   0  0  0  0  0  0  0  0  0  0  0  0
    5.2866   -0.4072   -1.3643 H   0  0  0  0  0  0  0  0  0  0  0  0
    3.3322   -0.2247    0.7675 H   0  0  0  0  0  0  0  0  0  0  0  0
    2.9537   -0.7838   -0.7789 H   0  0  0  0  0  0  0  0  0  0  0  0
    6.9460   -4.2403   -0.7082 H   0  0  0  0  0  0  0  0  0  0  0  0
  1  2  1  0
  1 25  1  0
  1 26  1  0
  1 27  1  0
  2  3  1  0
  3  9  1  0
  3  4  1  0
  3 28  1  1
  4  5  1  0
  4 29  1  0
  4 30  1  0
  5  6  2  0
  5  7  1  0
  7 23  1  0
  7  8  1  6
  7  9  1  0
  8 31  1  0
  9 10  1  0
  9 32  1  1
 10 11  1  0
 10 33  1  0
 10 34  1  0
 11 23  1  0
 11 12  1  6
 11 13  1  0
 12 35  1  0
 13 24  1  0
 13 14  1  0
 13 36  1  6
 14 24  1  0
 14 15  1  0
 14 37  1  6
 15 16  1  0
 15 18  1  0
 15 38  1  6
 16 17  1  0
 16 39  1  0
 16 40  1  0
 17 41  1  0
 18 23  1  0
 18 19  1  0
 18 42  1  6
 19 20  1  1
 19 21  1  0
 19 24  1  0
 20 43  1  0
 20 44  1  0
 20 45  1  0
 21 22  1  0
 21 46  1  0
 21 47  1  0
 23 22  1  6
 22 48  1  0
 22 49  1  0
 24 50  1  6
M  END
>  <i_m_ct_stereo_status>  (270) 
1

>  <s_m_source_file>  (270) 
/var/tmp/pbs.5076255.sched01/tmp3ug8vllb/105tp2mz_hs.sdf

>  <i_m_source_file_index>  (270) 
14

>  <i_lp_mmshare_version>  (270) 
48012

>  <i_f3d_flags>  (270) 
0

>  <s_epik_input>  (270) 
Tz1DMVtDSDJdW0NAQEhdKE9bQ0gzXSlbQ0BIXShbQ0BdMShbQ0BdMjM0KVtPSF0pW0NIMl1bQ0BdMihbT0hdKVtDQEhdNVtDQEBIXTZbQ0BIXTVbQ0BAXShbQ0gzXSkoW0NIMl1bQ0gyXTQpW0NAQEhdM1tDQEBIXTZbQ0gyXVtPSF0=

>  <s_epik_cmdline>  (270) 
J2VwaWtfcHl0aG9uJywgJy1waHQnLCAnMi4wJywgJy1waCcsICc3LjAnLCAnLXRuJywgJzgnLCAnLW1hJywgJzIwMCcsICctaW1hZScsICc8aW5maWxlLm1hZT4nLCAnLW9tYWUnLCAnPG91dGZpbGUubWFlPic=

>  <r_lp_tautomer_probability>  (270) 
1

>  <r_epik_Ionization_Penalty>  (270) 
1.2397e-06

>  <r_epik_Ionization_Penalty_Charging>  (270) 
0

>  <r_epik_Ionization_Penalty_Neutral>  (270) 
1.2397e-06

>  <r_epik_State_Penalty>  (270) 
-0

>  <r_epik_Charging_Adjusted_Penalty>  (270) 
0

>  <i_epik_Tot_Q>  (270) 
0

>  <i_epik_Tot_abs_Q>  (270) 
0

>  <s_lp_Force_Field>  (270) 
OPLS3e

>  <r_lp_Energy>  (270) 
351.629

>  <b_lp_Chiralities_Consistent>  (270) 
1

>  <s_lp_Variant>  (270) 
101:0-1

>  <s_i_glide_gridfile>  (270) 
pfpi4k_grid

>  <i_i_glide_lignum>  (270) 
14

>  <i_i_glide_rotatable_bonds>  (270) 
5

>  <r_i_docking_score>  (270) 
-3.72418

>  <r_i_glide_ligand_efficiency>  (270) 
-0.155174

>  <r_i_glide_ligand_efficiency_sa>  (270) 
-0.4476

>  <r_i_glide_ligand_efficiency_ln>  (270) 
-0.891367

>  <r_i_glide_gscore>  (270) 
-3.72418

>  <r_i_glide_lipo>  (270) 
-0.0979504

>  <r_i_glide_hbond>  (270) 
-0.60745

>  <r_i_glide_metal>  (270) 
-0

>  <r_i_glide_rewards>  (270) 
-1.12904

>  <r_i_glide_evdw>  (270) 
-19.4394

>  <r_i_glide_ecoul>  (270) 
-7.19487

>  <r_i_glide_erotb>  (270) 
0.168653

>  <r_i_glide_esite>  (270) 
-0.00718847

>  <r_i_glide_emodel>  (270) 
-32.8054

>  <r_i_glide_energy>  (270) 
-26.6342

>  <r_i_glide_einternal>  (270) 
3.16505

>  <r_i_glide_intrahb_reward>  (270) 
-0

>  <i_i_glide_confnum>  (270) 
2

>  <i_i_glide_posenum>  (270) 
4

>  <r_i_glide_eff_state_penalty>  (270) 
0

>  <ligand_id>  (270) 
101

>  <original_smiles>  (270) 
COC1CC(=O)C2(O)C1CC1(O)C3C4C(CO)C5C(C)(CCC512)C43

>  <smiles>  (270) 
[H]OC([H])([H])C1([H])C2([H])C3([H])C2([H])C2(C([H])([H])[H])C([H])([H])C([H])([H])C4(C5(O[H])C(=O)C([H])([H])C([H])(OC([H])([H])[H])C5([H])C([H])([H])C34O[H])C12[H]

$$$$
102:0:0
     RDKit          3D

 86 93  0  0  1  0  0  0  0  0999 V2000
    5.6364   -8.4600    1.4766 C   0  0  0  0  0  0  0  0  0  0  0  0
    4.8179   -7.6281    2.1530 C   0  0  0  0  0  0  0  0  0  0  0  0
    5.1755   -7.2414    3.5412 C   0  0  0  0  0  0  0  0  0  0  0  0
    5.9583   -7.9742    4.1571 O   0  0  0  0  0  0  0  0  0  0  0  0
    4.6001   -5.9437    4.2445 C   0  0  1  0  0  0  0  0  0  0  0  0
    5.3643   -5.9606    5.6279 C   0  0  0  0  0  0  0  0  0  0  0  0
    5.0892   -4.5230    3.5526 C   0  0  2  0  0  0  0  0  0  0  0  0
    4.3814   -3.1683    4.0668 C   0  0  0  0  0  0  0  0  0  0  0  0
    4.8812   -2.7131    5.2397 C   0  0  0  0  0  0  0  0  0  0  0  0
    3.2233   -2.3228    3.2995 C   0  0  1  0  0  0  0  0  0  0  0  0
    2.6768   -0.9917    4.0240 C   0  0  2  0  0  0  0  0  0  0  0  0
    3.7824    0.0357    4.4350 C   0  0  0  0  0  0  0  0  0  0  0  0
    1.8373   -1.3961    5.2675 C   0  0  0  0  0  0  0  0  0  0  0  0
    1.0880   -0.3519    5.8835 O   0  0  0  0  0  0  0  0  0  0  0  0
    0.3846    0.5560    5.1808 C   0  0  0  0  0  0  0  0  0  0  0  0
   -0.5556    1.1831    5.6561 O   0  0  0  0  0  0  0  0  0  0  0  0
    0.8759    0.8660    3.7691 C   0  0  0  0  0  0  0  0  0  0  0  0
    1.6663   -0.2680    3.0830 C   0  0  1  0  0  0  0  0  0  0  0  0
    2.3392    0.2555    1.7869 C   0  0  0  0  0  0  0  0  0  0  0  0
    3.5555   -0.5900    1.3593 C   0  0  0  0  0  0  0  0  0  0  0  0
    3.3637   -2.0989    1.6729 C   0  0  2  0  0  0  0  0  0  0  0  0
    2.2144   -2.3680    0.9041 O   0  0  0  0  0  0  0  0  0  0  0  0
    4.4560   -2.9566    0.9829 C   0  0  2  0  0  0  0  0  0  0  0  0
    5.9270   -2.5515    0.8278 C   0  0  0  0  0  0  0  0  0  0  0  0
    6.5175   -3.4294    1.7985 O   0  0  0  0  0  0  0  0  0  0  0  0
    5.7162   -4.5722    2.0582 C   0  0  1  0  0  0  0  0  0  0  0  0
    6.6497   -5.6066    1.8232 O   0  0  0  0  0  0  0  0  0  0  0  0
    4.5381   -4.5458    1.0493 C   0  0  2  0  0  0  0  0  0  0  0  0
    5.0378   -5.0364   -0.3476 C   0  0  0  0  0  0  0  0  0  0  0  0
    3.3157   -5.5646    1.4157 C   0  0  2  0  0  0  0  0  0  0  0  0
    2.0590   -5.1883    2.2114 C   0  0  0  0  0  0  0  0  0  0  0  0
    1.9165   -5.5096    3.7021 C   0  0  0  0  0  0  0  0  0  0  0  0
    3.0189   -6.1798    4.5876 C   0  0  2  0  0  0  0  0  0  0  0  0
    2.6428   -5.5144    5.9664 C   0  0  0  0  0  0  0  0  0  0  0  0
    2.6411   -7.7078    4.6438 C   0  0  0  0  0  0  0  0  0  0  0  0
    2.6094   -8.3693    5.9031 C   0  0  0  0  0  0  0  0  0  0  0  0
    2.2149   -9.7091    6.0391 C   0  0  0  0  0  0  0  0  0  0  0  0
    1.8418  -10.4435    4.9113 C   0  0  0  0  0  0  0  0  0  0  0  0
    1.8953   -9.8395    3.6491 C   0  0  0  0  0  0  0  0  0  0  0  0
    2.3047   -8.4962    3.4833 C   0  0  0  0  0  0  0  0  0  0  0  0
    2.3441   -8.0155    2.0194 C   0  0  0  0  0  0  0  0  0  0  0  0
    3.5339   -7.1280    1.5305 C   0  0  2  0  0  0  0  0  0  0  0  0
    5.4001   -8.7773    0.4725 H   0  0  0  0  0  0  0  0  0  0  0  0
    6.5583   -8.8416    1.8969 H   0  0  0  0  0  0  0  0  0  0  0  0
    5.1378   -5.1281    6.2851 H   0  0  0  0  0  0  0  0  0  0  0  0
    6.4502   -5.9418    5.5089 H   0  0  0  0  0  0  0  0  0  0  0  0
    5.1460   -6.8602    6.2076 H   0  0  0  0  0  0  0  0  0  0  0  0
    6.0603   -4.4020    4.0258 H   0  0  0  0  0  0  0  0  0  0  0  0
    5.6953   -3.2084    5.7413 H   0  0  0  0  0  0  0  0  0  0  0  0
    4.5250   -1.8514    5.7611 H   0  0  0  0  0  0  0  0  0  0  0  0
    2.3651   -2.9451    3.3955 H   0  0  0  0  0  0  0  0  0  0  0  0
    3.6280    1.0316    4.0220 H   0  0  0  0  0  0  0  0  0  0  0  0
    4.7792   -0.2702    4.1171 H   0  0  0  0  0  0  0  0  0  0  0  0
    3.8182    0.1796    5.5152 H   0  0  0  0  0  0  0  0  0  0  0  0
    1.1324   -2.1852    4.9977 H   0  0  0  0  0  0  0  0  0  0  0  0
    2.4749   -1.8221    6.0398 H   0  0  0  0  0  0  0  0  0  0  0  0
    0.0104    1.1394    3.1634 H   0  0  0  0  0  0  0  0  0  0  0  0
    1.4788    1.7686    3.8510 H   0  0  0  0  0  0  0  0  0  0  0  0
    0.9148   -1.0069    2.7903 H   0  0  0  0  0  0  0  0  0  0  0  0
    1.5921    0.2496    0.9899 H   0  0  0  0  0  0  0  0  0  0  0  0
    2.6419    1.3036    1.8769 H   0  0  0  0  0  0  0  0  0  0  0  0
    3.7607   -0.4278    0.3003 H   0  0  0  0  0  0  0  0  0  0  0  0
    4.4355   -0.2225    1.8836 H   0  0  0  0  0  0  0  0  0  0  0  0
    2.0180   -1.6550    0.2922 H   0  0  0  0  0  0  0  0  0  0  0  0
    4.7740   -2.5369    1.8951 H   0  0  0  0  0  0  0  0  0  0  0  0
    6.3298   -2.7201   -0.1670 H   0  0  0  0  0  0  0  0  0  0  0  0
    6.1722   -1.5085    1.0574 H   0  0  0  0  0  0  0  0  0  0  0  0
    6.1912   -6.4291    1.8100 H   0  0  0  0  0  0  0  0  0  0  0  0
    5.1358   -6.1177   -0.3998 H   0  0  0  0  0  0  0  0  0  0  0  0
    6.0225   -4.6772   -0.6378 H   0  0  0  0  0  0  0  0  0  0  0  0
    4.3468   -4.7375   -1.1365 H   0  0  0  0  0  0  0  0  0  0  0  0
    2.8264   -5.5133    0.4422 H   0  0  0  0  0  0  0  0  0  0  0  0
    1.6855   -4.2118    2.0313 H   0  0  0  0  0  0  0  0  0  0  0  0
    1.2224   -5.6835    1.7282 H   0  0  0  0  0  0  0  0  0  0  0  0
    1.5566   -4.5950    4.1635 H   0  0  0  0  0  0  0  0  0  0  0  0
    1.0094   -6.1092    3.8032 H   0  0  0  0  0  0  0  0  0  0  0  0
    2.8039   -4.4362    5.9604 H   0  0  0  0  0  0  0  0  0  0  0  0
    3.1802   -5.8718    6.8397 H   0  0  0  0  0  0  0  0  0  0  0  0
    1.5907   -5.6739    6.2027 H   0  0  0  0  0  0  0  0  0  0  0  0
    2.8820   -7.8795    6.8211 H   0  0  0  0  0  0  0  0  0  0  0  0
    2.1901  -10.1778    7.0124 H   0  0  0  0  0  0  0  0  0  0  0  0
    1.5258  -11.4718    5.0218 H   0  0  0  0  0  0  0  0  0  0  0  0
    1.6142  -10.4346    2.7931 H   0  0  0  0  0  0  0  0  0  0  0  0
    2.4616   -8.9309    1.4370 H   0  0  0  0  0  0  0  0  0  0  0  0
    1.3576   -7.6959    1.6985 H   0  0  0  0  0  0  0  0  0  0  0  0
    3.6262   -7.4210    0.4813 H   0  0  0  0  0  0  0  0  0  0  0  0
  1  2  2  0
  1 43  1  0
  1 44  1  0
  2 42  1  0
  2  3  1  0
  3  4  2  0
  3  5  1  0
  5 33  1  0
  5  6  1  1
  5  7  1  0
  6 45  1  0
  6 46  1  0
  6 47  1  0
  7 26  1  0
  7  8  1  0
  7 48  1  1
  8  9  2  0
  8 10  1  0
  9 49  1  0
  9 50  1  0
 10 21  1  0
 10 11  1  0
 10 51  1  6
 11 18  1  0
 11 12  1  1
 11 13  1  0
 12 52  1  0
 12 53  1  0
 12 54  1  0
 13 14  1  0
 13 55  1  0
 13 56  1  0
 14 15  1  0
 15 16  2  0
 15 17  1  0
 17 18  1  0
 17 57  1  0
 17 58  1  0
 18 19  1  0
 18 59  1  6
 19 20  1  0
 19 60  1  0
 19 61  1  0
 20 21  1  0
 20 62  1  0
 20 63  1  0
 21 22  1  6
 21 23  1  0
 22 64  1  0
 23 28  1  0
 23 24  1  0
 23 65  1  6
 24 25  1  0
 24 66  1  0
 24 67  1  0
 25 26  1  0
 26 27  1  1
 26 28  1  0
 27 68  1  0
 28 29  1  6
 28 30  1  0
 29 69  1  0
 29 70  1  0
 29 71  1  0
 30 42  1  0
 30 31  1  0
 30 72  1  6
 31 32  1  0
 31 73  1  0
 31 74  1  0
 32 33  1  0
 32 75  1  0
 32 76  1  0
 33 34  1  1
 33 35  1  0
 34 77  1  0
 34 78  1  0
 34 79  1  0
 35 40  2  0
 35 36  1  0
 36 37  2  0
 36 80  1  0
 37 38  1  0
 37 81  1  0
 38 39  2  0
 38 82  1  0
 39 40  1  0
 39 83  1  0
 40 41  1  0
 41 42  1  0
 41 84  1  0
 41 85  1  0
 42 86  1  6
M  END
>  <i_m_ct_stereo_status>  (271) 
1

>  <s_m_source_file>  (271) 
/var/tmp/pbs.5076255.sched01/tmp3ug8vllb/105tp2mz_hs.sdf

>  <i_m_source_file_index>  (271) 
15

>  <i_lp_mmshare_version>  (271) 
48012

>  <i_f3d_flags>  (271) 
0

>  <s_epik_input>  (271) 
W2NIXTFbY0hdW2NIXVtjSF1jKFtDQF0yKFtDSDNdKVtDSDJdW0NIMl0zKWMxW0NIMl1bQ0BIXShDKD1bQ0gyXSlDND1PKVtDQEBIXTNbQ0BdKFtDSDNdKShbQ0BdNShbT0hdKVtDQEBIXTZbQ0BAXTI0W0NIM10pW0NAQEhdKFtDSDJdTzUpW0NAQF03KFtPSF0pW0NAQEhdKEM2PVtDSDJdKVtDQEBdOChbQ0gzXSlbQ0BIXShbQ0gyXVtDSDJdNylbQ0gyXUMoPU8pT1tDSDJdOA==

>  <s_epik_cmdline>  (271) 
J2VwaWtfcHl0aG9uJywgJy1waHQnLCAnMi4wJywgJy1waCcsICc3LjAnLCAnLXRuJywgJzgnLCAnLW1hJywgJzIwMCcsICctaW1hZScsICc8aW5maWxlLm1hZT4nLCAnLW9tYWUnLCAnPG91dGZpbGUubWFlPic=

>  <r_lp_tautomer_probability>  (271) 
1

>  <r_epik_Ionization_Penalty>  (271) 
1.66802e-07

>  <r_epik_Ionization_Penalty_Charging>  (271) 
0

>  <r_epik_Ionization_Penalty_Neutral>  (271) 
1.66802e-07

>  <r_epik_State_Penalty>  (271) 
-0

>  <r_epik_Charging_Adjusted_Penalty>  (271) 
0

>  <i_epik_Tot_Q>  (271) 
0

>  <i_epik_Tot_abs_Q>  (271) 
0

>  <s_epik_Chemistry_Notes>  (271) 
This compound has an ester and may undergo hydrolysis at high or low pH.

>  <s_lp_Force_Field>  (271) 
OPLS3e

>  <r_lp_Energy>  (271) 
284.824

>  <b_lp_Chiralities_Consistent>  (271) 
1

>  <s_lp_Variant>  (271) 
102:0-1

>  <s_i_glide_gridfile>  (271) 
pfpi4k_grid

>  <i_i_glide_lignum>  (271) 
15

>  <i_i_glide_rotatable_bonds>  (271) 
2

>  <r_i_docking_score>  (271) 
-2.62155

>  <r_i_glide_ligand_efficiency>  (271) 
-0.0624178

>  <r_i_glide_ligand_efficiency_sa>  (271) 
-0.216966

>  <r_i_glide_ligand_efficiency_ln>  (271) 
-0.553341

>  <r_i_glide_gscore>  (271) 
-2.62155

>  <r_i_glide_lipo>  (271) 
-0.343799

>  <r_i_glide_hbond>  (271) 
-0.138366

>  <r_i_glide_metal>  (271) 
-0

>  <r_i_glide_rewards>  (271) 
-0.0485958

>  <r_i_glide_evdw>  (271) 
-29.8162

>  <r_i_glide_ecoul>  (271) 
-3.95828

>  <r_i_glide_erotb>  (271) 
0

>  <r_i_glide_esite>  (271) 
-0.00623495

>  <r_i_glide_emodel>  (271) 
-38.0745

>  <r_i_glide_energy>  (271) 
-33.7745

>  <r_i_glide_einternal>  (271) 
2.6748

>  <r_i_glide_intrahb_reward>  (271) 
-0

>  <i_i_glide_confnum>  (271) 
2

>  <i_i_glide_posenum>  (271) 
7

>  <r_i_glide_eff_state_penalty>  (271) 
0

>  <ligand_id>  (271) 
102

>  <original_smiles>  (271) 
C=C1C(=O)C2(C)C3C(=C)C4C5(C)COC(=O)CC5CCC4(O)C4COC3(O)C4(C)C3CCC2(C)c2ccccc2CC13

>  <smiles>  (271) 
[H]OC12OC([H])([H])C3([H])C4(O[H])C([H])([H])C([H])([H])C5([H])C([H])([H])C(=O)OC([H])([H])C5(C([H])([H])[H])C4([H])C(=C([H])[H])C1([H])C1(C([H])([H])[H])C(=O)C(=C([H])[H])C4([H])C([H])([H])c5c([H])c([H])c([H])c([H])c5C1(C([H])([H])[H])C([H])([H])C([H])([H])C4([H])C23C([H])([H])[H]

$$$$
102:0:1
     RDKit          3D

 86 93  0  0  1  0  0  0  0  0999 V2000
    5.6154   -8.1174    1.3430 C   0  0  0  0  0  0  0  0  0  0  0  0
    4.7594   -7.3884    2.0896 C   0  0  0  0  0  0  0  0  0  0  0  0
    5.1180   -7.0857    3.4979 C   0  0  0  0  0  0  0  0  0  0  0  0
    5.9560   -7.8073    4.0480 O   0  0  0  0  0  0  0  0  0  0  0  0
    4.4645   -5.8946    4.3107 C   0  0  1  0  0  0  0  0  0  0  0  0
    5.2440   -5.9743    5.6832 C   0  0  0  0  0  0  0  0  0  0  0  0
    4.8492   -4.3923    3.7385 C   0  0  2  0  0  0  0  0  0  0  0  0
    4.0654   -3.1363    4.3720 C   0  0  0  0  0  0  0  0  0  0  0  0
    4.5466   -2.7474    5.5726 C   0  0  0  0  0  0  0  0  0  0  0  0
    2.8463   -2.3072    3.6849 C   0  0  1  0  0  0  0  0  0  0  0  0
    2.2181   -1.0814    4.5208 C   0  0  2  0  0  0  0  0  0  0  0  0
    3.2572   -0.0198    5.0060 C   0  0  0  0  0  0  0  0  0  0  0  0
    1.4223   -1.6429    5.7320 C   0  0  0  0  0  0  0  0  0  0  0  0
    0.6142   -0.7025    6.4378 O   0  0  0  0  0  0  0  0  0  0  0  0
   -0.1619    0.2036    5.8175 C   0  0  0  0  0  0  0  0  0  0  0  0
   -1.1458    0.7153    6.3463 O   0  0  0  0  0  0  0  0  0  0  0  0
    0.2932    0.6656    4.4340 C   0  0  0  0  0  0  0  0  0  0  0  0
    1.1477   -0.3554    3.6493 C   0  0  1  0  0  0  0  0  0  0  0  0
    1.7703    0.3207    2.3985 C   0  0  0  0  0  0  0  0  0  0  0  0
    3.0383   -0.3994    1.8948 C   0  0  0  0  0  0  0  0  0  0  0  0
    2.9591   -1.9395    2.0863 C   0  0  2  0  0  0  0  0  0  0  0  0
    1.8267   -2.2098    1.3078 O   0  0  0  0  0  0  0  0  0  0  0  0
    4.0915   -2.6697    1.3137 C   0  0  2  0  0  0  0  0  0  0  0  0
    5.5316   -2.1598    1.1859 C   0  0  0  0  0  0  0  0  0  0  0  0
    6.1912   -3.0671    2.0820 O   0  0  0  0  0  0  0  0  0  0  0  0
    5.4645   -4.2782    2.2433 C   0  0  1  0  0  0  0  0  0  0  0  0
    6.4515   -5.2291    1.9162 O   0  0  0  0  0  0  0  0  0  0  0  0
    4.2775   -4.2484    1.2426 C   0  0  2  0  0  0  0  0  0  0  0  0
    4.7896   -4.5910   -0.2019 C   0  0  0  0  0  0  0  0  0  0  0  0
    3.1261   -5.3730    1.5382 C   0  0  2  0  0  0  0  0  0  0  0  0
    1.8572   -5.1466    2.3702 C   0  0  0  0  0  0  0  0  0  0  0  0
    1.7517   -5.5997    3.8300 C   0  0  0  0  0  0  0  0  0  0  0  0
    2.9068   -6.2637    4.6475 C   0  0  2  0  0  0  0  0  0  0  0  0
    2.5060   -5.7398    6.0794 C   0  0  0  0  0  0  0  0  0  0  0  0
    2.6323   -7.8114    4.5816 C   0  0  0  0  0  0  0  0  0  0  0  0
    2.6598   -8.5745    5.7811 C   0  0  0  0  0  0  0  0  0  0  0  0
    2.3543   -9.9417    5.8105 C   0  0  0  0  0  0  0  0  0  0  0  0
    2.0144  -10.6094    4.6279 C   0  0  0  0  0  0  0  0  0  0  0  0
    2.0122   -9.9015    3.4203 C   0  0  0  0  0  0  0  0  0  0  0  0
    2.3311   -8.5246    3.3611 C   0  0  0  0  0  0  0  0  0  0  0  0
    2.3173   -7.9226    1.9448 C   0  0  0  0  0  0  0  0  0  0  0  0
    3.4422   -6.9226    1.5173 C   0  0  2  0  0  0  0  0  0  0  0  0
    5.3781   -8.3707    0.3240 H   0  0  0  0  0  0  0  0  0  0  0  0
    6.5695   -8.4568    1.7208 H   0  0  0  0  0  0  0  0  0  0  0  0
    4.9719   -5.2170    6.4095 H   0  0  0  0  0  0  0  0  0  0  0  0
    6.3251   -5.8761    5.5611 H   0  0  0  0  0  0  0  0  0  0  0  0
    5.0916   -6.9317    6.1868 H   0  0  0  0  0  0  0  0  0  0  0  0
    5.8132   -4.2431    4.2162 H   0  0  0  0  0  0  0  0  0  0  0  0
    5.3972   -3.2263    6.0287 H   0  0  0  0  0  0  0  0  0  0  0  0
    4.1410   -1.9562    6.1656 H   0  0  0  0  0  0  0  0  0  0  0  0
    2.0334   -2.9908    3.7332 H   0  0  0  0  0  0  0  0  0  0  0  0
    3.0319    0.9938    4.6778 H   0  0  0  0  0  0  0  0  0  0  0  0
    4.2681   -0.2320    4.6563 H   0  0  0  0  0  0  0  0  0  0  0  0
    3.2980    0.0361    6.0939 H   0  0  0  0  0  0  0  0  0  0  0  0
    0.7669   -2.4506    5.3999 H   0  0  0  0  0  0  0  0  0  0  0  0
    2.0970   -2.0863    6.4608 H   0  0  0  0  0  0  0  0  0  0  0  0
   -0.5943    0.9320    3.8611 H   0  0  0  0  0  0  0  0  0  0  0  0
    0.8363    1.5952    4.5892 H   0  0  0  0  0  0  0  0  0  0  0  0
    0.4414   -1.1145    3.3025 H   0  0  0  0  0  0  0  0  0  0  0  0
    1.0195    0.3170    1.6035 H   0  0  0  0  0  0  0  0  0  0  0  0
    1.9951    1.3783    2.5648 H   0  0  0  0  0  0  0  0  0  0  0  0
    3.2100   -0.1429    0.8478 H   0  0  0  0  0  0  0  0  0  0  0  0
    3.8999   -0.0149    2.4383 H   0  0  0  0  0  0  0  0  0  0  0  0
    1.7539   -1.6030    0.5755 H   0  0  0  0  0  0  0  0  0  0  0  0
    4.3886   -2.3118    2.2574 H   0  0  0  0  0  0  0  0  0  0  0  0
    5.9250   -2.2223    0.1747 H   0  0  0  0  0  0  0  0  0  0  0  0
    5.7039   -1.1229    1.4945 H   0  0  0  0  0  0  0  0  0  0  0  0
    7.0958   -5.2294    2.6099 H   0  0  0  0  0  0  0  0  0  0  0  0
    4.9587   -5.6560   -0.3375 H   0  0  0  0  0  0  0  0  0  0  0  0
    5.7480   -4.1506   -0.4677 H   0  0  0  0  0  0  0  0  0  0  0  0
    4.0707   -4.2822   -0.9634 H   0  0  0  0  0  0  0  0  0  0  0  0
    2.6209   -5.2759    0.5774 H   0  0  0  0  0  0  0  0  0  0  0  0
    1.4330   -4.1803    2.2724 H   0  0  0  0  0  0  0  0  0  0  0  0
    1.0434   -5.6518    1.8573 H   0  0  0  0  0  0  0  0  0  0  0  0
    1.3409   -4.7511    4.3681 H   0  0  0  0  0  0  0  0  0  0  0  0
    0.8870   -6.2643    3.8903 H   0  0  0  0  0  0  0  0  0  0  0  0
    2.5955   -4.6560    6.1624 H   0  0  0  0  0  0  0  0  0  0  0  0
    3.0756   -6.1316    6.9170 H   0  0  0  0  0  0  0  0  0  0  0  0
    1.4696   -5.9890    6.3087 H   0  0  0  0  0  0  0  0  0  0  0  0
    2.9087   -8.1432    6.7349 H   0  0  0  0  0  0  0  0  0  0  0  0
    2.3708  -10.4844    6.7421 H   0  0  0  0  0  0  0  0  0  0  0  0
    1.7669  -11.6598    4.6556 H   0  0  0  0  0  0  0  0  0  0  0  0
    1.7586  -10.4407    2.5197 H   0  0  0  0  0  0  0  0  0  0  0  0
    2.4889   -8.7775    1.2880 H   0  0  0  0  0  0  0  0  0  0  0  0
    1.3079   -7.6442    1.6565 H   0  0  0  0  0  0  0  0  0  0  0  0
    3.5390   -7.1161    0.4510 H   0  0  0  0  0  0  0  0  0  0  0  0
  1  2  2  0
  1 43  1  0
  1 44  1  0
  2 42  1  0
  2  3  1  0
  3  4  2  0
  3  5  1  0
  5 33  1  0
  5  6  1  1
  5  7  1  0
  6 45  1  0
  6 46  1  0
  6 47  1  0
  7 26  1  0
  7  8  1  0
  7 48  1  1
  8  9  2  0
  8 10  1  0
  9 49  1  0
  9 50  1  0
 10 21  1  0
 10 11  1  0
 10 51  1  6
 11 18  1  0
 11 12  1  1
 11 13  1  0
 12 52  1  0
 12 53  1  0
 12 54  1  0
 13 14  1  0
 13 55  1  0
 13 56  1  0
 14 15  1  0
 15 16  2  0
 15 17  1  0
 17 18  1  0
 17 57  1  0
 17 58  1  0
 18 19  1  0
 18 59  1  6
 19 20  1  0
 19 60  1  0
 19 61  1  0
 20 21  1  0
 20 62  1  0
 20 63  1  0
 21 22  1  6
 21 23  1  0
 22 64  1  0
 23 28  1  0
 23 24  1  0
 23 65  1  6
 24 25  1  0
 24 66  1  0
 24 67  1  0
 25 26  1  0
 26 27  1  6
 26 28  1  0
 27 68  1  0
 28 29  1  6
 28 30  1  0
 29 69  1  0
 29 70  1  0
 29 71  1  0
 30 42  1  0
 30 31  1  0
 30 72  1  6
 31 32  1  0
 31 73  1  0
 31 74  1  0
 32 33  1  0
 32 75  1  0
 32 76  1  0
 33 34  1  1
 33 35  1  0
 34 77  1  0
 34 78  1  0
 34 79  1  0
 35 40  2  0
 35 36  1  0
 36 37  2  0
 36 80  1  0
 37 38  1  0
 37 81  1  0
 38 39  2  0
 38 82  1  0
 39 40  1  0
 39 83  1  0
 40 41  1  0
 41 42  1  0
 41 84  1  0
 41 85  1  0
 42 86  1  6
M  END
>  <i_m_ct_stereo_status>  (272) 
1

>  <s_m_source_file>  (272) 
/var/tmp/pbs.5076255.sched01/tmp3ug8vllb/105tp2mz_hs.sdf

>  <i_m_source_file_index>  (272) 
15

>  <i_lp_mmshare_version>  (272) 
48012

>  <i_f3d_flags>  (272) 
0

>  <s_epik_input>  (272) 
W2NIXTFbY0hdW2NIXVtjSF1jKFtDQF0yKFtDSDNdKVtDSDJdW0NIMl0zKWMxW0NIMl1bQ0BIXShDKD1bQ0gyXSlDND1PKVtDQEBIXTNbQ0BdKFtDSDNdKShbQ0BdNShbT0hdKVtDQEBIXTZbQ0BAXTI0W0NIM10pW0NAQEhdKFtDSDJdTzUpW0NAQF03KFtPSF0pW0NAQEhdKEM2PVtDSDJdKVtDQEBdOChbQ0gzXSlbQ0BIXShbQ0gyXVtDSDJdNylbQ0gyXUMoPU8pT1tDSDJdOA==

>  <s_epik_cmdline>  (272) 
J2VwaWtfcHl0aG9uJywgJy1waHQnLCAnMi4wJywgJy1waCcsICc3LjAnLCAnLXRuJywgJzgnLCAnLW1hJywgJzIwMCcsICctaW1hZScsICc8aW5maWxlLm1hZT4nLCAnLW9tYWUnLCAnPG91dGZpbGUubWFlPic=

>  <r_lp_tautomer_probability>  (272) 
1

>  <r_epik_Ionization_Penalty>  (272) 
1.66802e-07

>  <r_epik_Ionization_Penalty_Charging>  (272) 
0

>  <r_epik_Ionization_Penalty_Neutral>  (272) 
1.66802e-07

>  <r_epik_State_Penalty>  (272) 
-0

>  <r_epik_Charging_Adjusted_Penalty>  (272) 
0

>  <i_epik_Tot_Q>  (272) 
0

>  <i_epik_Tot_abs_Q>  (272) 
0

>  <s_epik_Chemistry_Notes>  (272) 
This compound has an ester and may undergo hydrolysis at high or low pH.

>  <s_lp_Force_Field>  (272) 
OPLS3e

>  <r_lp_Energy>  (272) 
284.824

>  <b_lp_Chiralities_Consistent>  (272) 
1

>  <s_lp_Variant>  (272) 
102:0-1

>  <s_i_glide_gridfile>  (272) 
pfpi4k_grid

>  <i_i_glide_lignum>  (272) 
15

>  <i_i_glide_rotatable_bonds>  (272) 
2

>  <r_i_docking_score>  (272) 
-2.57982

>  <r_i_glide_ligand_efficiency>  (272) 
-0.0614244

>  <r_i_glide_ligand_efficiency_sa>  (272) 
-0.213513

>  <r_i_glide_ligand_efficiency_ln>  (272) 
-0.544535

>  <r_i_glide_gscore>  (272) 
-2.57982

>  <r_i_glide_lipo>  (272) 
-0.324974

>  <r_i_glide_hbond>  (272) 
-0.149703

>  <r_i_glide_metal>  (272) 
-0

>  <r_i_glide_rewards>  (272) 
-0.0395882

>  <r_i_glide_evdw>  (272) 
-28.2137

>  <r_i_glide_ecoul>  (272) 
-4.2322

>  <r_i_glide_erotb>  (272) 
0

>  <r_i_glide_esite>  (272) 
-0.0200457

>  <r_i_glide_emodel>  (272) 
-37.6823

>  <r_i_glide_energy>  (272) 
-32.4459

>  <r_i_glide_einternal>  (272) 
0.60505

>  <r_i_glide_intrahb_reward>  (272) 
-0

>  <i_i_glide_confnum>  (272) 
2

>  <i_i_glide_posenum>  (272) 
34

>  <r_i_glide_eff_state_penalty>  (272) 
0

>  <ligand_id>  (272) 
102

>  <original_smiles>  (272) 
C=C1C(=O)C2(C)C3C(=C)C4C5(C)COC(=O)CC5CCC4(O)C4COC3(O)C4(C)C3CCC2(C)c2ccccc2CC13

>  <smiles>  (272) 
[H]OC12OC([H])([H])C3([H])C4(O[H])C([H])([H])C([H])([H])C5([H])C([H])([H])C(=O)OC([H])([H])C5(C([H])([H])[H])C4([H])C(=C([H])[H])C1([H])C1(C([H])([H])[H])C(=O)C(=C([H])[H])C4([H])C([H])([H])c5c([H])c([H])c([H])c([H])c5C1(C([H])([H])[H])C([H])([H])C([H])([H])C4([H])C23C([H])([H])[H]

$$$$
102:0:2
     RDKit          3D

 86 93  0  0  1  0  0  0  0  0999 V2000
    5.1513   -8.9243    1.7856 C   0  0  0  0  0  0  0  0  0  0  0  0
    4.2579   -8.0750    2.3359 C   0  0  0  0  0  0  0  0  0  0  0  0
    4.3555   -7.7531    3.7810 C   0  0  0  0  0  0  0  0  0  0  0  0
    4.9542   -8.5504    4.5076 O   0  0  0  0  0  0  0  0  0  0  0  0
    3.7097   -6.4496    4.4158 C   0  0  1  0  0  0  0  0  0  0  0  0
    4.1768   -6.5596    5.9224 C   0  0  0  0  0  0  0  0  0  0  0  0
    4.3931   -5.0315    3.9002 C   0  0  2  0  0  0  0  0  0  0  0  0
    3.6586   -3.6610    4.3337 C   0  0  0  0  0  0  0  0  0  0  0  0
    3.9349   -3.2798    5.6012 C   0  0  0  0  0  0  0  0  0  0  0  0
    2.7122   -2.7238    3.3954 C   0  0  1  0  0  0  0  0  0  0  0  0
    2.0986   -1.3934    4.0605 C   0  0  2  0  0  0  0  0  0  0  0  0
    3.1485   -0.4480    4.7280 C   0  0  0  0  0  0  0  0  0  0  0  0
    1.0100   -1.7983    5.0923 C   0  0  0  0  0  0  0  0  0  0  0  0
    0.2029   -0.7389    5.5986 O   0  0  0  0  0  0  0  0  0  0  0  0
   -0.3020    0.2326    4.8176 C   0  0  0  0  0  0  0  0  0  0  0  0
   -1.2824    0.8960    5.1301 O   0  0  0  0  0  0  0  0  0  0  0  0
    0.4729    0.5665    3.5458 C   0  0  0  0  0  0  0  0  0  0  0  0
    1.3333   -0.5809    2.9745 C   0  0  1  0  0  0  0  0  0  0  0  0
    2.2789   -0.0435    1.8653 C   0  0  0  0  0  0  0  0  0  0  0  0
    3.5076   -0.9471    1.6396 C   0  0  0  0  0  0  0  0  0  0  0  0
    3.1904   -2.4500    1.8463 C   0  0  2  0  0  0  0  0  0  0  0  0
    2.2162   -2.6291    0.8372 O   0  0  0  0  0  0  0  0  0  0  0  0
    4.3438   -3.3483    1.3387 C   0  0  2  0  0  0  0  0  0  0  0  0
    5.8315   -3.0166    1.4768 C   0  0  0  0  0  0  0  0  0  0  0  0
    6.1920   -3.9740    2.4798 O   0  0  0  0  0  0  0  0  0  0  0  0
    5.2953   -5.0704    2.5497 C   0  0  1  0  0  0  0  0  0  0  0  0
    6.1942   -6.1480    2.4608 O   0  0  0  0  0  0  0  0  0  0  0  0
    4.3452   -4.9420    1.3365 C   0  0  2  0  0  0  0  0  0  0  0  0
    5.0933   -5.4074    0.0434 C   0  0  0  0  0  0  0  0  0  0  0  0
    3.0368   -5.9091    1.4157 C   0  0  2  0  0  0  0  0  0  0  0  0
    1.6789   -5.4982    1.9731 C   0  0  0  0  0  0  0  0  0  0  0  0
    1.2149   -5.8551    3.3845 C   0  0  0  0  0  0  0  0  0  0  0  0
    2.0818   -6.6100    4.4384 C   0  0  2  0  0  0  0  0  0  0  0  0
    1.4666   -5.9752    5.7442 C   0  0  0  0  0  0  0  0  0  0  0  0
    1.6277   -8.1134    4.3453 C   0  0  0  0  0  0  0  0  0  0  0  0
    1.3135   -8.8169    5.5410 C   0  0  0  0  0  0  0  0  0  0  0  0
    0.8382  -10.1350    5.5307 C   0  0  0  0  0  0  0  0  0  0  0  0
    0.6669  -10.8075    4.3191 C   0  0  0  0  0  0  0  0  0  0  0  0
    0.9895  -10.1589    3.1226 C   0  0  0  0  0  0  0  0  0  0  0  0
    1.4903   -8.8373    3.1070 C   0  0  0  0  0  0  0  0  0  0  0  0
    1.8419   -8.3101    1.7056 C   0  0  0  0  0  0  0  0  0  0  0  0
    3.1503   -7.4803    1.5030 C   0  0  2  0  0  0  0  0  0  0  0  0
    5.1040   -9.1910    0.7392 H   0  0  0  0  0  0  0  0  0  0  0  0
    5.9507   -9.3660    2.3633 H   0  0  0  0  0  0  0  0  0  0  0  0
    3.8612   -5.7407    6.5600 H   0  0  0  0  0  0  0  0  0  0  0  0
    5.2638   -6.5974    6.0200 H   0  0  0  0  0  0  0  0  0  0  0  0
    3.8040   -7.4669    6.4037 H   0  0  0  0  0  0  0  0  0  0  0  0
    5.2584   -4.9805    4.5564 H   0  0  0  0  0  0  0  0  0  0  0  0
    4.6093   -3.8379    6.2280 H   0  0  0  0  0  0  0  0  0  0  0  0
    3.5252   -2.4193    6.0843 H   0  0  0  0  0  0  0  0  0  0  0  0
    1.8210   -3.2964    3.3007 H   0  0  0  0  0  0  0  0  0  0  0  0
    3.1265    0.5695    4.3400 H   0  0  0  0  0  0  0  0  0  0  0  0
    4.1728   -0.7971    4.5960 H   0  0  0  0  0  0  0  0  0  0  0  0
    2.9765   -0.3470    5.7996 H   0  0  0  0  0  0  0  0  0  0  0  0
    0.3350   -2.5341    4.6507 H   0  0  0  0  0  0  0  0  0  0  0  0
    1.4613   -2.2885    5.9541 H   0  0  0  0  0  0  0  0  0  0  0  0
   -0.2388    0.9129    2.7929 H   0  0  0  0  0  0  0  0  0  0  0  0
    1.0916    1.4300    3.7860 H   0  0  0  0  0  0  0  0  0  0  0  0
    0.6241   -1.2677    2.5029 H   0  0  0  0  0  0  0  0  0  0  0  0
    1.7115    0.0385    0.9369 H   0  0  0  0  0  0  0  0  0  0  0  0
    2.6054    0.9813    2.0717 H   0  0  0  0  0  0  0  0  0  0  0  0
    3.9197   -0.7556    0.6494 H   0  0  0  0  0  0  0  0  0  0  0  0
    4.2855   -0.6483    2.3398 H   0  0  0  0  0  0  0  0  0  0  0  0
    1.9802   -1.8042    0.4228 H   0  0  0  0  0  0  0  0  0  0  0  0
    4.5026   -2.9815    2.3151 H   0  0  0  0  0  0  0  0  0  0  0  0
    6.4124   -3.1637    0.5720 H   0  0  0  0  0  0  0  0  0  0  0  0
    6.0815   -2.0071    1.8179 H   0  0  0  0  0  0  0  0  0  0  0  0
    6.6062   -6.1018    1.6113 H   0  0  0  0  0  0  0  0  0  0  0  0
    5.1427   -6.4909   -0.0333 H   0  0  0  0  0  0  0  0  0  0  0  0
    6.1325   -5.0945   -0.0318 H   0  0  0  0  0  0  0  0  0  0  0  0
    4.5885   -5.0466   -0.8548 H   0  0  0  0  0  0  0  0  0  0  0  0
    2.7474   -5.7960    0.3704 H   0  0  0  0  0  0  0  0  0  0  0  0
    1.4351   -4.4909    1.7848 H   0  0  0  0  0  0  0  0  0  0  0  0
    0.9213   -5.8965    1.3056 H   0  0  0  0  0  0  0  0  0  0  0  0
    0.8134   -4.9361    3.7990 H   0  0  0  0  0  0  0  0  0  0  0  0
    0.2758   -6.4025    3.2785 H   0  0  0  0  0  0  0  0  0  0  0  0
    1.6761   -4.9088    5.8197 H   0  0  0  0  0  0  0  0  0  0  0  0
    1.8013   -6.3956    6.6874 H   0  0  0  0  0  0  0  0  0  0  0  0
    0.3822   -6.0841    5.7578 H   0  0  0  0  0  0  0  0  0  0  0  0
    1.4165   -8.3795    6.5183 H   0  0  0  0  0  0  0  0  0  0  0  0
    0.5942  -10.6344    6.4570 H   0  0  0  0  0  0  0  0  0  0  0  0
    0.2839  -11.8176    4.3162 H   0  0  0  0  0  0  0  0  0  0  0  0
    0.8436  -10.6949    2.1977 H   0  0  0  0  0  0  0  0  0  0  0  0
    2.0302   -9.2086    1.1164 H   0  0  0  0  0  0  0  0  0  0  0  0
    0.9568   -7.9212    1.2092 H   0  0  0  0  0  0  0  0  0  0  0  0
    3.4426   -7.7362    0.4847 H   0  0  0  0  0  0  0  0  0  0  0  0
  1  2  2  0
  1 43  1  0
  1 44  1  0
  2 42  1  0
  2  3  1  0
  3  4  2  0
  3  5  1  0
  5 33  1  0
  5  6  1  1
  5  7  1  0
  6 45  1  0
  6 46  1  0
  6 47  1  0
  7 26  1  0
  7  8  1  0
  7 48  1  1
  8  9  2  0
  8 10  1  0
  9 49  1  0
  9 50  1  0
 10 21  1  0
 10 11  1  0
 10 51  1  6
 11 18  1  0
 11 12  1  1
 11 13  1  0
 12 52  1  0
 12 53  1  0
 12 54  1  0
 13 14  1  0
 13 55  1  0
 13 56  1  0
 14 15  1  0
 15 16  2  0
 15 17  1  0
 17 18  1  0
 17 57  1  0
 17 58  1  0
 18 19  1  0
 18 59  1  6
 19 20  1  0
 19 60  1  0
 19 61  1  0
 20 21  1  0
 20 62  1  0
 20 63  1  0
 21 22  1  6
 21 23  1  0
 22 64  1  0
 23 28  1  0
 23 24  1  0
 23 65  1  6
 24 25  1  0
 24 66  1  0
 24 67  1  0
 25 26  1  0
 26 27  1  6
 26 28  1  0
 27 68  1  0
 28 29  1  6
 28 30  1  0
 29 69  1  0
 29 70  1  0
 29 71  1  0
 30 42  1  0
 30 31  1  0
 30 72  1  6
 31 32  1  0
 31 73  1  0
 31 74  1  0
 32 33  1  0
 32 75  1  0
 32 76  1  0
 33 34  1  1
 33 35  1  0
 34 77  1  0
 34 78  1  0
 34 79  1  0
 35 40  2  0
 35 36  1  0
 36 37  2  0
 36 80  1  0
 37 38  1  0
 37 81  1  0
 38 39  2  0
 38 82  1  0
 39 40  1  0
 39 83  1  0
 40 41  1  0
 41 42  1  0
 41 84  1  0
 41 85  1  0
 42 86  1  6
M  END
>  <i_m_ct_stereo_status>  (273) 
1

>  <s_m_source_file>  (273) 
/var/tmp/pbs.5076255.sched01/tmp3ug8vllb/105tp2mz_hs.sdf

>  <i_m_source_file_index>  (273) 
15

>  <i_lp_mmshare_version>  (273) 
48012

>  <i_f3d_flags>  (273) 
0

>  <s_epik_input>  (273) 
W2NIXTFbY0hdW2NIXVtjSF1jKFtDQF0yKFtDSDNdKVtDSDJdW0NIMl0zKWMxW0NIMl1bQ0BIXShDKD1bQ0gyXSlDND1PKVtDQEBIXTNbQ0BdKFtDSDNdKShbQ0BdNShbT0hdKVtDQEBIXTZbQ0BAXTI0W0NIM10pW0NAQEhdKFtDSDJdTzUpW0NAQF03KFtPSF0pW0NAQEhdKEM2PVtDSDJdKVtDQEBdOChbQ0gzXSlbQ0BIXShbQ0gyXVtDSDJdNylbQ0gyXUMoPU8pT1tDSDJdOA==

>  <s_epik_cmdline>  (273) 
J2VwaWtfcHl0aG9uJywgJy1waHQnLCAnMi4wJywgJy1waCcsICc3LjAnLCAnLXRuJywgJzgnLCAnLW1hJywgJzIwMCcsICctaW1hZScsICc8aW5maWxlLm1hZT4nLCAnLW9tYWUnLCAnPG91dGZpbGUubWFlPic=

>  <r_lp_tautomer_probability>  (273) 
1

>  <r_epik_Ionization_Penalty>  (273) 
1.66802e-07

>  <r_epik_Ionization_Penalty_Charging>  (273) 
0

>  <r_epik_Ionization_Penalty_Neutral>  (273) 
1.66802e-07

>  <r_epik_State_Penalty>  (273) 
-0

>  <r_epik_Charging_Adjusted_Penalty>  (273) 
0

>  <i_epik_Tot_Q>  (273) 
0

>  <i_epik_Tot_abs_Q>  (273) 
0

>  <s_epik_Chemistry_Notes>  (273) 
This compound has an ester and may undergo hydrolysis at high or low pH.

>  <s_lp_Force_Field>  (273) 
OPLS3e

>  <r_lp_Energy>  (273) 
284.824

>  <b_lp_Chiralities_Consistent>  (273) 
1

>  <s_lp_Variant>  (273) 
102:0-1

>  <s_i_glide_gridfile>  (273) 
pfpi4k_grid

>  <i_i_glide_lignum>  (273) 
15

>  <i_i_glide_rotatable_bonds>  (273) 
2

>  <r_i_docking_score>  (273) 
-2.53651

>  <r_i_glide_ligand_efficiency>  (273) 
-0.0603931

>  <r_i_glide_ligand_efficiency_sa>  (273) 
-0.209928

>  <r_i_glide_ligand_efficiency_ln>  (273) 
-0.535392

>  <r_i_glide_gscore>  (273) 
-2.53651

>  <r_i_glide_lipo>  (273) 
-0.329288

>  <r_i_glide_hbond>  (273) 
-0.141546

>  <r_i_glide_metal>  (273) 
-0

>  <r_i_glide_rewards>  (273) 
-0.0143476

>  <r_i_glide_evdw>  (273) 
-30.765

>  <r_i_glide_ecoul>  (273) 
-3.313

>  <r_i_glide_erotb>  (273) 
0

>  <r_i_glide_esite>  (273) 
-0.016127

>  <r_i_glide_emodel>  (273) 
-38.9527

>  <r_i_glide_energy>  (273) 
-34.078

>  <r_i_glide_einternal>  (273) 
1.2399

>  <r_i_glide_intrahb_reward>  (273) 
-0

>  <i_i_glide_confnum>  (273) 
1

>  <i_i_glide_posenum>  (273) 
24

>  <r_i_glide_eff_state_penalty>  (273) 
0

>  <ligand_id>  (273) 
102

>  <original_smiles>  (273) 
C=C1C(=O)C2(C)C3C(=C)C4C5(C)COC(=O)CC5CCC4(O)C4COC3(O)C4(C)C3CCC2(C)c2ccccc2CC13

>  <smiles>  (273) 
[H]OC12OC([H])([H])C3([H])C4(O[H])C([H])([H])C([H])([H])C5([H])C([H])([H])C(=O)OC([H])([H])C5(C([H])([H])[H])C4([H])C(=C([H])[H])C1([H])C1(C([H])([H])[H])C(=O)C(=C([H])[H])C4([H])C([H])([H])c5c([H])c([H])c([H])c([H])c5C1(C([H])([H])[H])C([H])([H])C([H])([H])C4([H])C23C([H])([H])[H]

$$$$
103:0:0
     RDKit          3D

 65 70  0  0  1  0  0  0  0  0999 V2000
   -0.1141    0.9430   10.5885 C   0  0  0  0  0  0  0  0  0  0  0  0
    0.4010    1.5473    9.2588 C   0  0  2  0  0  0  0  0  0  0  0  0
    1.7426    2.2897    9.3362 C   0  0  0  0  0  0  0  0  0  0  0  0
    1.5283    3.6454    8.5990 C   0  0  2  0  0  0  0  0  0  0  0  0
    2.3852    4.5695    9.2543 O   0  0  0  0  0  0  0  0  0  0  0  0
    0.0630    3.9622    8.9372 C   0  0  1  0  0  0  0  0  0  0  0  0
   -0.1850    4.2558   10.4547 C   0  0  0  0  0  0  0  0  0  0  0  0
   -0.4588    5.2552    8.2410 C   0  0  0  0  0  0  0  0  0  0  0  0
    0.1474    5.7175    6.8965 C   0  0  1  0  0  0  0  0  0  0  0  0
    0.2139    7.1352    6.8853 O   0  0  0  0  0  0  0  0  0  0  0  0
    1.4660    5.0583    6.3671 C   0  0  2  0  0  0  0  0  0  0  0  0
    2.4938    5.9281    6.8315 O   0  0  0  0  0  0  0  0  0  0  0  0
    1.5383    5.2600    4.7901 C   0  0  1  0  0  0  0  0  0  0  0  0
    2.9387    5.1182    4.1309 C   0  0  0  0  0  0  0  0  0  0  0  0
    0.5131    4.5442    3.8877 C   0  0  2  0  0  0  0  0  0  0  0  0
   -0.8936    4.6797    4.1977 O   0  0  0  0  0  0  0  0  0  0  0  0
   -1.1206    3.3091    3.7908 C   0  0  2  0  0  0  0  0  0  0  0  0
   -1.7596    3.2216    2.5349 O   0  0  0  0  0  0  0  0  0  0  0  0
   -2.0466    2.5989    4.7780 C   0  0  0  0  0  0  0  0  0  0  0  0
   -1.8250    2.9363    6.2700 C   0  0  1  0  0  0  0  0  0  0  0  0
   -3.0273    2.6230    6.9528 O   0  0  0  0  0  0  0  0  0  0  0  0
   -0.6146    2.2651    7.0091 C   0  0  2  0  0  0  0  0  0  0  0  0
   -0.9661    0.8862    6.8848 O   0  0  0  0  0  0  0  0  0  0  0  0
   -0.5600    2.5675    8.5579 C   0  0  1  0  0  0  0  0  0  0  0  0
    0.8331    2.4512    6.3859 C   0  0  1  0  0  0  0  0  0  0  0  0
    1.0382    2.1391    4.8579 C   0  0  1  0  0  0  0  0  0  0  0  0
    0.6454    0.8013    4.5898 O   0  0  0  0  0  0  0  0  0  0  0  0
    0.3977    3.0286    3.7771 C   0  0  2  0  0  0  0  0  0  0  0  0
    0.8966    2.5387    2.5424 O   0  0  0  0  0  0  0  0  0  0  0  0
    1.7388    3.6116    7.0055 C   0  0  2  0  0  0  0  0  0  0  0  0
    3.2385    3.2030    6.7894 C   0  0  0  0  0  0  0  0  0  0  0  0
   -0.4450    1.6681   11.3277 H   0  0  0  0  0  0  0  0  0  0  0  0
    0.6487    0.3246   11.0640 H   0  0  0  0  0  0  0  0  0  0  0  0
   -0.9710    0.2991   10.4057 H   0  0  0  0  0  0  0  0  0  0  0  0
    0.5932    0.6658    8.6499 H   0  0  0  0  0  0  0  0  0  0  0  0
    2.0054    2.4524   10.3820 H   0  0  0  0  0  0  0  0  0  0  0  0
    2.5605    1.6913    8.9432 H   0  0  0  0  0  0  0  0  0  0  0  0
    2.1673    4.5731   10.1732 H   0  0  0  0  0  0  0  0  0  0  0  0
   -1.2496    4.2089   10.6906 H   0  0  0  0  0  0  0  0  0  0  0  0
    0.1610    5.2436   10.7531 H   0  0  0  0  0  0  0  0  0  0  0  0
    0.3275    3.5912   11.1412 H   0  0  0  0  0  0  0  0  0  0  0  0
   -1.5421    5.1826    8.1419 H   0  0  0  0  0  0  0  0  0  0  0  0
   -0.3456    6.1026    8.9162 H   0  0  0  0  0  0  0  0  0  0  0  0
   -0.6337    5.6053    6.1787 H   0  0  0  0  0  0  0  0  0  0  0  0
    0.8258    7.3912    7.5626 H   0  0  0  0  0  0  0  0  0  0  0  0
    2.3525    6.7608    6.4112 H   0  0  0  0  0  0  0  0  0  0  0  0
    1.3388    6.3247    4.6571 H   0  0  0  0  0  0  0  0  0  0  0  0
    3.1621    4.0907    3.8450 H   0  0  0  0  0  0  0  0  0  0  0  0
    3.7624    5.4817    4.7441 H   0  0  0  0  0  0  0  0  0  0  0  0
    2.9737    5.6862    3.1998 H   0  0  0  0  0  0  0  0  0  0  0  0
    0.6441    4.9368    2.8816 H   0  0  0  0  0  0  0  0  0  0  0  0
   -1.2053    3.6885    1.9181 H   0  0  0  0  0  0  0  0  0  0  0  0
   -3.0770    2.8668    4.5333 H   0  0  0  0  0  0  0  0  0  0  0  0
   -2.0022    1.5193    4.6174 H   0  0  0  0  0  0  0  0  0  0  0  0
   -1.7979    4.0051    6.3485 H   0  0  0  0  0  0  0  0  0  0  0  0
   -2.9666    2.9667    7.8323 H   0  0  0  0  0  0  0  0  0  0  0  0
   -0.7824    0.6294    5.9865 H   0  0  0  0  0  0  0  0  0  0  0  0
   -1.5513    2.4586    8.9952 H   0  0  0  0  0  0  0  0  0  0  0  0
    1.3412    1.5727    6.7860 H   0  0  0  0  0  0  0  0  0  0  0  0
    2.1094    2.1188    4.6589 H   0  0  0  0  0  0  0  0  0  0  0  0
    0.9049    0.6306    3.6912 H   0  0  0  0  0  0  0  0  0  0  0  0
    0.6223    3.1648    1.8726 H   0  0  0  0  0  0  0  0  0  0  0  0
    3.5612    3.2546    5.7578 H   0  0  0  0  0  0  0  0  0  0  0  0
    3.4487    2.1781    7.0939 H   0  0  0  0  0  0  0  0  0  0  0  0
    3.9228    3.8407    7.3510 H   0  0  0  0  0  0  0  0  0  0  0  0
  1  2  1  0
  1 32  1  0
  1 33  1  0
  1 34  1  0
  2 24  1  0
  2  3  1  0
  2 35  1  6
  3  4  1  0
  3 36  1  0
  3 37  1  0
  4 30  1  0
  4  5  1  1
  4  6  1  0
  5 38  1  0
  6 24  1  0
  6  7  1  1
  6  8  1  0
  7 39  1  0
  7 40  1  0
  7 41  1  0
  8  9  1  0
  8 42  1  0
  8 43  1  0
  9 10  1  0
  9 11  1  0
  9 44  1  6
 10 45  1  0
 11 30  1  0
 11 12  1  1
 11 13  1  0
 12 46  1  0
 13 14  1  0
 13 15  1  0
 13 47  1  1
 14 48  1  0
 14 49  1  0
 14 50  1  0
 15 28  1  0
 15 16  1  0
 15 51  1  6
 16 17  1  0
 17 28  1  0
 17 18  1  6
 17 19  1  0
 18 52  1  0
 19 20  1  0
 19 53  1  0
 19 54  1  0
 20 21  1  0
 20 22  1  0
 20 55  1  6
 21 56  1  0
 22 23  1  1
 22 24  1  0
 22 25  1  0
 23 57  1  0
 24 58  1  1
 25 26  1  0
 25 30  1  0
 25 59  1  1
 26 27  1  0
 26 28  1  0
 26 60  1  6
 27 61  1  0
 28 29  1  6
 29 62  1  0
 30 31  1  1
 31 63  1  0
 31 64  1  0
 31 65  1  0
M  END
>  <i_m_ct_stereo_status>  (274) 
1

>  <s_m_source_file>  (274) 
/var/tmp/pbs.5076255.sched01/tmp3ug8vllb/105tp2mz_hs.sdf

>  <i_m_source_file_index>  (274) 
16

>  <i_lp_mmshare_version>  (274) 
48012

>  <i_f3d_flags>  (274) 
0

>  <s_epik_input>  (274) 
W09IXVtDQF0xMltDQF0zKFtDSDNdKVtDQEhdKFtDQEhdKFtDSDNdKVtDSDJdMSlbQ0BdNChbT0hdKVtDQEBIXTVbQ0BAXTIoW0NIM10pW0NAXShbT0hdKShbQ0BASF0oW0NIMl0zKVtPSF0pW0NAQEhdKFtDSDNdKVtDQEhdNltDQEBdKFtPSF0pKFtDQEBIXTVbT0hdKVtDQEBdKE82KShbT0hdKVtDSDJdW0NASF00W09IXQ==

>  <s_epik_cmdline>  (274) 
J2VwaWtfcHl0aG9uJywgJy1waHQnLCAnMi4wJywgJy1waCcsICc3LjAnLCAnLXRuJywgJzgnLCAnLW1hJywgJzIwMCcsICctaW1hZScsICc8aW5maWxlLm1hZT4nLCAnLW9tYWUnLCAnPG91dGZpbGUubWFlPic=

>  <r_lp_tautomer_probability>  (274) 
1

>  <r_epik_Ionization_Penalty>  (274) 
4.31053e-06

>  <r_epik_Ionization_Penalty_Charging>  (274) 
0

>  <r_epik_Ionization_Penalty_Neutral>  (274) 
4.31053e-06

>  <r_epik_State_Penalty>  (274) 
-0

>  <r_epik_Charging_Adjusted_Penalty>  (274) 
0

>  <i_epik_Tot_Q>  (274) 
0

>  <i_epik_Tot_abs_Q>  (274) 
0

>  <s_lp_Force_Field>  (274) 
OPLS3e

>  <r_lp_Energy>  (274) 
103.764

>  <b_lp_Chiralities_Consistent>  (274) 
1

>  <s_lp_Variant>  (274) 
103:0-1

>  <s_i_glide_gridfile>  (274) 
pfpi4k_grid

>  <i_i_glide_lignum>  (274) 
16

>  <i_i_glide_rotatable_bonds>  (274) 
8

>  <r_i_docking_score>  (274) 
-3.92491

>  <r_i_glide_ligand_efficiency>  (274) 
-0.12661

>  <r_i_glide_ligand_efficiency_sa>  (274) 
-0.39773

>  <r_i_glide_ligand_efficiency_ln>  (274) 
-0.885188

>  <r_i_glide_gscore>  (274) 
-3.92491

>  <r_i_glide_lipo>  (274) 
-0.061123

>  <r_i_glide_hbond>  (274) 
-0.0403442

>  <r_i_glide_metal>  (274) 
-0

>  <r_i_glide_rewards>  (274) 
-0.892046

>  <r_i_glide_evdw>  (274) 
-20.1102

>  <r_i_glide_ecoul>  (274) 
-12.422

>  <r_i_glide_erotb>  (274) 
0

>  <r_i_glide_esite>  (274) 
-0.0625889

>  <r_i_glide_emodel>  (274) 
-47.5003

>  <r_i_glide_energy>  (274) 
-32.5322

>  <r_i_glide_einternal>  (274) 
0.98364

>  <r_i_glide_intrahb_reward>  (274) 
-0.5

>  <i_i_glide_confnum>  (274) 
2

>  <i_i_glide_posenum>  (274) 
5

>  <r_i_glide_eff_state_penalty>  (274) 
0

>  <ligand_id>  (274) 
103

>  <original_smiles>  (274) 
CC1CC2(O)C3(C)CC(O)C4(O)C(C)C5OC6(O)CC(O)C(O)(C13)C(C(O)C56O)C42C

>  <smiles>  (274) 
[H]OC1([H])C2([H])C3(O[H])C([H])(O[H])C([H])([H])C4(O[H])OC([H])(C([H])(C([H])([H])[H])C5(O[H])C([H])(O[H])C([H])([H])C6(C([H])([H])[H])C3([H])C([H])(C([H])([H])[H])C([H])([H])C6(O[H])C25C([H])([H])[H])C14O[H]

$$$$
103:0:1
     RDKit          3D

 65 70  0  0  1  0  0  0  0  0999 V2000
    2.6226   -7.6088    3.3762 C   0  0  0  0  0  0  0  0  0  0  0  0
    2.7752   -6.2441    2.6733 C   0  0  2  0  0  0  0  0  0  0  0  0
    2.8611   -6.2929    1.1427 C   0  0  0  0  0  0  0  0  0  0  0  0
    4.0666   -5.4105    0.7425 C   0  0  2  0  0  0  0  0  0  0  0  0
    4.6138   -5.9665   -0.4222 O   0  0  0  0  0  0  0  0  0  0  0  0
    5.0421   -5.6582    1.8939 C   0  0  1  0  0  0  0  0  0  0  0  0
    5.5777   -7.1225    1.9775 C   0  0  0  0  0  0  0  0  0  0  0  0
    6.3503   -4.8296    1.7905 C   0  0  0  0  0  0  0  0  0  0  0  0
    6.3429   -3.4586    1.0905 C   0  0  1  0  0  0  0  0  0  0  0  0
    7.5745   -3.3051    0.4083 O   0  0  0  0  0  0  0  0  0  0  0  0
    5.1179   -3.0627    0.1979 C   0  0  2  0  0  0  0  0  0  0  0  0
    5.4958   -3.5209   -1.0864 O   0  0  0  0  0  0  0  0  0  0  0  0
    5.0883   -1.4930    0.0435 C   0  0  1  0  0  0  0  0  0  0  0  0
    4.2629   -0.9563   -1.1586 C   0  0  0  0  0  0  0  0  0  0  0  0
    4.7521   -0.6257    1.2852 C   0  0  2  0  0  0  0  0  0  0  0  0
    5.5219   -0.8067    2.4954 O   0  0  0  0  0  0  0  0  0  0  0  0
    4.3322   -0.5997    3.3069 C   0  0  2  0  0  0  0  0  0  0  0  0
    4.3292    0.6549    3.9338 O   0  0  0  0  0  0  0  0  0  0  0  0
    4.2581   -1.6099    4.4367 C   0  0  0  0  0  0  0  0  0  0  0  0
    4.6630   -3.0531    4.0864 C   0  0  1  0  0  0  0  0  0  0  0  0
    4.9673   -3.6880    5.3096 O   0  0  0  0  0  0  0  0  0  0  0  0
    3.6083   -3.9061    3.2902 C   0  0  2  0  0  0  0  0  0  0  0  0
    2.5570   -3.9905    4.2487 O   0  0  0  0  0  0  0  0  0  0  0  0
    4.0367   -5.4053    3.0803 C   0  0  1  0  0  0  0  0  0  0  0  0
    3.0417   -3.3381    1.9043 C   0  0  1  0  0  0  0  0  0  0  0  0
    2.4746   -1.8798    1.8574 C   0  0  1  0  0  0  0  0  0  0  0  0
    1.3918   -1.7492    2.7615 O   0  0  0  0  0  0  0  0  0  0  0  0
    3.4241   -0.6977    2.0596 C   0  0  2  0  0  0  0  0  0  0  0  0
    2.6418    0.4592    1.8461 O   0  0  0  0  0  0  0  0  0  0  0  0
    3.7667   -3.8508    0.5774 C   0  0  2  0  0  0  0  0  0  0  0  0
    2.7422   -3.7490   -0.5883 C   0  0  0  0  0  0  0  0  0  0  0  0
    3.4990   -8.2489    3.3415 H   0  0  0  0  0  0  0  0  0  0  0  0
    1.7975   -8.1836    2.9504 H   0  0  0  0  0  0  0  0  0  0  0  0
    2.3972   -7.4664    4.4310 H   0  0  0  0  0  0  0  0  0  0  0  0
    1.8336   -5.7450    2.8849 H   0  0  0  0  0  0  0  0  0  0  0  0
    3.0638   -7.3211    0.8636 H   0  0  0  0  0  0  0  0  0  0  0  0
    1.9159   -6.0578    0.6609 H   0  0  0  0  0  0  0  0  0  0  0  0
    3.9531   -5.9463   -1.1225 H   0  0  0  0  0  0  0  0  0  0  0  0
    6.0290   -7.2915    2.9570 H   0  0  0  0  0  0  0  0  0  0  0  0
    6.3357   -7.3299    1.2267 H   0  0  0  0  0  0  0  0  0  0  0  0
    4.8396   -7.8977    1.8097 H   0  0  0  0  0  0  0  0  0  0  0  0
    6.6907   -4.6936    2.8116 H   0  0  0  0  0  0  0  0  0  0  0  0
    7.1377   -5.4058    1.3142 H   0  0  0  0  0  0  0  0  0  0  0  0
    6.5013   -2.7492    1.8721 H   0  0  0  0  0  0  0  0  0  0  0  0
    7.5113   -3.8983   -0.3281 H   0  0  0  0  0  0  0  0  0  0  0  0
    5.3724   -4.4705   -1.0478 H   0  0  0  0  0  0  0  0  0  0  0  0
    6.1057   -1.2266   -0.2454 H   0  0  0  0  0  0  0  0  0  0  0  0
    3.2211   -0.8195   -0.8825 H   0  0  0  0  0  0  0  0  0  0  0  0
    4.3032   -1.5787   -2.0555 H   0  0  0  0  0  0  0  0  0  0  0  0
    4.6211    0.0256   -1.4413 H   0  0  0  0  0  0  0  0  0  0  0  0
    4.8661    0.4158    0.9940 H   0  0  0  0  0  0  0  0  0  0  0  0
    4.4651    1.2920    3.2444 H   0  0  0  0  0  0  0  0  0  0  0  0
    4.9462   -1.2605    5.2159 H   0  0  0  0  0  0  0  0  0  0  0  0
    3.2639   -1.5619    4.8961 H   0  0  0  0  0  0  0  0  0  0  0  0
    5.6152   -3.0003    3.6035 H   0  0  0  0  0  0  0  0  0  0  0  0
    4.1370   -3.8323    5.7470 H   0  0  0  0  0  0  0  0  0  0  0  0
    2.2021   -3.1229    4.4164 H   0  0  0  0  0  0  0  0  0  0  0  0
    4.4413   -5.7920    4.0091 H   0  0  0  0  0  0  0  0  0  0  0  0
    2.0819   -3.8570    1.8436 H   0  0  0  0  0  0  0  0  0  0  0  0
    1.9839   -1.7380    0.8940 H   0  0  0  0  0  0  0  0  0  0  0  0
    1.7279   -1.4410    3.5988 H   0  0  0  0  0  0  0  0  0  0  0  0
    2.0784    0.2627    1.1001 H   0  0  0  0  0  0  0  0  0  0  0  0
    2.4915   -2.7405   -0.8875 H   0  0  0  0  0  0  0  0  0  0  0  0
    1.7974   -4.2221   -0.3351 H   0  0  0  0  0  0  0  0  0  0  0  0
    3.1159   -4.2459   -1.4943 H   0  0  0  0  0  0  0  0  0  0  0  0
  1  2  1  0
  1 32  1  0
  1 33  1  0
  1 34  1  0
  2 24  1  0
  2  3  1  0
  2 35  1  6
  3  4  1  0
  3 36  1  0
  3 37  1  0
  4 30  1  0
  4  5  1  6
  4  6  1  0
  5 38  1  0
  6 24  1  0
  6  7  1  6
  6  8  1  0
  7 39  1  0
  7 40  1  0
  7 41  1  0
  8  9  1  0
  8 42  1  0
  8 43  1  0
  9 10  1  0
  9 11  1  0
  9 44  1  1
 10 45  1  0
 11 30  1  0
 11 12  1  6
 11 13  1  0
 12 46  1  0
 13 14  1  0
 13 15  1  0
 13 47  1  6
 14 48  1  0
 14 49  1  0
 14 50  1  0
 15 28  1  0
 15 16  1  0
 15 51  1  6
 16 17  1  0
 17 28  1  0
 17 18  1  1
 17 19  1  0
 18 52  1  0
 19 20  1  0
 19 53  1  0
 19 54  1  0
 20 21  1  0
 20 22  1  0
 20 55  1  6
 21 56  1  0
 22 23  1  1
 22 24  1  0
 22 25  1  0
 23 57  1  0
 24 58  1  1
 25 26  1  0
 25 30  1  0
 25 59  1  6
 26 27  1  0
 26 28  1  0
 26 60  1  6
 27 61  1  0
 28 29  1  6
 29 62  1  0
 30 31  1  6
 31 63  1  0
 31 64  1  0
 31 65  1  0
M  END
>  <i_m_ct_stereo_status>  (275) 
1

>  <s_m_source_file>  (275) 
/var/tmp/pbs.5076255.sched01/tmp3ug8vllb/105tp2mz_hs.sdf

>  <i_m_source_file_index>  (275) 
16

>  <i_lp_mmshare_version>  (275) 
48012

>  <i_f3d_flags>  (275) 
0

>  <s_epik_input>  (275) 
W09IXVtDQF0xMltDQF0zKFtDSDNdKVtDQEhdKFtDQEhdKFtDSDNdKVtDSDJdMSlbQ0BdNChbT0hdKVtDQEBIXTVbQ0BAXTIoW0NIM10pW0NAXShbT0hdKShbQ0BASF0oW0NIMl0zKVtPSF0pW0NAQEhdKFtDSDNdKVtDQEhdNltDQEBdKFtPSF0pKFtDQEBIXTVbT0hdKVtDQEBdKE82KShbT0hdKVtDSDJdW0NASF00W09IXQ==

>  <s_epik_cmdline>  (275) 
J2VwaWtfcHl0aG9uJywgJy1waHQnLCAnMi4wJywgJy1waCcsICc3LjAnLCAnLXRuJywgJzgnLCAnLW1hJywgJzIwMCcsICctaW1hZScsICc8aW5maWxlLm1hZT4nLCAnLW9tYWUnLCAnPG91dGZpbGUubWFlPic=

>  <r_lp_tautomer_probability>  (275) 
1

>  <r_epik_Ionization_Penalty>  (275) 
4.31053e-06

>  <r_epik_Ionization_Penalty_Charging>  (275) 
0

>  <r_epik_Ionization_Penalty_Neutral>  (275) 
4.31053e-06

>  <r_epik_State_Penalty>  (275) 
-0

>  <r_epik_Charging_Adjusted_Penalty>  (275) 
0

>  <i_epik_Tot_Q>  (275) 
0

>  <i_epik_Tot_abs_Q>  (275) 
0

>  <s_lp_Force_Field>  (275) 
OPLS3e

>  <r_lp_Energy>  (275) 
103.764

>  <b_lp_Chiralities_Consistent>  (275) 
1

>  <s_lp_Variant>  (275) 
103:0-1

>  <s_i_glide_gridfile>  (275) 
pfpi4k_grid

>  <i_i_glide_lignum>  (275) 
16

>  <i_i_glide_rotatable_bonds>  (275) 
8

>  <r_i_docking_score>  (275) 
-3.59765

>  <r_i_glide_ligand_efficiency>  (275) 
-0.116053

>  <r_i_glide_ligand_efficiency_sa>  (275) 
-0.364567

>  <r_i_glide_ligand_efficiency_ln>  (275) 
-0.81138

>  <r_i_glide_gscore>  (275) 
-3.59765

>  <r_i_glide_lipo>  (275) 
-0.45448

>  <r_i_glide_hbond>  (275) 
0

>  <r_i_glide_metal>  (275) 
-0

>  <r_i_glide_rewards>  (275) 
-0.958161

>  <r_i_glide_evdw>  (275) 
-26.8456

>  <r_i_glide_ecoul>  (275) 
-5.61818

>  <r_i_glide_erotb>  (275) 
0

>  <r_i_glide_esite>  (275) 
0

>  <r_i_glide_emodel>  (275) 
-45.3434

>  <r_i_glide_energy>  (275) 
-32.4637

>  <r_i_glide_einternal>  (275) 
0.984933

>  <r_i_glide_intrahb_reward>  (275) 
-0.5

>  <i_i_glide_confnum>  (275) 
2

>  <i_i_glide_posenum>  (275) 
12

>  <r_i_glide_eff_state_penalty>  (275) 
0

>  <ligand_id>  (275) 
103

>  <original_smiles>  (275) 
CC1CC2(O)C3(C)CC(O)C4(O)C(C)C5OC6(O)CC(O)C(O)(C13)C(C(O)C56O)C42C

>  <smiles>  (275) 
[H]OC1([H])C2([H])C3(O[H])C([H])(O[H])C([H])([H])C4(O[H])OC([H])(C([H])(C([H])([H])[H])C5(O[H])C([H])(O[H])C([H])([H])C6(C([H])([H])[H])C3([H])C([H])(C([H])([H])[H])C([H])([H])C6(O[H])C25C([H])([H])[H])C14O[H]

$$$$
103:0:2
     RDKit          3D

 65 70  0  0  1  0  0  0  0  0999 V2000
    2.2811   -0.4523    9.7466 C   0  0  0  0  0  0  0  0  0  0  0  0
    2.1339    0.3342    8.4291 C   0  0  2  0  0  0  0  0  0  0  0  0
    3.3981    1.0599    7.9317 C   0  0  0  0  0  0  0  0  0  0  0  0
    2.9592    2.5050    7.5791 C   0  0  2  0  0  0  0  0  0  0  0  0
    4.0827    3.3309    7.8343 O   0  0  0  0  0  0  0  0  0  0  0  0
    1.8728    2.7780    8.6355 C   0  0  1  0  0  0  0  0  0  0  0  0
    2.4197    2.8351   10.0975 C   0  0  0  0  0  0  0  0  0  0  0  0
    1.1773    4.1612    8.4692 C   0  0  0  0  0  0  0  0  0  0  0  0
    1.0686    4.8142    7.0763 C   0  0  1  0  0  0  0  0  0  0  0  0
    1.2545    6.2088    7.2267 O   0  0  0  0  0  0  0  0  0  0  0  0
    1.9131    4.2410    5.8893 C   0  0  2  0  0  0  0  0  0  0  0  0
    3.1232    5.0010    5.9467 O   0  0  0  0  0  0  0  0  0  0  0  0
    1.2443    4.6768    4.5134 C   0  0  1  0  0  0  0  0  0  0  0  0
    2.1349    4.6345    3.2432 C   0  0  0  0  0  0  0  0  0  0  0  0
   -0.1367    4.0978    4.1189 C   0  0  2  0  0  0  0  0  0  0  0  0
   -1.1971    4.1892    5.0960 O   0  0  0  0  0  0  0  0  0  0  0  0
   -1.6993    2.8900    4.6914 C   0  0  2  0  0  0  0  0  0  0  0  0
   -2.8525    3.0085    3.8907 O   0  0  0  0  0  0  0  0  0  0  0  0
   -2.0867    2.0704    5.9254 C   0  0  0  0  0  0  0  0  0  0  0  0
   -1.1525    2.1821    7.1434 C   0  0  1  0  0  0  0  0  0  0  0  0
   -1.9078    1.7617    8.2669 O   0  0  0  0  0  0  0  0  0  0  0  0
    0.2023    1.3963    7.0893 C   0  0  2  0  0  0  0  0  0  0  0  0
   -0.2742    0.0618    7.0044 O   0  0  0  0  0  0  0  0  0  0  0  0
    1.0334    1.4591    8.4348 C   0  0  1  0  0  0  0  0  0  0  0  0
    1.1829    1.6535    5.8615 C   0  0  1  0  0  0  0  0  0  0  0  0
    0.6147    1.5630    4.4070 C   0  0  1  0  0  0  0  0  0  0  0  0
    0.0753    0.2782    4.1479 O   0  0  0  0  0  0  0  0  0  0  0  0
   -0.4003    2.6084    3.9043 C   0  0  2  0  0  0  0  0  0  0  0  0
   -0.5935    2.2755    2.5301 O   0  0  0  0  0  0  0  0  0  0  0  0
    2.3540    2.7102    6.0990 C   0  0  2  0  0  0  0  0  0  0  0  0
    3.5272    2.3355    5.1314 C   0  0  0  0  0  0  0  0  0  0  0  0
    2.4150    0.1588   10.6339 H   0  0  0  0  0  0  0  0  0  0  0  0
    3.1289   -1.1339    9.6946 H   0  0  0  0  0  0  0  0  0  0  0  0
    1.3929   -1.0573    9.9237 H   0  0  0  0  0  0  0  0  0  0  0  0
    1.9407   -0.4395    7.6908 H   0  0  0  0  0  0  0  0  0  0  0  0
    4.1461    1.0734    8.7249 H   0  0  0  0  0  0  0  0  0  0  0  0
    3.8727    0.5211    7.1185 H   0  0  0  0  0  0  0  0  0  0  0  0
    3.8408    4.2004    7.5232 H   0  0  0  0  0  0  0  0  0  0  0  0
    1.5990    2.7638   10.8121 H   0  0  0  0  0  0  0  0  0  0  0  0
    2.9549    3.7603   10.3015 H   0  0  0  0  0  0  0  0  0  0  0  0
    3.1443    2.0727   10.3371 H   0  0  0  0  0  0  0  0  0  0  0  0
    0.1845    4.1157    8.9143 H   0  0  0  0  0  0  0  0  0  0  0  0
    1.6825    4.9001    9.0846 H   0  0  0  0  0  0  0  0  0  0  0  0
    0.0287    4.8197    6.8364 H   0  0  0  0  0  0  0  0  0  0  0  0
    2.1781    6.3451    7.3794 H   0  0  0  0  0  0  0  0  0  0  0  0
    3.6084    4.8082    5.1536 H   0  0  0  0  0  0  0  0  0  0  0  0
    1.0894    5.7407    4.6327 H   0  0  0  0  0  0  0  0  0  0  0  0
    2.1039    3.6661    2.7641 H   0  0  0  0  0  0  0  0  0  0  0  0
    3.1770    4.9021    3.4059 H   0  0  0  0  0  0  0  0  0  0  0  0
    1.7577    5.3243    2.4919 H   0  0  0  0  0  0  0  0  0  0  0  0
   -0.4921    4.6298    3.2307 H   0  0  0  0  0  0  0  0  0  0  0  0
   -2.9775    2.1535    3.4921 H   0  0  0  0  0  0  0  0  0  0  0  0
   -3.0647    2.4200    6.2578 H   0  0  0  0  0  0  0  0  0  0  0  0
   -2.2038    1.0228    5.6460 H   0  0  0  0  0  0  0  0  0  0  0  0
   -1.0173    3.2196    7.3534 H   0  0  0  0  0  0  0  0  0  0  0  0
   -1.4915    2.1004    9.0501 H   0  0  0  0  0  0  0  0  0  0  0  0
    0.4656   -0.5207    6.8569 H   0  0  0  0  0  0  0  0  0  0  0  0
    0.3681    1.3051    9.2826 H   0  0  0  0  0  0  0  0  0  0  0  0
    1.7516    0.7161    5.8438 H   0  0  0  0  0  0  0  0  0  0  0  0
    1.4526    1.5918    3.7092 H   0  0  0  0  0  0  0  0  0  0  0  0
   -0.1507    0.2742    3.2271 H   0  0  0  0  0  0  0  0  0  0  0  0
   -0.3676    3.0569    2.0134 H   0  0  0  0  0  0  0  0  0  0  0  0
    3.3263    2.5395    4.0855 H   0  0  0  0  0  0  0  0  0  0  0  0
    3.7775    1.2718    5.1579 H   0  0  0  0  0  0  0  0  0  0  0  0
    4.4498    2.8673    5.3723 H   0  0  0  0  0  0  0  0  0  0  0  0
  1  2  1  0
  1 32  1  0
  1 33  1  0
  1 34  1  0
  2 24  1  0
  2  3  1  0
  2 35  1  6
  3  4  1  0
  3 36  1  0
  3 37  1  0
  4 30  1  0
  4  5  1  1
  4  6  1  0
  5 38  1  0
  6 24  1  0
  6  7  1  1
  6  8  1  0
  7 39  1  0
  7 40  1  0
  7 41  1  0
  8  9  1  0
  8 42  1  0
  8 43  1  0
  9 10  1  0
  9 11  1  0
  9 44  1  6
 10 45  1  0
 11 30  1  0
 11 12  1  6
 11 13  1  0
 12 46  1  0
 13 14  1  0
 13 15  1  0
 13 47  1  1
 14 48  1  0
 14 49  1  0
 14 50  1  0
 15 28  1  0
 15 16  1  0
 15 51  1  6
 16 17  1  0
 17 28  1  0
 17 18  1  6
 17 19  1  0
 18 52  1  0
 19 20  1  0
 19 53  1  0
 19 54  1  0
 20 21  1  0
 20 22  1  0
 20 55  1  1
 21 56  1  0
 22 23  1  6
 22 24  1  0
 22 25  1  0
 23 57  1  0
 24 58  1  1
 25 26  1  0
 25 30  1  0
 25 59  1  6
 26 27  1  0
 26 28  1  0
 26 60  1  6
 27 61  1  0
 28 29  1  6
 29 62  1  0
 30 31  1  6
 31 63  1  0
 31 64  1  0
 31 65  1  0
M  END
>  <i_m_ct_stereo_status>  (276) 
1

>  <s_m_source_file>  (276) 
/var/tmp/pbs.5076255.sched01/tmp3ug8vllb/105tp2mz_hs.sdf

>  <i_m_source_file_index>  (276) 
16

>  <i_lp_mmshare_version>  (276) 
48012

>  <i_f3d_flags>  (276) 
0

>  <s_epik_input>  (276) 
W09IXVtDQF0xMltDQF0zKFtDSDNdKVtDQEhdKFtDQEhdKFtDSDNdKVtDSDJdMSlbQ0BdNChbT0hdKVtDQEBIXTVbQ0BAXTIoW0NIM10pW0NAXShbT0hdKShbQ0BASF0oW0NIMl0zKVtPSF0pW0NAQEhdKFtDSDNdKVtDQEhdNltDQEBdKFtPSF0pKFtDQEBIXTVbT0hdKVtDQEBdKE82KShbT0hdKVtDSDJdW0NASF00W09IXQ==

>  <s_epik_cmdline>  (276) 
J2VwaWtfcHl0aG9uJywgJy1waHQnLCAnMi4wJywgJy1waCcsICc3LjAnLCAnLXRuJywgJzgnLCAnLW1hJywgJzIwMCcsICctaW1hZScsICc8aW5maWxlLm1hZT4nLCAnLW9tYWUnLCAnPG91dGZpbGUubWFlPic=

>  <r_lp_tautomer_probability>  (276) 
1

>  <r_epik_Ionization_Penalty>  (276) 
4.31053e-06

>  <r_epik_Ionization_Penalty_Charging>  (276) 
0

>  <r_epik_Ionization_Penalty_Neutral>  (276) 
4.31053e-06

>  <r_epik_State_Penalty>  (276) 
-0

>  <r_epik_Charging_Adjusted_Penalty>  (276) 
0

>  <i_epik_Tot_Q>  (276) 
0

>  <i_epik_Tot_abs_Q>  (276) 
0

>  <s_lp_Force_Field>  (276) 
OPLS3e

>  <r_lp_Energy>  (276) 
103.764

>  <b_lp_Chiralities_Consistent>  (276) 
1

>  <s_lp_Variant>  (276) 
103:0-1

>  <s_i_glide_gridfile>  (276) 
pfpi4k_grid

>  <i_i_glide_lignum>  (276) 
16

>  <i_i_glide_rotatable_bonds>  (276) 
8

>  <r_i_docking_score>  (276) 
-3.51538

>  <r_i_glide_ligand_efficiency>  (276) 
-0.113399

>  <r_i_glide_ligand_efficiency_sa>  (276) 
-0.356231

>  <r_i_glide_ligand_efficiency_ln>  (276) 
-0.792826

>  <r_i_glide_gscore>  (276) 
-3.51538

>  <r_i_glide_lipo>  (276) 
0

>  <r_i_glide_hbond>  (276) 
0

>  <r_i_glide_metal>  (276) 
-0

>  <r_i_glide_rewards>  (276) 
-0.892046

>  <r_i_glide_evdw>  (276) 
-20.6509

>  <r_i_glide_ecoul>  (276) 
-10.4872

>  <r_i_glide_erotb>  (276) 
0

>  <r_i_glide_esite>  (276) 
-0.0177024

>  <r_i_glide_emodel>  (276) 
-43.8738

>  <r_i_glide_energy>  (276) 
-31.1382

>  <r_i_glide_einternal>  (276) 
2.76038

>  <r_i_glide_intrahb_reward>  (276) 
-0.5

>  <i_i_glide_confnum>  (276) 
2

>  <i_i_glide_posenum>  (276) 
11

>  <r_i_glide_eff_state_penalty>  (276) 
0

>  <ligand_id>  (276) 
103

>  <original_smiles>  (276) 
CC1CC2(O)C3(C)CC(O)C4(O)C(C)C5OC6(O)CC(O)C(O)(C13)C(C(O)C56O)C42C

>  <smiles>  (276) 
[H]OC1([H])C2([H])C3(O[H])C([H])(O[H])C([H])([H])C4(O[H])OC([H])(C([H])(C([H])([H])[H])C5(O[H])C([H])(O[H])C([H])([H])C6(C([H])([H])[H])C3([H])C([H])(C([H])([H])[H])C([H])([H])C6(O[H])C25C([H])([H])[H])C14O[H]

$$$$
104:0:0
     RDKit          3D

 48 51  0  0  1  0  0  0  0  0999 V2000
    5.0704   -7.4141    1.8443 C   0  0  0  0  0  0  0  0  0  0  0  0
    4.8251   -5.9727    1.3593 C   0  0  2  0  0  0  0  0  0  0  0  0
    3.5359   -5.9430    0.5436 C   0  0  0  0  0  0  0  0  0  0  0  0
    3.1982   -4.5411    0.0861 C   0  0  0  0  0  0  0  0  0  0  0  0
    4.3184   -4.0008   -0.8179 C   0  0  1  0  0  0  0  0  0  0  0  0
    3.9783   -2.6397   -1.4585 C   0  0  1  0  0  0  0  0  0  0  0  0
    2.6750   -2.6336   -2.2665 C   0  0  0  0  0  0  0  0  0  0  0  0
    4.0065   -1.5384   -0.4024 C   0  0  0  0  0  0  0  0  0  0  0  0
    5.3966   -1.4631    0.2065 C   0  0  1  0  0  0  0  0  0  0  0  0
    5.4563   -0.3758    1.2500 C   0  0  0  0  0  0  0  0  0  0  0  0
    5.8260   -2.8074    0.8327 C   0  0  2  0  0  0  0  0  0  0  0  0
    7.1646   -2.6769    1.2843 O   0  0  0  0  0  0  0  0  0  0  0  0
    8.1500   -3.2089    0.4136 C   0  0  1  0  0  0  0  0  0  0  0  0
    9.4035   -2.3500    0.5034 C   0  0  0  0  0  0  0  0  0  0  0  0
    8.4793   -4.6492    0.8458 C   0  0  0  0  0  0  0  0  0  0  0  0
    7.2763   -5.4042    1.4085 C   0  0  0  0  0  0  0  0  0  0  0  0
    6.0106   -5.3875    0.5397 C   0  0  2  0  0  0  0  0  0  0  0  0
    5.6909   -3.9991   -0.1184 C   0  0  1  0  0  0  0  0  0  0  0  0
    6.5252   -3.8316   -1.2491 O   0  0  0  0  0  0  0  0  0  0  0  0
    7.7914   -3.0428   -0.9391 O   0  0  0  0  0  0  0  0  0  0  0  0
    5.3305   -8.0916    1.0281 H   0  0  0  0  0  0  0  0  0  0  0  0
    4.1751   -7.8161    2.3232 H   0  0  0  0  0  0  0  0  0  0  0  0
    5.8648   -7.4601    2.5888 H   0  0  0  0  0  0  0  0  0  0  0  0
    4.6625   -5.3537    2.2418 H   0  0  0  0  0  0  0  0  0  0  0  0
    3.6772   -6.5861   -0.3216 H   0  0  0  0  0  0  0  0  0  0  0  0
    2.7045   -6.3589    1.1217 H   0  0  0  0  0  0  0  0  0  0  0  0
    2.2616   -4.5999   -0.4737 H   0  0  0  0  0  0  0  0  0  0  0  0
    3.0291   -3.9178    0.9581 H   0  0  0  0  0  0  0  0  0  0  0  0
    4.4117   -4.6699   -1.6622 H   0  0  0  0  0  0  0  0  0  0  0  0
    4.7563   -2.3977   -2.1838 H   0  0  0  0  0  0  0  0  0  0  0  0
    1.8165   -2.7523   -1.6044 H   0  0  0  0  0  0  0  0  0  0  0  0
    2.6312   -3.4243   -3.0228 H   0  0  0  0  0  0  0  0  0  0  0  0
    2.5461   -1.6682   -2.7706 H   0  0  0  0  0  0  0  0  0  0  0  0
    3.7469   -0.5805   -0.8586 H   0  0  0  0  0  0  0  0  0  0  0  0
    3.2767   -1.7272    0.3807 H   0  0  0  0  0  0  0  0  0  0  0  0
    6.0835   -1.1986   -0.5888 H   0  0  0  0  0  0  0  0  0  0  0  0
    4.7915   -0.5438    2.0970 H   0  0  0  0  0  0  0  0  0  0  0  0
    5.2100    0.5710    0.7935 H   0  0  0  0  0  0  0  0  0  0  0  0
    6.4740   -0.3196    1.6159 H   0  0  0  0  0  0  0  0  0  0  0  0
    5.2244   -3.0018    1.7132 H   0  0  0  0  0  0  0  0  0  0  0  0
    9.1900   -1.3339    0.1775 H   0  0  0  0  0  0  0  0  0  0  0  0
   10.2227   -2.7587   -0.0645 H   0  0  0  0  0  0  0  0  0  0  0  0
    9.8058   -2.2887    1.5068 H   0  0  0  0  0  0  0  0  0  0  0  0
    8.9730   -5.2035    0.0484 H   0  0  0  0  0  0  0  0  0  0  0  0
    9.1991   -4.6087    1.6667 H   0  0  0  0  0  0  0  0  0  0  0  0
    7.5885   -6.4265    1.5928 H   0  0  0  0  0  0  0  0  0  0  0  0
    7.0359   -4.9996    2.3921 H   0  0  0  0  0  0  0  0  0  0  0  0
    6.1831   -6.0657   -0.2824 H   0  0  0  0  0  0  0  0  0  0  0  0
  1  2  1  0
  1 21  1  0
  1 22  1  0
  1 23  1  0
  2 17  1  0
  2  3  1  0
  2 24  1  1
  3  4  1  0
  3 25  1  0
  3 26  1  0
  4  5  1  0
  4 27  1  0
  4 28  1  0
  5 18  1  0
  5  6  1  0
  5 29  1  6
  6  7  1  0
  6  8  1  0
  6 30  1  6
  7 31  1  0
  7 32  1  0
  7 33  1  0
  8  9  1  0
  8 34  1  0
  8 35  1  0
  9 10  1  0
  9 11  1  0
  9 36  1  6
 10 37  1  0
 10 38  1  0
 10 39  1  0
 11 18  1  0
 11 12  1  0
 11 40  1  1
 12 13  1  0
 13 20  1  0
 13 14  1  6
 13 15  1  0
 14 41  1  0
 14 42  1  0
 14 43  1  0
 15 16  1  0
 15 44  1  0
 15 45  1  0
 16 17  1  0
 16 46  1  0
 16 47  1  0
 17 18  1  0
 17 48  1  6
 18 19  1  6
 19 20  1  0
M  END
>  <i_m_ct_stereo_status>  (277) 
1

>  <s_m_source_file>  (277) 
/var/tmp/pbs.5076255.sched01/tmp3ug8vllb/105tp2mz_hs.sdf

>  <i_m_source_file_index>  (277) 
17

>  <i_lp_mmshare_version>  (277) 
48012

>  <i_f3d_flags>  (277) 
0

>  <s_epik_input>  (277) 
W0NAXTEyM1tDQEhdNFtDSDJdW0NIMl1bQ0BASF0oW0NIM10pW0NAQEhdMltDSDJdW0NIMl1bQ0BAXShbQ0gzXSkoT08zKU9bQ0BIXTFbQ0BIXShbQ0gzXSlbQ0gyXVtDQEBIXTRbQ0gzXQ==

>  <s_epik_cmdline>  (277) 
J2VwaWtfcHl0aG9uJywgJy1waHQnLCAnMi4wJywgJy1waCcsICc3LjAnLCAnLXRuJywgJzgnLCAnLW1hJywgJzIwMCcsICctaW1hZScsICc8aW5maWxlLm1hZT4nLCAnLW9tYWUnLCAnPG91dGZpbGUubWFlPic=

>  <r_lp_tautomer_probability>  (277) 
1

>  <r_epik_Ionization_Penalty>  (277) 
3.42051e-14

>  <r_epik_Ionization_Penalty_Charging>  (277) 
0

>  <r_epik_Ionization_Penalty_Neutral>  (277) 
3.42051e-14

>  <r_epik_State_Penalty>  (277) 
-0

>  <r_epik_Charging_Adjusted_Penalty>  (277) 
0

>  <i_epik_Tot_Q>  (277) 
0

>  <i_epik_Tot_abs_Q>  (277) 
0

>  <s_lp_Force_Field>  (277) 
OPLS3e

>  <r_lp_Energy>  (277) 
36.7322

>  <b_lp_Chiralities_Consistent>  (277) 
1

>  <s_lp_Variant>  (277) 
104:0-1

>  <s_i_glide_gridfile>  (277) 
pfpi4k_grid

>  <i_i_glide_lignum>  (277) 
17

>  <i_i_glide_rotatable_bonds>  (277) 
0

>  <r_i_docking_score>  (277) 
-3.35792

>  <r_i_glide_ligand_efficiency>  (277) 
-0.167896

>  <r_i_glide_ligand_efficiency_sa>  (277) 
-0.45574

>  <r_i_glide_ligand_efficiency_ln>  (277) 
-0.840377

>  <r_i_glide_gscore>  (277) 
-3.35792

>  <r_i_glide_lipo>  (277) 
-0.65782

>  <r_i_glide_hbond>  (277) 
0

>  <r_i_glide_metal>  (277) 
-0

>  <r_i_glide_rewards>  (277) 
-1.82414

>  <r_i_glide_evdw>  (277) 
-15.9812

>  <r_i_glide_ecoul>  (277) 
-0.512664

>  <r_i_glide_erotb>  (277) 
0

>  <r_i_glide_esite>  (277) 
0

>  <r_i_glide_emodel>  (277) 
-20.0767

>  <r_i_glide_energy>  (277) 
-16.4939

>  <r_i_glide_einternal>  (277) 
0

>  <r_i_glide_intrahb_reward>  (277) 
-0

>  <i_i_glide_confnum>  (277) 
1

>  <i_i_glide_posenum>  (277) 
2

>  <r_i_glide_eff_state_penalty>  (277) 
0

>  <ligand_id>  (277) 
104

>  <original_smiles>  (277) 
CC1CCC2C(C)CC(C)C3OC4(C)CCC1C23OO4

>  <smiles>  (277) 
[H]C([H])([H])C12OOC34C([H])(O1)C([H])(C([H])([H])[H])C([H])([H])C([H])(C([H])([H])[H])C3([H])C([H])([H])C([H])([H])C([H])(C([H])([H])[H])C4([H])C([H])([H])C2([H])[H]

$$$$
104:0:1
     RDKit          3D

 48 51  0  0  1  0  0  0  0  0999 V2000
    5.1337   -2.7512   -2.3096 C   0  0  0  0  0  0  0  0  0  0  0  0
    4.6303   -2.4597   -0.8802 C   0  0  2  0  0  0  0  0  0  0  0  0
    5.1062   -1.0679   -0.4531 C   0  0  0  0  0  0  0  0  0  0  0  0
    4.5445   -0.7131    0.9120 C   0  0  0  0  0  0  0  0  0  0  0  0
    5.0328   -1.7189    1.9738 C   0  0  1  0  0  0  0  0  0  0  0  0
    4.5992   -1.3046    3.4055 C   0  0  1  0  0  0  0  0  0  0  0  0
    5.0162    0.1200    3.8320 C   0  0  0  0  0  0  0  0  0  0  0  0
    3.1014   -1.5284    3.6229 C   0  0  0  0  0  0  0  0  0  0  0  0
    2.7490   -3.0057    3.4173 C   0  0  1  0  0  0  0  0  0  0  0  0
    1.2612   -3.2406    3.7015 C   0  0  0  0  0  0  0  0  0  0  0  0
    3.1661   -3.4997    2.0080 C   0  0  2  0  0  0  0  0  0  0  0  0
    2.8429   -4.8878    1.9077 O   0  0  0  0  0  0  0  0  0  0  0  0
    3.9667   -5.7309    2.0870 C   0  0  1  0  0  0  0  0  0  0  0  0
    3.4648   -7.0118    2.7720 C   0  0  0  0  0  0  0  0  0  0  0  0
    4.5728   -6.0698    0.7106 C   0  0  0  0  0  0  0  0  0  0  0  0
    4.4902   -4.9162   -0.2961 C   0  0  0  0  0  0  0  0  0  0  0  0
    5.0373   -3.5487    0.1516 C   0  0  2  0  0  0  0  0  0  0  0  0
    4.6525   -3.1971    1.6277 C   0  0  1  0  0  0  0  0  0  0  0  0
    5.5821   -3.9677    2.3939 O   0  0  0  0  0  0  0  0  0  0  0  0
    4.9055   -5.1860    2.9999 O   0  0  0  0  0  0  0  0  0  0  0  0
    6.2139   -2.9003   -2.3395 H   0  0  0  0  0  0  0  0  0  0  0  0
    4.8944   -1.9256   -2.9789 H   0  0  0  0  0  0  0  0  0  0  0  0
    4.6598   -3.6367   -2.7326 H   0  0  0  0  0  0  0  0  0  0  0  0
    3.5413   -2.4227   -0.9324 H   0  0  0  0  0  0  0  0  0  0  0  0
    6.1960   -1.0334   -0.4204 H   0  0  0  0  0  0  0  0  0  0  0  0
    4.7784   -0.3234   -1.1801 H   0  0  0  0  0  0  0  0  0  0  0  0
    4.8668    0.3046    1.1441 H   0  0  0  0  0  0  0  0  0  0  0  0
    3.4573   -0.6956    0.8484 H   0  0  0  0  0  0  0  0  0  0  0  0
    6.1205   -1.6475    1.9684 H   0  0  0  0  0  0  0  0  0  0  0  0
    5.1183   -1.9675    4.0965 H   0  0  0  0  0  0  0  0  0  0  0  0
    4.4587    0.8909    3.2960 H   0  0  0  0  0  0  0  0  0  0  0  0
    6.0813    0.2921    3.6648 H   0  0  0  0  0  0  0  0  0  0  0  0
    4.8256    0.2811    4.8951 H   0  0  0  0  0  0  0  0  0  0  0  0
    2.8149   -1.2115    4.6272 H   0  0  0  0  0  0  0  0  0  0  0  0
    2.5244   -0.9162    2.9279 H   0  0  0  0  0  0  0  0  0  0  0  0
    3.3054   -3.5749    4.1631 H   0  0  0  0  0  0  0  0  0  0  0  0
    0.6284   -2.7082    2.9897 H   0  0  0  0  0  0  0  0  0  0  0  0
    0.9948   -2.8965    4.6977 H   0  0  0  0  0  0  0  0  0  0  0  0
    1.0097   -4.2989    3.6465 H   0  0  0  0  0  0  0  0  0  0  0  0
    2.5349   -3.0018    1.2773 H   0  0  0  0  0  0  0  0  0  0  0  0
    3.0888   -6.7816    3.7697 H   0  0  0  0  0  0  0  0  0  0  0  0
    4.2634   -7.7509    2.8905 H   0  0  0  0  0  0  0  0  0  0  0  0
    2.6558   -7.4851    2.2172 H   0  0  0  0  0  0  0  0  0  0  0  0
    5.5945   -6.4459    0.8077 H   0  0  0  0  0  0  0  0  0  0  0  0
    4.0030   -6.8863    0.2661 H   0  0  0  0  0  0  0  0  0  0  0  0
    5.0011   -5.2344   -1.2013 H   0  0  0  0  0  0  0  0  0  0  0  0
    3.4491   -4.7918   -0.5920 H   0  0  0  0  0  0  0  0  0  0  0  0
    6.1240   -3.6142    0.1300 H   0  0  0  0  0  0  0  0  0  0  0  0
  1  2  1  0
  1 21  1  0
  1 22  1  0
  1 23  1  0
  2 17  1  0
  2  3  1  0
  2 24  1  6
  3  4  1  0
  3 25  1  0
  3 26  1  0
  4  5  1  0
  4 27  1  0
  4 28  1  0
  5 18  1  0
  5  6  1  0
  5 29  1  1
  6  7  1  0
  6  8  1  0
  6 30  1  1
  7 31  1  0
  7 32  1  0
  7 33  1  0
  8  9  1  0
  8 34  1  0
  8 35  1  0
  9 10  1  0
  9 11  1  0
  9 36  1  1
 10 37  1  0
 10 38  1  0
 10 39  1  0
 11 18  1  0
 11 12  1  0
 11 40  1  6
 12 13  1  0
 13 20  1  0
 13 14  1  1
 13 15  1  0
 14 41  1  0
 14 42  1  0
 14 43  1  0
 15 16  1  0
 15 44  1  0
 15 45  1  0
 16 17  1  0
 16 46  1  0
 16 47  1  0
 17 18  1  0
 17 48  1  1
 18 19  1  1
 19 20  1  0
M  END
>  <i_m_ct_stereo_status>  (278) 
1

>  <s_m_source_file>  (278) 
/var/tmp/pbs.5076255.sched01/tmp3ug8vllb/105tp2mz_hs.sdf

>  <i_m_source_file_index>  (278) 
17

>  <i_lp_mmshare_version>  (278) 
48012

>  <i_f3d_flags>  (278) 
0

>  <s_epik_input>  (278) 
W0NAXTEyM1tDQEhdNFtDSDJdW0NIMl1bQ0BASF0oW0NIM10pW0NAQEhdMltDSDJdW0NIMl1bQ0BAXShbQ0gzXSkoT08zKU9bQ0BIXTFbQ0BIXShbQ0gzXSlbQ0gyXVtDQEBIXTRbQ0gzXQ==

>  <s_epik_cmdline>  (278) 
J2VwaWtfcHl0aG9uJywgJy1waHQnLCAnMi4wJywgJy1waCcsICc3LjAnLCAnLXRuJywgJzgnLCAnLW1hJywgJzIwMCcsICctaW1hZScsICc8aW5maWxlLm1hZT4nLCAnLW9tYWUnLCAnPG91dGZpbGUubWFlPic=

>  <r_lp_tautomer_probability>  (278) 
1

>  <r_epik_Ionization_Penalty>  (278) 
3.42051e-14

>  <r_epik_Ionization_Penalty_Charging>  (278) 
0

>  <r_epik_Ionization_Penalty_Neutral>  (278) 
3.42051e-14

>  <r_epik_State_Penalty>  (278) 
-0

>  <r_epik_Charging_Adjusted_Penalty>  (278) 
0

>  <i_epik_Tot_Q>  (278) 
0

>  <i_epik_Tot_abs_Q>  (278) 
0

>  <s_lp_Force_Field>  (278) 
OPLS3e

>  <r_lp_Energy>  (278) 
36.7322

>  <b_lp_Chiralities_Consistent>  (278) 
1

>  <s_lp_Variant>  (278) 
104:0-1

>  <s_i_glide_gridfile>  (278) 
pfpi4k_grid

>  <i_i_glide_lignum>  (278) 
17

>  <i_i_glide_rotatable_bonds>  (278) 
0

>  <r_i_docking_score>  (278) 
-3.32201

>  <r_i_glide_ligand_efficiency>  (278) 
-0.1661

>  <r_i_glide_ligand_efficiency_sa>  (278) 
-0.450865

>  <r_i_glide_ligand_efficiency_ln>  (278) 
-0.831388

>  <r_i_glide_gscore>  (278) 
-3.32201

>  <r_i_glide_lipo>  (278) 
-0.643897

>  <r_i_glide_hbond>  (278) 
0

>  <r_i_glide_metal>  (278) 
-0

>  <r_i_glide_rewards>  (278) 
-1.51239

>  <r_i_glide_evdw>  (278) 
-21.0484

>  <r_i_glide_ecoul>  (278) 
-0.755308

>  <r_i_glide_erotb>  (278) 
0

>  <r_i_glide_esite>  (278) 
0

>  <r_i_glide_emodel>  (278) 
-26.0352

>  <r_i_glide_energy>  (278) 
-21.8037

>  <r_i_glide_einternal>  (278) 
0

>  <r_i_glide_intrahb_reward>  (278) 
-0

>  <i_i_glide_confnum>  (278) 
1

>  <i_i_glide_posenum>  (278) 
1

>  <r_i_glide_eff_state_penalty>  (278) 
0

>  <ligand_id>  (278) 
104

>  <original_smiles>  (278) 
CC1CCC2C(C)CC(C)C3OC4(C)CCC1C23OO4

>  <smiles>  (278) 
[H]C([H])([H])C12OOC34C([H])(O1)C([H])(C([H])([H])[H])C([H])([H])C([H])(C([H])([H])[H])C3([H])C([H])([H])C([H])([H])C([H])(C([H])([H])[H])C4([H])C([H])([H])C2([H])[H]

$$$$
104:0:2
     RDKit          3D

 48 51  0  0  1  0  0  0  0  0999 V2000
    2.8665   -6.8795    1.6742 C   0  0  0  0  0  0  0  0  0  0  0  0
    3.2872   -5.4857    1.1555 C   0  0  2  0  0  0  0  0  0  0  0  0
    2.2476   -5.0211    0.1509 C   0  0  0  0  0  0  0  0  0  0  0  0
    2.5523   -3.6087   -0.3574 C   0  0  0  0  0  0  0  0  0  0  0  0
    3.9081   -3.5451   -1.0420 C   0  0  1  0  0  0  0  0  0  0  0  0
    4.2269   -2.1623   -1.6630 C   0  0  1  0  0  0  0  0  0  0  0  0
    3.1855   -1.6388   -2.6963 C   0  0  0  0  0  0  0  0  0  0  0  0
    4.4972   -1.1318   -0.5622 C   0  0  0  0  0  0  0  0  0  0  0  0
    5.6877   -1.5868    0.2773 C   0  0  1  0  0  0  0  0  0  0  0  0
    5.9842   -0.5557    1.3353 C   0  0  0  0  0  0  0  0  0  0  0  0
    5.4499   -2.9578    0.9503 C   0  0  2  0  0  0  0  0  0  0  0  0
    6.6563   -3.3366    1.6576 O   0  0  0  0  0  0  0  0  0  0  0  0
    7.5075   -4.1733    0.9026 C   0  0  1  0  0  0  0  0  0  0  0  0
    8.9839   -3.9052    1.2099 C   0  0  0  0  0  0  0  0  0  0  0  0
    7.1844   -5.6367    1.2972 C   0  0  0  0  0  0  0  0  0  0  0  0
    5.7048   -5.8800    1.6155 C   0  0  0  0  0  0  0  0  0  0  0  0
    4.7017   -5.4247    0.5480 C   0  0  2  0  0  0  0  0  0  0  0  0
    5.0366   -4.0334   -0.0925 C   0  0  1  0  0  0  0  0  0  0  0  0
    6.0933   -4.2505   -1.0054 O   0  0  0  0  0  0  0  0  0  0  0  0
    7.4249   -3.8310   -0.4671 O   0  0  0  0  0  0  0  0  0  0  0  0
    2.9934   -7.6443    0.9054 H   0  0  0  0  0  0  0  0  0  0  0  0
    1.8190   -6.8883    1.9644 H   0  0  0  0  0  0  0  0  0  0  0  0
    3.4337   -7.1833    2.5543 H   0  0  0  0  0  0  0  0  0  0  0  0
    3.2445   -4.8005    2.0100 H   0  0  0  0  0  0  0  0  0  0  0  0
    2.1895   -5.7369   -0.6638 H   0  0  0  0  0  0  0  0  0  0  0  0
    1.3047   -5.0756    0.6542 H   0  0  0  0  0  0  0  0  0  0  0  0
    1.7736   -3.3171   -1.0551 H   0  0  0  0  0  0  0  0  0  0  0  0
    2.4904   -2.9060    0.4760 H   0  0  0  0  0  0  0  0  0  0  0  0
    3.8713   -4.2437   -1.8859 H   0  0  0  0  0  0  0  0  0  0  0  0
    5.1469   -2.2519   -2.2435 H   0  0  0  0  0  0  0  0  0  0  0  0
    2.2178   -1.3808   -2.2510 H   0  0  0  0  0  0  0  0  0  0  0  0
    2.9804   -2.3872   -3.4758 H   0  0  0  0  0  0  0  0  0  0  0  0
    3.5425   -0.7225   -3.1896 H   0  0  0  0  0  0  0  0  0  0  0  0
    4.6842   -0.1637   -1.0127 H   0  0  0  0  0  0  0  0  0  0  0  0
    3.6207   -1.0008    0.0689 H   0  0  0  0  0  0  0  0  0  0  0  0
    6.5543   -1.6202   -0.3828 H   0  0  0  0  0  0  0  0  0  0  0  0
    5.1775   -0.4607    2.0598 H   0  0  0  0  0  0  0  0  0  0  0  0
    6.1252    0.4053    0.8437 H   0  0  0  0  0  0  0  0  0  0  0  0
    6.9056   -0.8068    1.8623 H   0  0  0  0  0  0  0  0  0  0  0  0
    4.6657   -2.8536    1.6893 H   0  0  0  0  0  0  0  0  0  0  0  0
    9.2543   -2.8989    0.8876 H   0  0  0  0  0  0  0  0  0  0  0  0
    9.6105   -4.6308    0.7072 H   0  0  0  0  0  0  0  0  0  0  0  0
    9.1636   -4.0291    2.2711 H   0  0  0  0  0  0  0  0  0  0  0  0
    7.5688   -6.3562    0.5779 H   0  0  0  0  0  0  0  0  0  0  0  0
    7.7048   -5.8702    2.2302 H   0  0  0  0  0  0  0  0  0  0  0  0
    5.5715   -6.9393    1.8362 H   0  0  0  0  0  0  0  0  0  0  0  0
    5.4713   -5.3727    2.5555 H   0  0  0  0  0  0  0  0  0  0  0  0
    4.7505   -6.1511   -0.2678 H   0  0  0  0  0  0  0  0  0  0  0  0
  1  2  1  0
  1 21  1  0
  1 22  1  0
  1 23  1  0
  2 17  1  0
  2  3  1  0
  2 24  1  1
  3  4  1  0
  3 25  1  0
  3 26  1  0
  4  5  1  0
  4 27  1  0
  4 28  1  0
  5 18  1  0
  5  6  1  0
  5 29  1  6
  6  7  1  0
  6  8  1  0
  6 30  1  6
  7 31  1  0
  7 32  1  0
  7 33  1  0
  8  9  1  0
  8 34  1  0
  8 35  1  0
  9 10  1  0
  9 11  1  0
  9 36  1  6
 10 37  1  0
 10 38  1  0
 10 39  1  0
 11 18  1  0
 11 12  1  0
 11 40  1  1
 12 13  1  0
 13 20  1  0
 13 14  1  1
 13 15  1  0
 14 41  1  0
 14 42  1  0
 14 43  1  0
 15 16  1  0
 15 44  1  0
 15 45  1  0
 16 17  1  0
 16 46  1  0
 16 47  1  0
 17 18  1  0
 17 48  1  6
 18 19  1  6
 19 20  1  0
M  END
>  <i_m_ct_stereo_status>  (279) 
1

>  <s_m_source_file>  (279) 
/var/tmp/pbs.5076255.sched01/tmp3ug8vllb/105tp2mz_hs.sdf

>  <i_m_source_file_index>  (279) 
17

>  <i_lp_mmshare_version>  (279) 
48012

>  <i_f3d_flags>  (279) 
0

>  <s_epik_input>  (279) 
W0NAXTEyM1tDQEhdNFtDSDJdW0NIMl1bQ0BASF0oW0NIM10pW0NAQEhdMltDSDJdW0NIMl1bQ0BAXShbQ0gzXSkoT08zKU9bQ0BIXTFbQ0BIXShbQ0gzXSlbQ0gyXVtDQEBIXTRbQ0gzXQ==

>  <s_epik_cmdline>  (279) 
J2VwaWtfcHl0aG9uJywgJy1waHQnLCAnMi4wJywgJy1waCcsICc3LjAnLCAnLXRuJywgJzgnLCAnLW1hJywgJzIwMCcsICctaW1hZScsICc8aW5maWxlLm1hZT4nLCAnLW9tYWUnLCAnPG91dGZpbGUubWFlPic=

>  <r_lp_tautomer_probability>  (279) 
1

>  <r_epik_Ionization_Penalty>  (279) 
3.42051e-14

>  <r_epik_Ionization_Penalty_Charging>  (279) 
0

>  <r_epik_Ionization_Penalty_Neutral>  (279) 
3.42051e-14

>  <r_epik_State_Penalty>  (279) 
-0

>  <r_epik_Charging_Adjusted_Penalty>  (279) 
0

>  <i_epik_Tot_Q>  (279) 
0

>  <i_epik_Tot_abs_Q>  (279) 
0

>  <s_lp_Force_Field>  (279) 
OPLS3e

>  <r_lp_Energy>  (279) 
36.7322

>  <b_lp_Chiralities_Consistent>  (279) 
1

>  <s_lp_Variant>  (279) 
104:0-1

>  <s_i_glide_gridfile>  (279) 
pfpi4k_grid

>  <i_i_glide_lignum>  (279) 
17

>  <i_i_glide_rotatable_bonds>  (279) 
0

>  <r_i_docking_score>  (279) 
-2.75114

>  <r_i_glide_ligand_efficiency>  (279) 
-0.137557

>  <r_i_glide_ligand_efficiency_sa>  (279) 
-0.373387

>  <r_i_glide_ligand_efficiency_ln>  (279) 
-0.688519

>  <r_i_glide_gscore>  (279) 
-2.75114

>  <r_i_glide_lipo>  (279) 
-0.450565

>  <r_i_glide_hbond>  (279) 
0

>  <r_i_glide_metal>  (279) 
-0

>  <r_i_glide_rewards>  (279) 
-1.67815

>  <r_i_glide_evdw>  (279) 
-10.8356

>  <r_i_glide_ecoul>  (279) 
-0.537633

>  <r_i_glide_erotb>  (279) 
0

>  <r_i_glide_esite>  (279) 
0

>  <r_i_glide_emodel>  (279) 
-14.2164

>  <r_i_glide_energy>  (279) 
-11.3732

>  <r_i_glide_einternal>  (279) 
0

>  <r_i_glide_intrahb_reward>  (279) 
-0

>  <i_i_glide_confnum>  (279) 
2

>  <i_i_glide_posenum>  (279) 
9

>  <r_i_glide_eff_state_penalty>  (279) 
0

>  <ligand_id>  (279) 
104

>  <original_smiles>  (279) 
CC1CCC2C(C)CC(C)C3OC4(C)CCC1C23OO4

>  <smiles>  (279) 
[H]C([H])([H])C12OOC34C([H])(O1)C([H])(C([H])([H])[H])C([H])([H])C([H])(C([H])([H])[H])C3([H])C([H])([H])C([H])([H])C([H])(C([H])([H])[H])C4([H])C([H])([H])C2([H])[H]

$$$$
105:0:0
     RDKit          3D

105114  0  0  1  0  0  0  0  0999 V2000
    6.4074   -5.4031    4.1902 C   0  0  0  0  0  0  0  0  0  0  0  0
    5.5059   -6.6627    4.2340 C   0  0  0  0  0  0  0  0  0  0  0  0
    4.1713   -6.7042    3.4262 C   0  0  1  0  0  0  0  0  0  0  0  0
    3.0876   -5.8524    4.1542 C   0  0  0  0  0  0  0  0  0  0  0  0
    3.1414   -4.3270    4.0268 C   0  0  1  0  0  0  0  0  0  0  0  0
    3.6106   -3.5499    5.2464 C   0  0  0  0  0  0  0  0  0  0  0  0
    3.9892   -2.1417    4.7586 C   0  0  1  0  0  0  0  0  0  0  0  0
    5.2806   -1.5730    5.5086 C   0  0  0  0  0  0  0  0  0  0  0  0
    5.2946   -1.3323    7.0821 C   0  0  0  0  0  0  0  0  0  0  0  0
    5.2018    0.1424    7.6648 C   0  0  1  0  0  0  0  0  0  0  0  0
    6.4007    1.0115    7.2409 C   0  0  0  0  0  0  0  0  0  0  0  0
    3.8436    0.7992    7.3502 C   0  0  1  0  0  0  0  0  0  0  0  0
    2.5687    0.2800    7.9911 C   0  0  0  0  0  0  0  0  0  0  0  0
    1.4117    0.0418    7.3537 C   0  0  0  0  0  0  0  0  0  0  0  0
    1.0408    0.1459    5.8327 C   0  0  2  0  0  0  0  0  0  0  0  0
   -0.4819    0.4428    5.8660 C   0  0  0  0  0  0  0  0  0  0  0  0
    1.3358   -1.2775    5.1939 C   0  0  1  0  0  0  0  0  0  0  0  0
    0.6089   -1.6062    3.8638 C   0  0  0  0  0  0  0  0  0  0  0  0
    1.2543   -1.0202    2.5979 C   0  0  0  0  0  0  0  0  0  0  0  0
    2.6176   -0.2910    2.7631 C   0  0  2  0  0  0  0  0  0  0  0  0
    3.8074   -1.1733    2.2539 C   0  0  1  0  0  0  0  0  0  0  0  0
    4.9705   -0.2584    1.7932 C   0  0  0  0  0  0  0  0  0  0  0  0
    4.2780   -2.3119    3.2143 C   0  0  2  0  0  0  0  0  0  0  0  0
    4.0022   -3.7980    2.8698 C   0  0  2  0  0  0  0  0  0  0  0  0
    3.4890   -4.1971    1.4433 C   0  0  0  0  0  0  0  0  0  0  0  0
    3.2189   -5.5868    1.3641 O   0  0  0  0  0  0  0  0  0  0  0  0
    4.1776   -6.5373    1.8526 C   0  0  1  0  0  0  0  0  0  0  0  0
    5.5117   -6.4724    1.0844 C   0  0  0  0  0  0  0  0  0  0  0  0
    3.4984   -7.9133    1.7173 C   0  0  2  0  0  0  0  0  0  0  0  0
    2.0740   -7.8857    1.5646 O   0  0  0  0  0  0  0  0  0  0  0  0
    1.4279   -8.3932    2.6570 C   0  0  0  0  0  0  0  0  0  0  0  0
    0.0906   -8.3745    2.7489 C   0  0  0  0  0  0  0  0  0  0  0  0
   -0.7884   -7.8563    1.6368 C   0  0  0  0  0  0  0  0  0  0  0  0
   -0.6824   -8.8506    3.9672 C   0  0  0  0  0  0  0  0  0  0  0  0
    2.4323   -8.8292    3.6952 C   0  0  0  0  0  0  0  0  0  0  0  0
    3.7327   -8.1859    3.1749 C   0  0  2  0  0  0  0  0  0  0  0  0
    2.9130    0.1802    4.2228 C   0  0  2  0  0  0  0  0  0  0  0  0
    2.8416   -1.1392    5.0039 C   0  0  2  0  0  0  0  0  0  0  0  0
    1.9102    1.1743    4.9452 C   0  0  1  0  0  0  0  0  0  0  0  0
    1.0036    1.9834    3.9465 C   0  0  0  0  0  0  0  0  0  0  0  0
    1.6945    3.0547    3.0891 C   0  0  0  0  0  0  0  0  0  0  0  0
    2.8781    3.6520    3.8422 C   0  0  0  0  0  0  0  0  0  0  0  0
    2.6244    3.5754    5.2485 O   0  0  0  0  0  0  0  0  0  0  0  0
    2.7122    2.2991    5.7167 C   0  0  0  0  0  0  0  0  0  0  0  0
    3.5882    2.1575    6.7544 C   0  0  0  0  0  0  0  0  0  0  0  0
    7.2691   -5.5694    4.8436 H   0  0  0  0  0  0  0  0  0  0  0  0
    5.8830   -4.4615    4.5197 H   0  0  0  0  0  0  0  0  0  0  0  0
    6.8289   -5.2694    3.1688 H   0  0  0  0  0  0  0  0  0  0  0  0
    6.1033   -7.5007    3.9280 H   0  0  0  0  0  0  0  0  0  0  0  0
    5.2632   -6.8995    5.2653 H   0  0  0  0  0  0  0  0  0  0  0  0
    2.1194   -6.1196    3.7291 H   0  0  0  0  0  0  0  0  0  0  0  0
    2.9923   -6.1666    5.1979 H   0  0  0  0  0  0  0  0  0  0  0  0
    2.1176   -4.0292    3.8832 H   0  0  0  0  0  0  0  0  0  0  0  0
    2.8280   -3.5008    6.0226 H   0  0  0  0  0  0  0  0  0  0  0  0
    4.4987   -4.0519    5.6416 H   0  0  0  0  0  0  0  0  0  0  0  0
    6.0669   -2.3023    5.3355 H   0  0  0  0  0  0  0  0  0  0  0  0
    5.6358   -0.6682    5.0159 H   0  0  0  0  0  0  0  0  0  0  0  0
    4.5336   -1.9576    7.5518 H   0  0  0  0  0  0  0  0  0  0  0  0
    6.2369   -1.7325    7.4465 H   0  0  0  0  0  0  0  0  0  0  0  0
    5.2720    0.0518    8.7516 H   0  0  0  0  0  0  0  0  0  0  0  0
    6.4016    1.2132    6.1686 H   0  0  0  0  0  0  0  0  0  0  0  0
    7.3452    0.5337    7.4920 H   0  0  0  0  0  0  0  0  0  0  0  0
    6.3811    1.9745    7.7528 H   0  0  0  0  0  0  0  0  0  0  0  0
    3.9584    0.4626    6.3609 H   0  0  0  0  0  0  0  0  0  0  0  0
    2.6164    0.1510    9.0699 H   0  0  0  0  0  0  0  0  0  0  0  0
    0.5979   -0.3164    7.9665 H   0  0  0  0  0  0  0  0  0  0  0  0
   -0.9464    0.5252    4.8856 H   0  0  0  0  0  0  0  0  0  0  0  0
   -0.6850    1.3706    6.3982 H   0  0  0  0  0  0  0  0  0  0  0  0
   -1.0159   -0.3507    6.3843 H   0  0  0  0  0  0  0  0  0  0  0  0
    1.0948   -2.0590    5.9113 H   0  0  0  0  0  0  0  0  0  0  0  0
    0.5435   -2.6862    3.7446 H   0  0  0  0  0  0  0  0  0  0  0  0
   -0.4336   -1.3155    3.9027 H   0  0  0  0  0  0  0  0  0  0  0  0
    1.3779   -1.8368    1.8987 H   0  0  0  0  0  0  0  0  0  0  0  0
    0.5420   -0.3525    2.0882 H   0  0  0  0  0  0  0  0  0  0  0  0
    2.5715    0.5762    2.1217 H   0  0  0  0  0  0  0  0  0  0  0  0
    3.4755   -1.5912    1.2949 H   0  0  0  0  0  0  0  0  0  0  0  0
    5.4347    0.2751    2.6293 H   0  0  0  0  0  0  0  0  0  0  0  0
    4.6347    0.4802    1.0607 H   0  0  0  0  0  0  0  0  0  0  0  0
    5.7617   -0.8356    1.3079 H   0  0  0  0  0  0  0  0  0  0  0  0
    5.3635   -2.2698    3.1047 H   0  0  0  0  0  0  0  0  0  0  0  0
    4.9745   -4.2735    2.9523 H   0  0  0  0  0  0  0  0  0  0  0  0
    2.5885   -3.6947    1.0842 H   0  0  0  0  0  0  0  0  0  0  0  0
    4.2543   -3.9524    0.7107 H   0  0  0  0  0  0  0  0  0  0  0  0
    6.1668   -7.3004    1.3604 H   0  0  0  0  0  0  0  0  0  0  0  0
    6.0522   -5.5406    1.3194 H   0  0  0  0  0  0  0  0  0  0  0  0
    5.3404   -6.5884    0.0029 H   0  0  0  0  0  0  0  0  0  0  0  0
    3.9888   -8.6515    1.0728 H   0  0  0  0  0  0  0  0  0  0  0  0
   -1.3806   -7.0162    2.0039 H   0  0  0  0  0  0  0  0  0  0  0  0
   -1.4527   -8.6538    1.2974 H   0  0  0  0  0  0  0  0  0  0  0  0
   -0.2016   -7.5308    0.7727 H   0  0  0  0  0  0  0  0  0  0  0  0
   -1.3804   -9.6247    3.6559 H   0  0  0  0  0  0  0  0  0  0  0  0
   -1.2598   -8.0239    4.3793 H   0  0  0  0  0  0  0  0  0  0  0  0
   -0.0436   -9.2565    4.7522 H   0  0  0  0  0  0  0  0  0  0  0  0
    2.1578   -8.4954    4.6930 H   0  0  0  0  0  0  0  0  0  0  0  0
    2.4612   -9.9264    3.7245 H   0  0  0  0  0  0  0  0  0  0  0  0
    4.5586   -8.8885    3.2662 H   0  0  0  0  0  0  0  0  0  0  0  0
    3.9078    0.6255    4.2348 H   0  0  0  0  0  0  0  0  0  0  0  0
    3.0321   -1.1577    6.0543 H   0  0  0  0  0  0  0  0  0  0  0  0
    0.3962    1.3440    3.3157 H   0  0  0  0  0  0  0  0  0  0  0  0
    0.2798    2.5306    4.5531 H   0  0  0  0  0  0  0  0  0  0  0  0
    2.0045    2.6745    2.1148 H   0  0  0  0  0  0  0  0  0  0  0  0
    0.9697    3.8431    2.8890 H   0  0  0  0  0  0  0  0  0  0  0  0
    3.7960    3.1040    3.6202 H   0  0  0  0  0  0  0  0  0  0  0  0
    3.0413    4.6822    3.5271 H   0  0  0  0  0  0  0  0  0  0  0  0
    4.1148    2.9736    7.2127 H   0  0  0  0  0  0  0  0  0  0  0  0
  1  2  1  0
  1 46  1  0
  1 47  1  0
  1 48  1  0
  3  2  1  1
  2 49  1  0
  2 50  1  0
  3 27  1  0
  3 36  1  0
  3  4  1  0
  4  5  1  0
  4 51  1  0
  4 52  1  0
  5 24  1  0
  5  6  1  0
  5 53  1  6
  7  6  1  1
  6 54  1  0
  6 55  1  0
  7 23  1  0
  7 38  1  0
  7  8  1  0
  8  9  1  0
  8 56  1  0
  8 57  1  0
  9 10  1  0
  9 58  1  0
  9 59  1  0
 10 11  1  0
 10 12  1  0
 10 60  1  1
 11 61  1  0
 11 62  1  0
 11 63  1  0
 12 45  1  0
 12 13  1  0
 12 64  1  6
 13 14  2  0
 13 65  1  0
 14 15  1  0
 14 66  1  0
 15 39  1  0
 15 16  1  1
 15 17  1  0
 16 67  1  0
 16 68  1  0
 16 69  1  0
 17 38  1  0
 17 18  1  0
 17 70  1  1
 18 19  1  0
 18 71  1  0
 18 72  1  0
 19 20  1  0
 19 73  1  0
 19 74  1  0
 20 21  1  0
 20 37  1  0
 20 75  1  6
 21 22  1  0
 21 23  1  0
 21 76  1  6
 22 77  1  0
 22 78  1  0
 22 79  1  0
 23 24  1  0
 23 80  1  1
 24 25  1  0
 24 81  1  1
 25 26  1  0
 25 82  1  0
 25 83  1  0
 26 27  1  0
 27 28  1  6
 27 29  1  0
 28 84  1  0
 28 85  1  0
 28 86  1  0
 29 36  1  0
 29 30  1  0
 29 87  1  6
 30 31  1  0
 31 32  2  3
 31 35  1  0
 32 33  1  0
 32 34  1  0
 33 88  1  0
 33 89  1  0
 33 90  1  0
 34 91  1  0
 34 92  1  0
 34 93  1  0
 35 36  1  0
 35 94  1  0
 35 95  1  0
 36 96  1  6
 37 38  1  0
 37 39  1  0
 37 97  1  6
 38 98  1  1
 39 44  1  0
 39 40  1  6
 40 41  1  0
 40 99  1  0
 40100  1  0
 41 42  1  0
 41101  1  0
 41102  1  0
 42 43  1  0
 42103  1  0
 42104  1  0
 43 44  1  0
 44 45  2  0
 45105  1  0
M  END
>  <i_m_ct_stereo_status>  (280) 
1

>  <s_m_source_file>  (280) 
/var/tmp/pbs.5076255.sched01/tmp3ug8vllb/105tp2mz_hs.sdf

>  <i_m_source_file_index>  (280) 
18

>  <i_lp_mmshare_version>  (280) 
48012

>  <i_f3d_flags>  (280) 
0

>  <s_epik_input>  (280) 
W0NIM11DKFtDSDNdKT1DKE8xKVtDSDJdW0NASF0yW0NAQEhdMVtDQEBdKFtDSDNdKShPW0NIMl0zKVtDQEBdMihbQ0gyXVtDSDNdKVtDSDJdW0NAQEhdKFtDSDJdNClbQ0BASF0zW0NASF0oW0NAQF00NTYpW0NASF0oW0NIM10pW0NAQEhdN1tDQEhdOFtDQEBdMTlbQ0BAXShbQ0gzXSkoW0NASF0oW0NAQEhdNjgpW0NIMl1bQ0gyXTcpW0NIXT1bQ0hdW0NASF0oW0NASF0oW0NIM10pW0NIMl1bQ0gyXTUpW0NIXT1DMU9bQ0gyXVtDSDJdW0NIMl05

>  <s_epik_cmdline>  (280) 
J2VwaWtfcHl0aG9uJywgJy1waHQnLCAnMi4wJywgJy1waCcsICc3LjAnLCAnLXRuJywgJzgnLCAnLW1hJywgJzIwMCcsICctaW1hZScsICc8aW5maWxlLm1hZT4nLCAnLW9tYWUnLCAnPG91dGZpbGUubWFlPic=

>  <r_lp_tautomer_probability>  (280) 
1

>  <r_epik_Ionization_Penalty>  (280) 
9.73058e-12

>  <r_epik_Ionization_Penalty_Charging>  (280) 
0

>  <r_epik_Ionization_Penalty_Neutral>  (280) 
9.73058e-12

>  <r_epik_State_Penalty>  (280) 
-0

>  <r_epik_Charging_Adjusted_Penalty>  (280) 
0

>  <i_epik_Tot_Q>  (280) 
0

>  <i_epik_Tot_abs_Q>  (280) 
0

>  <s_lp_Force_Field>  (280) 
OPLS3e

>  <r_lp_Energy>  (280) 
184.613

>  <b_lp_Chiralities_Consistent>  (280) 
1

>  <s_lp_Variant>  (280) 
105:0-1

>  <s_i_glide_gridfile>  (280) 
pfpi4k_grid

>  <i_i_glide_lignum>  (280) 
18

>  <i_i_glide_rotatable_bonds>  (280) 
1

>  <r_i_docking_score>  (280) 
-1.60825

>  <r_i_glide_ligand_efficiency>  (280) 
-0.035739

>  <r_i_glide_ligand_efficiency_sa>  (280) 
-0.12712

>  <r_i_glide_ligand_efficiency_ln>  (280) 
-0.334589

>  <r_i_glide_gscore>  (280) 
-1.60825

>  <r_i_glide_lipo>  (280) 
-0.336755

>  <r_i_glide_hbond>  (280) 
0

>  <r_i_glide_metal>  (280) 
-0

>  <r_i_glide_rewards>  (280) 
0

>  <r_i_glide_evdw>  (280) 
-24.5431

>  <r_i_glide_ecoul>  (280) 
-0.295621

>  <r_i_glide_erotb>  (280) 
0

>  <r_i_glide_esite>  (280) 
0

>  <r_i_glide_emodel>  (280) 
-24.6746

>  <r_i_glide_energy>  (280) 
-24.8387

>  <r_i_glide_einternal>  (280) 
1.72022

>  <r_i_glide_intrahb_reward>  (280) 
-0

>  <i_i_glide_confnum>  (280) 
1

>  <i_i_glide_posenum>  (280) 
23

>  <r_i_glide_eff_state_penalty>  (280) 
0

>  <ligand_id>  (280) 
105

>  <original_smiles>  (280) 
CCC12CC3CC45CCC(C)C6C=CC7(C)C8CCC(C(C)C4C3COC1(C)C1OC(=C(C)C)CC12)C(C85)C71CCCOC1=C6

>  <smiles>  (280) 
[H]C1=C([H])C2(C([H])([H])[H])C3([H])C([H])([H])C([H])([H])C4([H])C([H])(C([H])([H])[H])C5([H])C6([H])C([H])([H])OC7(C([H])([H])[H])C8([H])OC(=C(C([H])([H])[H])C([H])([H])[H])C([H])([H])C8([H])C7(C([H])([H])C([H])([H])[H])C([H])([H])C6([H])C([H])([H])C56C([H])([H])C([H])([H])C([H])(C([H])([H])[H])C1([H])C([H])=C1OC([H])([H])C([H])([H])C([H])([H])C12C4([H])C36[H]

$$$$
105:0:1
     RDKit          3D

105114  0  0  1  0  0  0  0  0999 V2000
    6.5510   -7.3176    3.2403 C   0  0  0  0  0  0  0  0  0  0  0  0
    5.4075   -6.3525    3.6796 C   0  0  0  0  0  0  0  0  0  0  0  0
    3.9982   -6.5259    3.0238 C   0  0  1  0  0  0  0  0  0  0  0  0
    2.9487   -5.7631    3.9031 C   0  0  0  0  0  0  0  0  0  0  0  0
    2.9028   -4.2022    3.8522 C   0  0  1  0  0  0  0  0  0  0  0  0
    3.4909   -3.4619    5.0565 C   0  0  0  0  0  0  0  0  0  0  0  0
    3.6425   -1.9823    4.6196 C   0  0  1  0  0  0  0  0  0  0  0  0
    4.9528   -1.3436    5.2783 C   0  0  0  0  0  0  0  0  0  0  0  0
    5.0965   -1.1769    6.8516 C   0  0  0  0  0  0  0  0  0  0  0  0
    4.9426    0.2534    7.5235 C   0  0  1  0  0  0  0  0  0  0  0  0
    6.0169    1.2422    7.0320 C   0  0  0  0  0  0  0  0  0  0  0  0
    3.5084    0.8110    7.3872 C   0  0  1  0  0  0  0  0  0  0  0  0
    2.3531    0.1564    8.1232 C   0  0  0  0  0  0  0  0  0  0  0  0
    1.1573   -0.1533    7.5876 C   0  0  0  0  0  0  0  0  0  0  0  0
    0.6242   -0.0130    6.1245 C   0  0  2  0  0  0  0  0  0  0  0  0
   -0.9082    0.1582    6.3187 C   0  0  0  0  0  0  0  0  0  0  0  0
    0.9655   -1.3796    5.3791 C   0  0  1  0  0  0  0  0  0  0  0  0
    0.1396   -1.7032    4.1116 C   0  0  0  0  0  0  0  0  0  0  0  0
    0.6104   -1.0063    2.8206 C   0  0  0  0  0  0  0  0  0  0  0  0
    1.9224   -0.1813    2.9000 C   0  0  2  0  0  0  0  0  0  0  0  0
    3.1021   -0.9153    2.2032 C   0  0  1  0  0  0  0  0  0  0  0  0
    4.1227    0.1146    1.6821 C   0  0  0  0  0  0  0  0  0  0  0  0
    3.7971   -2.0420    3.0579 C   0  0  2  0  0  0  0  0  0  0  0  0
    3.5923   -3.5333    2.6688 C   0  0  2  0  0  0  0  0  0  0  0  0
    3.0241   -3.9248    1.2949 C   0  0  0  0  0  0  0  0  0  0  0  0
    2.7857   -5.3251    1.1794 O   0  0  0  0  0  0  0  0  0  0  0  0
    3.8501   -6.2547    1.4747 C   0  0  1  0  0  0  0  0  0  0  0  0
    5.0728   -5.9906    0.5762 C   0  0  0  0  0  0  0  0  0  0  0  0
    3.2424   -7.6580    1.3195 C   0  0  2  0  0  0  0  0  0  0  0  0
    1.8173   -7.7310    1.3096 O   0  0  0  0  0  0  0  0  0  0  0  0
    1.3381   -8.3396    2.4353 C   0  0  0  0  0  0  0  0  0  0  0  0
    0.0128   -8.4361    2.6676 C   0  0  0  0  0  0  0  0  0  0  0  0
   -0.9963   -7.9296    1.6675 C   0  0  0  0  0  0  0  0  0  0  0  0
   -0.5770   -9.0240    3.9283 C   0  0  0  0  0  0  0  0  0  0  0  0
    2.4669   -8.7423    3.3536 C   0  0  0  0  0  0  0  0  0  0  0  0
    3.6402   -8.0254    2.7247 C   0  0  2  0  0  0  0  0  0  0  0  0
    2.3099    0.2516    4.3373 C   0  0  2  0  0  0  0  0  0  0  0  0
    2.4359   -1.1075    5.0498 C   0  0  2  0  0  0  0  0  0  0  0  0
    1.3105    1.1320    5.2041 C   0  0  1  0  0  0  0  0  0  0  0  0
    0.2429    1.9056    4.3572 C   0  0  0  0  0  0  0  0  0  0  0  0
    0.7553    3.0788    3.4996 C   0  0  0  0  0  0  0  0  0  0  0  0
    1.9688    3.7327    4.1494 C   0  0  0  0  0  0  0  0  0  0  0  0
    1.8701    3.5694    5.5499 O   0  0  0  0  0  0  0  0  0  0  0  0
    2.1250    2.2784    5.9705 C   0  0  0  0  0  0  0  0  0  0  0  0
    3.0754    2.1598    6.8861 C   0  0  0  0  0  0  0  0  0  0  0  0
    7.4981   -6.9959    3.7172 H   0  0  0  0  0  0  0  0  0  0  0  0
    6.6985   -7.3595    2.1953 H   0  0  0  0  0  0  0  0  0  0  0  0
    6.3633   -8.3340    3.6349 H   0  0  0  0  0  0  0  0  0  0  0  0
    5.2918   -6.3976    4.7675 H   0  0  0  0  0  0  0  0  0  0  0  0
    5.7781   -5.3488    3.5105 H   0  0  0  0  0  0  0  0  0  0  0  0
    1.9490   -6.0486    3.5668 H   0  0  0  0  0  0  0  0  0  0  0  0
    2.9578   -6.1023    4.9404 H   0  0  0  0  0  0  0  0  0  0  0  0
    1.8529   -3.9323    3.8154 H   0  0  0  0  0  0  0  0  0  0  0  0
    2.8869   -3.5831    5.9546 H   0  0  0  0  0  0  0  0  0  0  0  0
    4.4670   -3.8907    5.2792 H   0  0  0  0  0  0  0  0  0  0  0  0
    5.7908   -1.9683    4.9692 H   0  0  0  0  0  0  0  0  0  0  0  0
    5.1592   -0.3827    4.8065 H   0  0  0  0  0  0  0  0  0  0  0  0
    4.4386   -1.8861    7.3552 H   0  0  0  0  0  0  0  0  0  0  0  0
    6.0988   -1.5204    7.1097 H   0  0  0  0  0  0  0  0  0  0  0  0
    5.1278    0.1214    8.5904 H   0  0  0  0  0  0  0  0  0  0  0  0
    5.8914    1.4936    5.9789 H   0  0  0  0  0  0  0  0  0  0  0  0
    7.0184    0.8331    7.1606 H   0  0  0  0  0  0  0  0  0  0  0  0
    5.9785    2.1738    7.5974 H   0  0  0  0  0  0  0  0  0  0  0  0
    3.5382    0.5293    6.3776 H   0  0  0  0  0  0  0  0  0  0  0  0
    2.5192   -0.0268    9.1779 H   0  0  0  0  0  0  0  0  0  0  0  0
    0.4546   -0.6120    8.2700 H   0  0  0  0  0  0  0  0  0  0  0  0
   -1.4799    0.2507    5.3983 H   0  0  0  0  0  0  0  0  0  0  0  0
   -1.1338    1.0354    6.9275 H   0  0  0  0  0  0  0  0  0  0  0  0
   -1.3188   -0.7076    6.8332 H   0  0  0  0  0  0  0  0  0  0  0  0
    0.8568   -2.2169    6.0720 H   0  0  0  0  0  0  0  0  0  0  0  0
    0.1365   -2.7791    3.9455 H   0  0  0  0  0  0  0  0  0  0  0  0
   -0.9167   -1.4967    4.2589 H   0  0  0  0  0  0  0  0  0  0  0  0
    0.7012   -1.7604    2.0434 H   0  0  0  0  0  0  0  0  0  0  0  0
   -0.1824   -0.3565    2.4525 H   0  0  0  0  0  0  0  0  0  0  0  0
    1.7280    0.7097    2.3087 H   0  0  0  0  0  0  0  0  0  0  0  0
    2.7192   -1.3449    1.2787 H   0  0  0  0  0  0  0  0  0  0  0  0
    4.5977    0.6288    2.5123 H   0  0  0  0  0  0  0  0  0  0  0  0
    3.6512    0.8537    1.0301 H   0  0  0  0  0  0  0  0  0  0  0  0
    4.9091   -0.3587    1.0946 H   0  0  0  0  0  0  0  0  0  0  0  0
    4.8601   -1.8972    2.8560 H   0  0  0  0  0  0  0  0  0  0  0  0
    4.6050   -3.9122    2.6461 H   0  0  0  0  0  0  0  0  0  0  0  0
    2.0638   -3.4444    1.1216 H   0  0  0  0  0  0  0  0  0  0  0  0
    3.6908   -3.5783    0.5022 H   0  0  0  0  0  0  0  0  0  0  0  0
    5.7511   -6.8145    0.5670 H   0  0  0  0  0  0  0  0  0  0  0  0
    5.6172   -5.1019    0.9042 H   0  0  0  0  0  0  0  0  0  0  0  0
    4.7513   -5.7974   -0.4625 H   0  0  0  0  0  0  0  0  0  0  0  0
    3.7371   -8.3030    0.5850 H   0  0  0  0  0  0  0  0  0  0  0  0
   -1.6139   -7.1550    2.1239 H   0  0  0  0  0  0  0  0  0  0  0  0
   -1.6367   -8.7556    1.3541 H   0  0  0  0  0  0  0  0  0  0  0  0
   -0.5241   -7.5178    0.7733 H   0  0  0  0  0  0  0  0  0  0  0  0
   -1.2271   -9.8529    3.6563 H   0  0  0  0  0  0  0  0  0  0  0  0
   -1.1740   -8.2727    4.4447 H   0  0  0  0  0  0  0  0  0  0  0  0
    0.1738   -9.4004    4.6241 H   0  0  0  0  0  0  0  0  0  0  0  0
    2.2977   -8.4772    4.4003 H   0  0  0  0  0  0  0  0  0  0  0  0
    2.6003   -9.8269    3.3088 H   0  0  0  0  0  0  0  0  0  0  0  0
    4.5058   -8.6804    2.6874 H   0  0  0  0  0  0  0  0  0  0  0  0
    3.2597    0.7756    4.2744 H   0  0  0  0  0  0  0  0  0  0  0  0
    2.7283   -1.1583    6.0703 H   0  0  0  0  0  0  0  0  0  0  0  0
   -0.3747    1.2592    3.7482 H   0  0  0  0  0  0  0  0  0  0  0  0
   -0.4584    2.3623    5.0577 H   0  0  0  0  0  0  0  0  0  0  0  0
    0.9938    2.7741    2.4814 H   0  0  0  0  0  0  0  0  0  0  0  0
   -0.0425    3.8167    3.4114 H   0  0  0  0  0  0  0  0  0  0  0  0
    2.8934    3.2827    3.7758 H   0  0  0  0  0  0  0  0  0  0  0  0
    2.0154    4.7924    3.8962 H   0  0  0  0  0  0  0  0  0  0  0  0
    3.5851    3.0220    7.3159 H   0  0  0  0  0  0  0  0  0  0  0  0
  1  2  1  0
  1 46  1  0
  1 47  1  0
  1 48  1  0
  3  2  1  1
  2 49  1  0
  2 50  1  0
  3 27  1  0
  3 36  1  0
  3  4  1  0
  4  5  1  0
  4 51  1  0
  4 52  1  0
  5 24  1  0
  5  6  1  0
  5 53  1  6
  7  6  1  1
  6 54  1  0
  6 55  1  0
  7 23  1  0
  7 38  1  0
  7  8  1  0
  8  9  1  0
  8 56  1  0
  8 57  1  0
  9 10  1  0
  9 58  1  0
  9 59  1  0
 10 11  1  0
 10 12  1  0
 10 60  1  1
 11 61  1  0
 11 62  1  0
 11 63  1  0
 12 45  1  0
 12 13  1  0
 12 64  1  6
 13 14  2  0
 13 65  1  0
 14 15  1  0
 14 66  1  0
 15 39  1  0
 15 16  1  1
 15 17  1  0
 16 67  1  0
 16 68  1  0
 16 69  1  0
 17 38  1  0
 17 18  1  0
 17 70  1  1
 18 19  1  0
 18 71  1  0
 18 72  1  0
 19 20  1  0
 19 73  1  0
 19 74  1  0
 20 21  1  0
 20 37  1  0
 20 75  1  6
 21 22  1  0
 21 23  1  0
 21 76  1  6
 22 77  1  0
 22 78  1  0
 22 79  1  0
 23 24  1  0
 23 80  1  1
 24 25  1  0
 24 81  1  6
 25 26  1  0
 25 82  1  0
 25 83  1  0
 26 27  1  0
 27 28  1  6
 27 29  1  0
 28 84  1  0
 28 85  1  0
 28 86  1  0
 29 36  1  0
 29 30  1  0
 29 87  1  6
 30 31  1  0
 31 32  2  3
 31 35  1  0
 32 33  1  0
 32 34  1  0
 33 88  1  0
 33 89  1  0
 33 90  1  0
 34 91  1  0
 34 92  1  0
 34 93  1  0
 35 36  1  0
 35 94  1  0
 35 95  1  0
 36 96  1  6
 37 38  1  0
 37 39  1  0
 37 97  1  6
 38 98  1  1
 39 44  1  0
 39 40  1  6
 40 41  1  0
 40 99  1  0
 40100  1  0
 41 42  1  0
 41101  1  0
 41102  1  0
 42 43  1  0
 42103  1  0
 42104  1  0
 43 44  1  0
 44 45  2  0
 45105  1  0
M  END
>  <i_m_ct_stereo_status>  (281) 
1

>  <s_m_source_file>  (281) 
/var/tmp/pbs.5076255.sched01/tmp3ug8vllb/105tp2mz_hs.sdf

>  <i_m_source_file_index>  (281) 
18

>  <i_lp_mmshare_version>  (281) 
48012

>  <i_f3d_flags>  (281) 
0

>  <s_epik_input>  (281) 
W0NIM11DKFtDSDNdKT1DKE8xKVtDSDJdW0NASF0yW0NAQEhdMVtDQEBdKFtDSDNdKShPW0NIMl0zKVtDQEBdMihbQ0gyXVtDSDNdKVtDSDJdW0NAQEhdKFtDSDJdNClbQ0BASF0zW0NASF0oW0NAQF00NTYpW0NASF0oW0NIM10pW0NAQEhdN1tDQEhdOFtDQEBdMTlbQ0BAXShbQ0gzXSkoW0NASF0oW0NAQEhdNjgpW0NIMl1bQ0gyXTcpW0NIXT1bQ0hdW0NASF0oW0NASF0oW0NIM10pW0NIMl1bQ0gyXTUpW0NIXT1DMU9bQ0gyXVtDSDJdW0NIMl05

>  <s_epik_cmdline>  (281) 
J2VwaWtfcHl0aG9uJywgJy1waHQnLCAnMi4wJywgJy1waCcsICc3LjAnLCAnLXRuJywgJzgnLCAnLW1hJywgJzIwMCcsICctaW1hZScsICc8aW5maWxlLm1hZT4nLCAnLW9tYWUnLCAnPG91dGZpbGUubWFlPic=

>  <r_lp_tautomer_probability>  (281) 
1

>  <r_epik_Ionization_Penalty>  (281) 
9.73058e-12

>  <r_epik_Ionization_Penalty_Charging>  (281) 
0

>  <r_epik_Ionization_Penalty_Neutral>  (281) 
9.73058e-12

>  <r_epik_State_Penalty>  (281) 
-0

>  <r_epik_Charging_Adjusted_Penalty>  (281) 
0

>  <i_epik_Tot_Q>  (281) 
0

>  <i_epik_Tot_abs_Q>  (281) 
0

>  <s_lp_Force_Field>  (281) 
OPLS3e

>  <r_lp_Energy>  (281) 
184.613

>  <b_lp_Chiralities_Consistent>  (281) 
1

>  <s_lp_Variant>  (281) 
105:0-1

>  <s_i_glide_gridfile>  (281) 
pfpi4k_grid

>  <i_i_glide_lignum>  (281) 
18

>  <i_i_glide_rotatable_bonds>  (281) 
1

>  <r_i_docking_score>  (281) 
-1.55019

>  <r_i_glide_ligand_efficiency>  (281) 
-0.0344486

>  <r_i_glide_ligand_efficiency_sa>  (281) 
-0.12253

>  <r_i_glide_ligand_efficiency_ln>  (281) 
-0.322508

>  <r_i_glide_gscore>  (281) 
-1.55019

>  <r_i_glide_lipo>  (281) 
-0.291824

>  <r_i_glide_hbond>  (281) 
0

>  <r_i_glide_metal>  (281) 
-0

>  <r_i_glide_rewards>  (281) 
0

>  <r_i_glide_evdw>  (281) 
-24.2403

>  <r_i_glide_ecoul>  (281) 
-0.30901

>  <r_i_glide_erotb>  (281) 
0

>  <r_i_glide_esite>  (281) 
0

>  <r_i_glide_emodel>  (281) 
-24.1663

>  <r_i_glide_energy>  (281) 
-24.5493

>  <r_i_glide_einternal>  (281) 
4.40886

>  <r_i_glide_intrahb_reward>  (281) 
-0

>  <i_i_glide_confnum>  (281) 
2

>  <i_i_glide_posenum>  (281) 
34

>  <r_i_glide_eff_state_penalty>  (281) 
0

>  <ligand_id>  (281) 
105

>  <original_smiles>  (281) 
CCC12CC3CC45CCC(C)C6C=CC7(C)C8CCC(C(C)C4C3COC1(C)C1OC(=C(C)C)CC12)C(C85)C71CCCOC1=C6

>  <smiles>  (281) 
[H]C1=C([H])C2(C([H])([H])[H])C3([H])C([H])([H])C([H])([H])C4([H])C([H])(C([H])([H])[H])C5([H])C6([H])C([H])([H])OC7(C([H])([H])[H])C8([H])OC(=C(C([H])([H])[H])C([H])([H])[H])C([H])([H])C8([H])C7(C([H])([H])C([H])([H])[H])C([H])([H])C6([H])C([H])([H])C56C([H])([H])C([H])([H])C([H])(C([H])([H])[H])C1([H])C([H])=C1OC([H])([H])C([H])([H])C([H])([H])C12C4([H])C36[H]

$$$$
105:0:2
     RDKit          3D

105114  0  0  1  0  0  0  0  0999 V2000
    0.0904   -5.5197    8.6962 C   0  0  0  0  0  0  0  0  0  0  0  0
    1.4931   -5.2628    8.1216 C   0  0  0  0  0  0  0  0  0  0  0  0
    1.6597   -5.5420    6.6047 C   0  0  1  0  0  0  0  0  0  0  0  0
    0.7743   -4.5386    5.8068 C   0  0  0  0  0  0  0  0  0  0  0  0
    1.2337   -3.0548    5.7168 C   0  0  1  0  0  0  0  0  0  0  0  0
    0.4731   -2.0508    6.5859 C   0  0  0  0  0  0  0  0  0  0  0  0
    1.3107   -0.7477    6.5642 C   0  0  1  0  0  0  0  0  0  0  0  0
    1.2243   -0.0103    7.9815 C   0  0  0  0  0  0  0  0  0  0  0  0
   -0.1489    0.5631    8.5408 C   0  0  0  0  0  0  0  0  0  0  0  0
   -0.4387    2.1201    8.5290 C   0  0  1  0  0  0  0  0  0  0  0  0
    0.5667    2.9004    9.3936 C   0  0  0  0  0  0  0  0  0  0  0  0
   -0.5571    2.6725    7.0881 C   0  0  1  0  0  0  0  0  0  0  0  0
   -1.7233    2.2886    6.1981 C   0  0  0  0  0  0  0  0  0  0  0  0
   -1.6287    1.8865    4.9083 C   0  0  0  0  0  0  0  0  0  0  0  0
   -0.3784    1.6638    4.0022 C   0  0  2  0  0  0  0  0  0  0  0  0
   -0.9336    1.9419    2.5745 C   0  0  0  0  0  0  0  0  0  0  0  0
    0.0444    0.1370    4.1737 C   0  0  1  0  0  0  0  0  0  0  0  0
    0.9069   -0.4719    3.0390 C   0  0  0  0  0  0  0  0  0  0  0  0
    2.4158   -0.1623    3.1124 C   0  0  0  0  0  0  0  0  0  0  0  0
    2.9108    0.6047    4.3725 C   0  0  2  0  0  0  0  0  0  0  0  0
    3.6790   -0.3253    5.3584 C   0  0  1  0  0  0  0  0  0  0  0  0
    4.7136    0.4931    6.1678 C   0  0  0  0  0  0  0  0  0  0  0  0
    2.7828   -1.2219    6.2952 C   0  0  2  0  0  0  0  0  0  0  0  0
    2.6937   -2.7571    6.0476 C   0  0  2  0  0  0  0  0  0  0  0  0
    3.7116   -3.4693    5.1405 C   0  0  0  0  0  0  0  0  0  0  0  0
    3.4047   -4.8486    4.9430 O   0  0  0  0  0  0  0  0  0  0  0  0
    3.1319   -5.6897    6.0723 C   0  0  1  0  0  0  0  0  0  0  0  0
    4.3179   -5.7178    7.0397 C   0  0  0  0  0  0  0  0  0  0  0  0
    2.7515   -7.0613    5.4972 C   0  0  2  0  0  0  0  0  0  0  0  0
    2.3633   -7.0793    4.1240 O   0  0  0  0  0  0  0  0  0  0  0  0
    1.0299   -7.3569    3.9819 C   0  0  0  0  0  0  0  0  0  0  0  0
    0.4368   -7.3415    2.7697 C   0  0  0  0  0  0  0  0  0  0  0  0
    1.2253   -7.0779    1.4989 C   0  0  0  0  0  0  0  0  0  0  0  0
   -1.0467   -7.5583    2.5503 C   0  0  0  0  0  0  0  0  0  0  0  0
    0.3825   -7.5538    5.3337 C   0  0  0  0  0  0  0  0  0  0  0  0
    1.4558   -7.0528    6.2664 C   0  0  2  0  0  0  0  0  0  0  0  0
    1.8002    1.3851    5.1285 C   0  0  2  0  0  0  0  0  0  0  0  0
    0.8184    0.2555    5.4889 C   0  0  2  0  0  0  0  0  0  0  0  0
    0.9558    2.5044    4.3838 C   0  0  1  0  0  0  0  0  0  0  0  0
    1.6673    3.0591    3.0983 C   0  0  0  0  0  0  0  0  0  0  0  0
    2.8892    3.9582    3.3144 C   0  0  0  0  0  0  0  0  0  0  0  0
    2.7942    4.7087    4.6293 C   0  0  0  0  0  0  0  0  0  0  0  0
    1.4251    4.9184    4.9284 O   0  0  0  0  0  0  0  0  0  0  0  0
    0.7753    3.7771    5.3204 C   0  0  0  0  0  0  0  0  0  0  0  0
    0.1331    3.8594    6.5102 C   0  0  0  0  0  0  0  0  0  0  0  0
    0.1150   -5.4163    9.7818 H   0  0  0  0  0  0  0  0  0  0  0  0
   -0.2568   -6.5280    8.4686 H   0  0  0  0  0  0  0  0  0  0  0  0
   -0.6419   -4.8047    8.3202 H   0  0  0  0  0  0  0  0  0  0  0  0
    1.7834   -4.2500    8.3851 H   0  0  0  0  0  0  0  0  0  0  0  0
    2.1748   -5.9015    8.6859 H   0  0  0  0  0  0  0  0  0  0  0  0
    0.7575   -4.8729    4.7701 H   0  0  0  0  0  0  0  0  0  0  0  0
   -0.2719   -4.5996    6.1053 H   0  0  0  0  0  0  0  0  0  0  0  0
    1.0652   -2.7624    4.6885 H   0  0  0  0  0  0  0  0  0  0  0  0
   -0.5512   -1.9103    6.2454 H   0  0  0  0  0  0  0  0  0  0  0  0
    0.4188   -2.4435    7.6000 H   0  0  0  0  0  0  0  0  0  0  0  0
    1.5760   -0.7269    8.7266 H   0  0  0  0  0  0  0  0  0  0  0  0
    1.9700    0.7840    8.0163 H   0  0  0  0  0  0  0  0  0  0  0  0
   -0.9768    0.0561    8.0484 H   0  0  0  0  0  0  0  0  0  0  0  0
   -0.2121    0.2521    9.5844 H   0  0  0  0  0  0  0  0  0  0  0  0
   -1.4101    2.2621    9.0018 H   0  0  0  0  0  0  0  0  0  0  0  0
    1.5730    2.8693    8.9775 H   0  0  0  0  0  0  0  0  0  0  0  0
    0.6087    2.4972   10.4046 H   0  0  0  0  0  0  0  0  0  0  0  0
    0.2766    3.9466    9.4780 H   0  0  0  0  0  0  0  0  0  0  0  0
    0.3158    2.1386    6.8561 H   0  0  0  0  0  0  0  0  0  0  0  0
   -2.7005    2.3818    6.6499 H   0  0  0  0  0  0  0  0  0  0  0  0
   -2.5695    1.6627    4.4225 H   0  0  0  0  0  0  0  0  0  0  0  0
   -0.2116    1.8155    1.7689 H   0  0  0  0  0  0  0  0  0  0  0  0
   -1.3178    2.9607    2.4942 H   0  0  0  0  0  0  0  0  0  0  0  0
   -1.7634    1.2731    2.3363 H   0  0  0  0  0  0  0  0  0  0  0  0
   -0.8502   -0.4799    4.2816 H   0  0  0  0  0  0  0  0  0  0  0  0
    0.7768   -1.5508    3.0302 H   0  0  0  0  0  0  0  0  0  0  0  0
    0.5360   -0.1890    2.0558 H   0  0  0  0  0  0  0  0  0  0  0  0
    2.9539   -1.1025    3.0155 H   0  0  0  0  0  0  0  0  0  0  0  0
    2.7094    0.3783    2.2116 H   0  0  0  0  0  0  0  0  0  0  0  0
    3.6414    1.3209    4.0023 H   0  0  0  0  0  0  0  0  0  0  0  0
    4.3170   -0.9682    4.7572 H   0  0  0  0  0  0  0  0  0  0  0  0
    4.2542    1.2204    6.8367 H   0  0  0  0  0  0  0  0  0  0  0  0
    5.3837    1.0409    5.5017 H   0  0  0  0  0  0  0  0  0  0  0  0
    5.3434   -0.1573    6.7737 H   0  0  0  0  0  0  0  0  0  0  0  0
    3.2974   -1.1772    7.2564 H   0  0  0  0  0  0  0  0  0  0  0  0
    2.8874   -3.1696    7.0281 H   0  0  0  0  0  0  0  0  0  0  0  0
    3.7257   -3.0288    4.1476 H   0  0  0  0  0  0  0  0  0  0  0  0
    4.7177   -3.3647    5.5475 H   0  0  0  0  0  0  0  0  0  0  0  0
    4.1995   -6.5006    7.7896 H   0  0  0  0  0  0  0  0  0  0  0  0
    4.4387   -4.7781    7.5698 H   0  0  0  0  0  0  0  0  0  0  0  0
    5.2474   -5.9317    6.5175 H   0  0  0  0  0  0  0  0  0  0  0  0
    3.4088   -7.8885    5.7708 H   0  0  0  0  0  0  0  0  0  0  0  0
    0.8552   -6.1850    0.9911 H   0  0  0  0  0  0  0  0  0  0  0  0
    1.1245   -7.9294    0.8222 H   0  0  0  0  0  0  0  0  0  0  0  0
    2.2914   -6.9338    1.6961 H   0  0  0  0  0  0  0  0  0  0  0  0
   -1.2095   -8.3975    1.8727 H   0  0  0  0  0  0  0  0  0  0  0  0
   -1.4795   -6.6708    2.0943 H   0  0  0  0  0  0  0  0  0  0  0  0
   -1.5831   -7.7615    3.4751 H   0  0  0  0  0  0  0  0  0  0  0  0
   -0.5556   -7.0134    5.4359 H   0  0  0  0  0  0  0  0  0  0  0  0
    0.1759   -8.6160    5.4831 H   0  0  0  0  0  0  0  0  0  0  0  0
    1.5563   -7.6611    7.1657 H   0  0  0  0  0  0  0  0  0  0  0  0
    2.2557    1.8324    6.0104 H   0  0  0  0  0  0  0  0  0  0  0  0
   -0.0606    0.4630    6.0489 H   0  0  0  0  0  0  0  0  0  0  0  0
    1.8858    2.3041    2.3507 H   0  0  0  0  0  0  0  0  0  0  0  0
    0.9534    3.7165    2.6101 H   0  0  0  0  0  0  0  0  0  0  0  0
    3.8063    3.3845    3.2873 H   0  0  0  0  0  0  0  0  0  0  0  0
    2.9473    4.6686    2.4908 H   0  0  0  0  0  0  0  0  0  0  0  0
    3.2669    4.1408    5.4315 H   0  0  0  0  0  0  0  0  0  0  0  0
    3.3181    5.6620    4.5710 H   0  0  0  0  0  0  0  0  0  0  0  0
    0.1097    4.7809    7.0719 H   0  0  0  0  0  0  0  0  0  0  0  0
  1  2  1  0
  1 46  1  0
  1 47  1  0
  1 48  1  0
  3  2  1  1
  2 49  1  0
  2 50  1  0
  3 27  1  0
  3 36  1  0
  3  4  1  0
  4  5  1  0
  4 51  1  0
  4 52  1  0
  5 24  1  0
  5  6  1  0
  5 53  1  6
  7  6  1  1
  6 54  1  0
  6 55  1  0
  7 23  1  0
  7 38  1  0
  7  8  1  0
  8  9  1  0
  8 56  1  0
  8 57  1  0
  9 10  1  0
  9 58  1  0
  9 59  1  0
 10 11  1  0
 10 12  1  0
 10 60  1  1
 11 61  1  0
 11 62  1  0
 11 63  1  0
 12 45  1  0
 12 13  1  0
 12 64  1  6
 13 14  2  0
 13 65  1  0
 14 15  1  0
 14 66  1  0
 15 39  1  0
 15 16  1  6
 15 17  1  0
 16 67  1  0
 16 68  1  0
 16 69  1  0
 17 38  1  0
 17 18  1  0
 17 70  1  1
 18 19  1  0
 18 71  1  0
 18 72  1  0
 19 20  1  0
 19 73  1  0
 19 74  1  0
 20 21  1  0
 20 37  1  0
 20 75  1  6
 21 22  1  0
 21 23  1  0
 21 76  1  6
 22 77  1  0
 22 78  1  0
 22 79  1  0
 23 24  1  0
 23 80  1  1
 24 25  1  0
 24 81  1  1
 25 26  1  0
 25 82  1  0
 25 83  1  0
 26 27  1  0
 27 28  1  1
 27 29  1  0
 28 84  1  0
 28 85  1  0
 28 86  1  0
 29 36  1  0
 29 30  1  0
 29 87  1  1
 30 31  1  0
 31 32  2  3
 31 35  1  0
 32 33  1  0
 32 34  1  0
 33 88  1  0
 33 89  1  0
 33 90  1  0
 34 91  1  0
 34 92  1  0
 34 93  1  0
 35 36  1  0
 35 94  1  0
 35 95  1  0
 36 96  1  1
 37 38  1  0
 37 39  1  0
 37 97  1  1
 38 98  1  1
 39 44  1  0
 39 40  1  6
 40 41  1  0
 40 99  1  0
 40100  1  0
 41 42  1  0
 41101  1  0
 41102  1  0
 42 43  1  0
 42103  1  0
 42104  1  0
 43 44  1  0
 44 45  2  0
 45105  1  0
M  END
>  <i_m_ct_stereo_status>  (282) 
1

>  <s_m_source_file>  (282) 
/var/tmp/pbs.5076255.sched01/tmp3ug8vllb/105tp2mz_hs.sdf

>  <i_m_source_file_index>  (282) 
18

>  <i_lp_mmshare_version>  (282) 
48012

>  <i_f3d_flags>  (282) 
0

>  <s_epik_input>  (282) 
W0NIM11DKFtDSDNdKT1DKE8xKVtDSDJdW0NASF0yW0NAQEhdMVtDQEBdKFtDSDNdKShPW0NIMl0zKVtDQEBdMihbQ0gyXVtDSDNdKVtDSDJdW0NAQEhdKFtDSDJdNClbQ0BASF0zW0NASF0oW0NAQF00NTYpW0NASF0oW0NIM10pW0NAQEhdN1tDQEhdOFtDQEBdMTlbQ0BAXShbQ0gzXSkoW0NASF0oW0NAQEhdNjgpW0NIMl1bQ0gyXTcpW0NIXT1bQ0hdW0NASF0oW0NASF0oW0NIM10pW0NIMl1bQ0gyXTUpW0NIXT1DMU9bQ0gyXVtDSDJdW0NIMl05

>  <s_epik_cmdline>  (282) 
J2VwaWtfcHl0aG9uJywgJy1waHQnLCAnMi4wJywgJy1waCcsICc3LjAnLCAnLXRuJywgJzgnLCAnLW1hJywgJzIwMCcsICctaW1hZScsICc8aW5maWxlLm1hZT4nLCAnLW9tYWUnLCAnPG91dGZpbGUubWFlPic=

>  <r_lp_tautomer_probability>  (282) 
1

>  <r_epik_Ionization_Penalty>  (282) 
9.73058e-12

>  <r_epik_Ionization_Penalty_Charging>  (282) 
0

>  <r_epik_Ionization_Penalty_Neutral>  (282) 
9.73058e-12

>  <r_epik_State_Penalty>  (282) 
-0

>  <r_epik_Charging_Adjusted_Penalty>  (282) 
0

>  <i_epik_Tot_Q>  (282) 
0

>  <i_epik_Tot_abs_Q>  (282) 
0

>  <s_lp_Force_Field>  (282) 
OPLS3e

>  <r_lp_Energy>  (282) 
184.613

>  <b_lp_Chiralities_Consistent>  (282) 
1

>  <s_lp_Variant>  (282) 
105:0-1

>  <s_i_glide_gridfile>  (282) 
pfpi4k_grid

>  <i_i_glide_lignum>  (282) 
18

>  <i_i_glide_rotatable_bonds>  (282) 
1

>  <r_i_docking_score>  (282) 
-1.16065

>  <r_i_glide_ligand_efficiency>  (282) 
-0.0257921

>  <r_i_glide_ligand_efficiency_sa>  (282) 
-0.0917399

>  <r_i_glide_ligand_efficiency_ln>  (282) 
-0.241466

>  <r_i_glide_gscore>  (282) 
-1.16065

>  <r_i_glide_lipo>  (282) 
-0.014752

>  <r_i_glide_hbond>  (282) 
0

>  <r_i_glide_metal>  (282) 
-0

>  <r_i_glide_rewards>  (282) 
0

>  <r_i_glide_evdw>  (282) 
-23.361

>  <r_i_glide_ecoul>  (282) 
0.147692

>  <r_i_glide_erotb>  (282) 
0

>  <r_i_glide_esite>  (282) 
0

>  <r_i_glide_emodel>  (282) 
-24.8512

>  <r_i_glide_energy>  (282) 
-23.2133

>  <r_i_glide_einternal>  (282) 
0.00149019

>  <r_i_glide_intrahb_reward>  (282) 
-0

>  <i_i_glide_confnum>  (282) 
2

>  <i_i_glide_posenum>  (282) 
22

>  <r_i_glide_eff_state_penalty>  (282) 
0

>  <ligand_id>  (282) 
105

>  <original_smiles>  (282) 
CCC12CC3CC45CCC(C)C6C=CC7(C)C8CCC(C(C)C4C3COC1(C)C1OC(=C(C)C)CC12)C(C85)C71CCCOC1=C6

>  <smiles>  (282) 
[H]C1=C([H])C2(C([H])([H])[H])C3([H])C([H])([H])C([H])([H])C4([H])C([H])(C([H])([H])[H])C5([H])C6([H])C([H])([H])OC7(C([H])([H])[H])C8([H])OC(=C(C([H])([H])[H])C([H])([H])[H])C([H])([H])C8([H])C7(C([H])([H])C([H])([H])[H])C([H])([H])C6([H])C([H])([H])C56C([H])([H])C([H])([H])C([H])(C([H])([H])[H])C1([H])C([H])=C1OC([H])([H])C([H])([H])C([H])([H])C12C4([H])C36[H]

$$$$
107:0:0
     RDKit          3D

 62 68  0  0  1  0  0  0  0  0999 V2000
    2.9741    1.8158    8.1844 C   0  0  0  0  0  0  0  0  0  0  0  0
    2.8768    1.8817    6.7703 O   0  0  0  0  0  0  0  0  0  0  0  0
    1.5924    1.6711    6.2171 C   0  0  2  0  0  0  0  0  0  0  0  0
    0.6584    2.6378    6.7020 O   0  0  0  0  0  0  0  0  0  0  0  0
    0.0734    3.6186    5.7748 C   0  0  0  0  0  0  0  0  0  0  0  0
   -0.3653    2.9416    4.4060 C   0  0  2  0  0  0  0  0  0  0  0  0
   -1.4601    3.7887    3.7161 C   0  0  0  0  0  0  0  0  0  0  0  0
   -0.9864    5.0468    3.2822 O   0  0  0  0  0  0  0  0  0  0  0  0
   -1.1479    1.7325    5.2951 C   0  0  0  0  0  0  0  0  0  0  0  0
   -0.3818    0.4530    6.0980 C   0  0  1  0  0  0  0  0  0  0  0  0
   -0.9792   -0.8186    5.6470 C   0  0  0  0  0  0  0  0  0  0  0  0
   -0.6898   -0.7414    4.1734 C   0  0  0  0  0  0  0  0  0  0  0  0
    0.4101    0.3715    3.6827 C   0  0  2  0  0  0  0  0  0  0  0  0
   -0.6536    0.8338    2.7697 O   0  0  0  0  0  0  0  0  0  0  0  0
    1.1794   -0.1481    2.5452 C   0  0  1  0  0  0  0  0  0  0  0  0
    1.8180    1.2880    2.3869 C   0  0  2  0  0  0  0  0  0  0  0  0
    3.1774    0.8819    2.8726 O   0  0  0  0  0  0  0  0  0  0  0  0
    3.4762   -0.2021    3.8946 C   0  0  2  0  0  0  0  0  0  0  0  0
    4.9429    0.0545    4.3405 C   0  0  0  0  0  0  0  0  0  0  0  0
    5.0760    0.9453    5.4245 O   0  0  0  0  0  0  0  0  0  0  0  0
    3.4204   -1.2493    2.7743 C   0  0  1  0  0  0  0  0  0  0  0  0
    4.2877   -2.3655    2.9142 O   0  0  0  0  0  0  0  0  0  0  0  0
    1.9533   -1.5164    2.9524 C   0  0  1  0  0  0  0  0  0  0  0  0
    1.8859   -1.9406    4.4835 C   0  0  1  0  0  0  0  0  0  0  0  0
    2.6234   -3.1007    4.8313 O   0  0  0  0  0  0  0  0  0  0  0  0
    2.4234   -0.7008    5.1979 C   0  0  2  0  0  0  0  0  0  0  0  0
    1.2542    0.2141    6.1980 C   0  0  1  0  0  0  0  0  0  0  0  0
    1.0081    2.7185    3.2099 C   0  0  2  0  0  0  0  0  0  0  0  0
    2.0838    2.9005    4.1014 C   0  0  0  0  0  0  0  0  0  0  0  0
    1.5584    1.5926    4.7275 C   0  0  1  0  0  0  0  0  0  0  0  0
    4.0078    2.0281    8.4684 H   0  0  0  0  0  0  0  0  0  0  0  0
    2.7390    0.8257    8.5738 H   0  0  0  0  0  0  0  0  0  0  0  0
    2.3368    2.5525    8.6733 H   0  0  0  0  0  0  0  0  0  0  0  0
   -0.8010    4.0280    6.2863 H   0  0  0  0  0  0  0  0  0  0  0  0
    0.6500    4.5289    5.6672 H   0  0  0  0  0  0  0  0  0  0  0  0
   -1.8764    3.2630    2.8576 H   0  0  0  0  0  0  0  0  0  0  0  0
   -2.2865    3.9621    4.4070 H   0  0  0  0  0  0  0  0  0  0  0  0
   -0.5480    4.9297    2.4294 H   0  0  0  0  0  0  0  0  0  0  0  0
   -1.7604    2.1908    6.0726 H   0  0  0  0  0  0  0  0  0  0  0  0
   -1.9905    1.3659    4.7008 H   0  0  0  0  0  0  0  0  0  0  0  0
   -0.6866    0.5676    7.1365 H   0  0  0  0  0  0  0  0  0  0  0  0
   -0.5396   -1.6762    6.1572 H   0  0  0  0  0  0  0  0  0  0  0  0
   -2.0540   -0.8411    5.8312 H   0  0  0  0  0  0  0  0  0  0  0  0
   -0.5384   -1.7151    3.7121 H   0  0  0  0  0  0  0  0  0  0  0  0
   -1.7187   -0.6230    3.8069 H   0  0  0  0  0  0  0  0  0  0  0  0
   -0.2772    1.4285    2.1247 H   0  0  0  0  0  0  0  0  0  0  0  0
    0.6452   -0.4142    1.6218 H   0  0  0  0  0  0  0  0  0  0  0  0
    1.9184    1.5216    1.3323 H   0  0  0  0  0  0  0  0  0  0  0  0
    5.4099   -0.8745    4.6643 H   0  0  0  0  0  0  0  0  0  0  0  0
    5.5320    0.4475    3.5101 H   0  0  0  0  0  0  0  0  0  0  0  0
    4.4329    0.7324    6.0889 H   0  0  0  0  0  0  0  0  0  0  0  0
    3.6319   -0.8726    1.7662 H   0  0  0  0  0  0  0  0  0  0  0  0
    4.1832   -2.9180    2.1514 H   0  0  0  0  0  0  0  0  0  0  0  0
    1.6186   -2.3377    2.3121 H   0  0  0  0  0  0  0  0  0  0  0  0
    0.9556   -2.3098    4.8657 H   0  0  0  0  0  0  0  0  0  0  0  0
    3.4906   -3.0010    4.4484 H   0  0  0  0  0  0  0  0  0  0  0  0
    3.1165   -1.0724    5.9566 H   0  0  0  0  0  0  0  0  0  0  0  0
    1.3855   -0.1961    7.1990 H   0  0  0  0  0  0  0  0  0  0  0  0
    1.0240    3.5485    2.5118 H   0  0  0  0  0  0  0  0  0  0  0  0
    3.0422    2.9493    3.5822 H   0  0  0  0  0  0  0  0  0  0  0  0
    2.1680    3.8005    4.6929 H   0  0  0  0  0  0  0  0  0  0  0  0
    2.5968    1.5193    4.8042 H   0  0  0  0  0  0  0  0  0  0  0  0
  1  2  1  0
  1 31  1  0
  1 32  1  0
  1 33  1  0
  3  2  1  6
  3 27  1  0
  3 30  1  0
  3  4  1  0
  4  5  1  0
  5  6  1  0
  5 34  1  0
  5 35  1  0
  6 28  1  0
  6  7  1  6
  6  9  1  0
  7  8  1  0
  7 36  1  0
  7 37  1  0
  8 38  1  0
  9 10  1  0
  9 39  1  0
  9 40  1  0
 10 27  1  0
 10 11  1  0
 10 41  1  1
 11 12  1  0
 11 42  1  0
 11 43  1  0
 12 13  1  0
 12 44  1  0
 12 45  1  0
 13 30  1  0
 13 14  1  6
 13 15  1  0
 14 46  1  0
 15 23  1  0
 15 16  1  0
 15 47  1  6
 16 17  1  0
 16 28  1  0
 16 48  1  6
 17 18  1  0
 18 26  1  0
 18 19  1  1
 18 21  1  0
 19 20  1  0
 19 49  1  0
 19 50  1  0
 20 51  1  0
 21 22  1  0
 21 23  1  0
 21 52  1  6
 22 53  1  0
 23 24  1  0
 23 54  1  6
 24 25  1  0
 24 26  1  0
 24 55  1  1
 25 56  1  0
 26 27  1  0
 26 57  1  1
 27 58  1  1
 28 29  1  0
 28 59  1  6
 29 30  1  0
 29 60  1  0
 29 61  1  0
 30 62  1  6
M  END
>  <i_m_ct_stereo_status>  (283) 
1

>  <s_m_source_file>  (283) 
/var/tmp/pbs.5076255.sched01/tmp3ug8vllb/105tp2mz_hs.sdf

>  <i_m_source_file_index>  (283) 
20

>  <i_lp_mmshare_version>  (283) 
48012

>  <i_f3d_flags>  (283) 
0

>  <s_epik_input>  (283) 
W0NIM11PW0NAQF0xMltDQEhdM1tDQEhdNFtDSDJdW0NAXShbQ0gyXU8xKShbQ0gyXVtPSF0pW0NAQEhdNVtDQEBIXTZbQ0BIXShbQ0BAXShbT0hdKShbQ0gyXVtDSDJdNClbQ0BIXTJbQ0gyXTUpW0NASF03W0NASF0oW09IXSlbQ0BdKE82KShbQ0gyXVtPSF0pW0NAQEhdM1tDQEBIXTdbT0hd

>  <s_epik_cmdline>  (283) 
J2VwaWtfcHl0aG9uJywgJy1waHQnLCAnMi4wJywgJy1waCcsICc3LjAnLCAnLXRuJywgJzgnLCAnLW1hJywgJzIwMCcsICctaW1hZScsICc8aW5maWxlLm1hZT4nLCAnLW9tYWUnLCAnPG91dGZpbGUubWFlPic=

>  <r_lp_tautomer_probability>  (283) 
1

>  <r_epik_Ionization_Penalty>  (283) 
4.69647e-07

>  <r_epik_Ionization_Penalty_Charging>  (283) 
0

>  <r_epik_Ionization_Penalty_Neutral>  (283) 
4.69647e-07

>  <r_epik_State_Penalty>  (283) 
-0

>  <r_epik_Charging_Adjusted_Penalty>  (283) 
0

>  <i_epik_Tot_Q>  (283) 
0

>  <i_epik_Tot_abs_Q>  (283) 
0

>  <s_lp_Force_Field>  (283) 
OPLS3e

>  <r_lp_Energy>  (283) 
650.043

>  <b_lp_Chiralities_Consistent>  (283) 
1

>  <s_lp_Variant>  (283) 
107:0-1

>  <s_i_glide_gridfile>  (283) 
pfpi4k_grid

>  <i_i_glide_lignum>  (283) 
20

>  <i_i_glide_rotatable_bonds>  (283) 
8

>  <r_i_docking_score>  (283) 
-3.53753

>  <r_i_glide_ligand_efficiency>  (283) 
-0.117918

>  <r_i_glide_ligand_efficiency_sa>  (283) 
-0.366398

>  <r_i_glide_ligand_efficiency_ln>  (283) 
-0.803766

>  <r_i_glide_gscore>  (283) 
-3.53753

>  <r_i_glide_lipo>  (283) 
-0.0821316

>  <r_i_glide_hbond>  (283) 
-0.32

>  <r_i_glide_metal>  (283) 
-0

>  <r_i_glide_rewards>  (283) 
-1.51488

>  <r_i_glide_evdw>  (283) 
-18.2733

>  <r_i_glide_ecoul>  (283) 
-6.17966

>  <r_i_glide_erotb>  (283) 
0.22009

>  <r_i_glide_esite>  (283) 
0

>  <r_i_glide_emodel>  (283) 
-41.8336

>  <r_i_glide_energy>  (283) 
-24.453

>  <r_i_glide_einternal>  (283) 
1.27431

>  <r_i_glide_intrahb_reward>  (283) 
-1

>  <i_i_glide_confnum>  (283) 
4

>  <i_i_glide_posenum>  (283) 
20

>  <r_i_glide_eff_state_penalty>  (283) 
0

>  <ligand_id>  (283) 
107

>  <original_smiles>  (283) 
COC12OCC3(CO)CC4CCC5(O)C6C(OC7(CO)C(O)C6C(O)C7C41)C3CC52

>  <smiles>  (283) 
[H]OC([H])([H])C12OC3([H])C4([H])C([H])(C([H])(O[H])C1([H])C1([H])C5(OC([H])([H])[H])OC([H])([H])C6(C([H])([H])O[H])C([H])([H])C1([H])C([H])([H])C([H])([H])C4(O[H])C5([H])C([H])([H])C36[H])C2([H])O[H]

$$$$
107:0:1
     RDKit          3D

 62 68  0  0  1  0  0  0  0  0999 V2000
    3.8252    3.9438    5.0475 C   0  0  0  0  0  0  0  0  0  0  0  0
    3.3198    2.7959    5.7234 O   0  0  0  0  0  0  0  0  0  0  0  0
    1.9146    2.6330    5.7769 C   0  0  2  0  0  0  0  0  0  0  0  0
    1.2373    3.8711    5.9818 O   0  0  0  0  0  0  0  0  0  0  0  0
    0.3131    4.3468    4.9541 C   0  0  0  0  0  0  0  0  0  0  0  0
   -0.6339    3.1824    4.4000 C   0  0  2  0  0  0  0  0  0  0  0  0
   -1.9151    3.7827    3.7834 C   0  0  0  0  0  0  0  0  0  0  0  0
   -1.6615    4.8542    2.8904 O   0  0  0  0  0  0  0  0  0  0  0  0
   -0.9775    2.7598    6.0027 C   0  0  0  0  0  0  0  0  0  0  0  0
    0.0789    1.9325    7.0412 C   0  0  1  0  0  0  0  0  0  0  0  0
   -0.6327    0.7587    7.5884 C   0  0  0  0  0  0  0  0  0  0  0  0
   -0.9719    0.0249    6.3158 C   0  0  0  0  0  0  0  0  0  0  0  0
   -0.1668    0.4958    4.9620 C   0  0  2  0  0  0  0  0  0  0  0  0
   -1.5207    0.6417    4.3938 O   0  0  0  0  0  0  0  0  0  0  0  0
    0.0794   -0.6682    4.0932 C   0  0  1  0  0  0  0  0  0  0  0  0
    0.5759    0.3307    2.9732 C   0  0  2  0  0  0  0  0  0  0  0  0
    2.0293   -0.0261    3.0978 O   0  0  0  0  0  0  0  0  0  0  0  0
    2.7251   -0.5031    4.3631 C   0  0  2  0  0  0  0  0  0  0  0  0
    4.2429   -0.3799    4.0476 C   0  0  0  0  0  0  0  0  0  0  0  0
    4.7892    0.8689    4.4123 O   0  0  0  0  0  0  0  0  0  0  0  0
    2.2498   -1.9318    4.0971 C   0  0  1  0  0  0  0  0  0  0  0  0
    3.1255   -2.9642    4.5212 O   0  0  0  0  0  0  0  0  0  0  0  0
    0.9832   -1.7669    4.8791 C   0  0  1  0  0  0  0  0  0  0  0  0
    1.5388   -1.3431    6.3107 C   0  0  1  0  0  0  0  0  0  0  0  0
    2.3660   -2.3007    6.9529 O   0  0  0  0  0  0  0  0  0  0  0  0
    2.3018   -0.0516    5.9973 C   0  0  2  0  0  0  0  0  0  0  0  0
    1.6225    1.4711    6.6655 C   0  0  1  0  0  0  0  0  0  0  0  0
    0.1171    2.1053    3.1022 C   0  0  2  0  0  0  0  0  0  0  0  0
    1.4446    2.4978    3.3008 C   0  0  0  0  0  0  0  0  0  0  0  0
    1.2788    1.8155    4.6870 C   0  0  1  0  0  0  0  0  0  0  0  0
    4.9152    3.8830    5.0864 H   0  0  0  0  0  0  0  0  0  0  0  0
    3.5560    4.8750    5.5571 H   0  0  0  0  0  0  0  0  0  0  0  0
    3.5392    4.0104    3.9915 H   0  0  0  0  0  0  0  0  0  0  0  0
   -0.2957    5.1268    5.4224 H   0  0  0  0  0  0  0  0  0  0  0  0
    0.8312    4.9455    4.2181 H   0  0  0  0  0  0  0  0  0  0  0  0
   -2.4962    3.0031    3.2798 H   0  0  0  0  0  0  0  0  0  0  0  0
   -2.5512    4.1791    4.5834 H   0  0  0  0  0  0  0  0  0  0  0  0
   -1.0629    4.5570    2.1922 H   0  0  0  0  0  0  0  0  0  0  0  0
   -1.2206    3.6584    6.5729 H   0  0  0  0  0  0  0  0  0  0  0  0
   -1.9905    2.3336    6.0414 H   0  0  0  0  0  0  0  0  0  0  0  0
    0.2079    2.5993    7.8897 H   0  0  0  0  0  0  0  0  0  0  0  0
   -0.0083    0.2027    8.2936 H   0  0  0  0  0  0  0  0  0  0  0  0
   -1.5361    1.0691    8.1236 H   0  0  0  0  0  0  0  0  0  0  0  0
   -1.0027   -1.0536    6.4284 H   0  0  0  0  0  0  0  0  0  0  0  0
   -2.0636    0.1575    6.3446 H   0  0  0  0  0  0  0  0  0  0  0  0
   -1.4413    0.9507    3.4913 H   0  0  0  0  0  0  0  0  0  0  0  0
   -0.7726   -1.2527    3.7216 H   0  0  0  0  0  0  0  0  0  0  0  0
    0.2478   -0.0312    1.9991 H   0  0  0  0  0  0  0  0  0  0  0  0
    4.8218   -1.1133    4.6117 H   0  0  0  0  0  0  0  0  0  0  0  0
    4.4317   -0.5607    2.9818 H   0  0  0  0  0  0  0  0  0  0  0  0
    4.2899    1.5454    3.9761 H   0  0  0  0  0  0  0  0  0  0  0  0
    2.0317   -2.1608    3.0490 H   0  0  0  0  0  0  0  0  0  0  0  0
    3.8320   -3.0250    3.8994 H   0  0  0  0  0  0  0  0  0  0  0  0
    0.4389   -2.7138    4.9441 H   0  0  0  0  0  0  0  0  0  0  0  0
    0.8408   -1.2732    7.1188 H   0  0  0  0  0  0  0  0  0  0  0  0
    2.9564   -2.6281    6.2788 H   0  0  0  0  0  0  0  0  0  0  0  0
    3.2436   -0.1304    6.5453 H   0  0  0  0  0  0  0  0  0  0  0  0
    2.1824    1.6261    7.5912 H   0  0  0  0  0  0  0  0  0  0  0  0
   -0.1832    2.4568    2.1228 H   0  0  0  0  0  0  0  0  0  0  0  0
    2.1369    2.0852    2.5633 H   0  0  0  0  0  0  0  0  0  0  0  0
    1.6292    3.5480    3.1332 H   0  0  0  0  0  0  0  0  0  0  0  0
    2.2703    1.5946    4.4391 H   0  0  0  0  0  0  0  0  0  0  0  0
  1  2  1  0
  1 31  1  0
  1 32  1  0
  1 33  1  0
  3  2  1  6
  3 27  1  0
  3 30  1  0
  3  4  1  0
  4  5  1  0
  5  6  1  0
  5 34  1  0
  5 35  1  0
  6 28  1  0
  6  7  1  6
  6  9  1  0
  7  8  1  0
  7 36  1  0
  7 37  1  0
  8 38  1  0
  9 10  1  0
  9 39  1  0
  9 40  1  0
 10 27  1  0
 10 11  1  0
 10 41  1  1
 11 12  1  0
 11 42  1  0
 11 43  1  0
 12 13  1  0
 12 44  1  0
 12 45  1  0
 13 30  1  0
 13 14  1  6
 13 15  1  0
 14 46  1  0
 15 23  1  0
 15 16  1  0
 15 47  1  6
 16 17  1  0
 16 28  1  0
 16 48  1  6
 17 18  1  0
 18 26  1  0
 18 19  1  6
 18 21  1  0
 19 20  1  0
 19 49  1  0
 19 50  1  0
 20 51  1  0
 21 22  1  0
 21 23  1  0
 21 52  1  6
 22 53  1  0
 23 24  1  0
 23 54  1  1
 24 25  1  0
 24 26  1  0
 24 55  1  1
 25 56  1  0
 26 27  1  0
 26 57  1  1
 27 58  1  1
 28 29  1  0
 28 59  1  6
 29 30  1  0
 29 60  1  0
 29 61  1  0
 30 62  1  6
M  END
>  <i_m_ct_stereo_status>  (284) 
1

>  <s_m_source_file>  (284) 
/var/tmp/pbs.5076255.sched01/tmp3ug8vllb/105tp2mz_hs.sdf

>  <i_m_source_file_index>  (284) 
20

>  <i_lp_mmshare_version>  (284) 
48012

>  <i_f3d_flags>  (284) 
0

>  <s_epik_input>  (284) 
W0NIM11PW0NAQF0xMltDQEhdM1tDQEhdNFtDSDJdW0NAXShbQ0gyXU8xKShbQ0gyXVtPSF0pW0NAQEhdNVtDQEBIXTZbQ0BIXShbQ0BAXShbT0hdKShbQ0gyXVtDSDJdNClbQ0BIXTJbQ0gyXTUpW0NASF03W0NASF0oW09IXSlbQ0BdKE82KShbQ0gyXVtPSF0pW0NAQEhdM1tDQEBIXTdbT0hd

>  <s_epik_cmdline>  (284) 
J2VwaWtfcHl0aG9uJywgJy1waHQnLCAnMi4wJywgJy1waCcsICc3LjAnLCAnLXRuJywgJzgnLCAnLW1hJywgJzIwMCcsICctaW1hZScsICc8aW5maWxlLm1hZT4nLCAnLW9tYWUnLCAnPG91dGZpbGUubWFlPic=

>  <r_lp_tautomer_probability>  (284) 
1

>  <r_epik_Ionization_Penalty>  (284) 
4.69647e-07

>  <r_epik_Ionization_Penalty_Charging>  (284) 
0

>  <r_epik_Ionization_Penalty_Neutral>  (284) 
4.69647e-07

>  <r_epik_State_Penalty>  (284) 
-0

>  <r_epik_Charging_Adjusted_Penalty>  (284) 
0

>  <i_epik_Tot_Q>  (284) 
0

>  <i_epik_Tot_abs_Q>  (284) 
0

>  <s_lp_Force_Field>  (284) 
OPLS3e

>  <r_lp_Energy>  (284) 
650.043

>  <b_lp_Chiralities_Consistent>  (284) 
1

>  <s_lp_Variant>  (284) 
107:0-1

>  <s_i_glide_gridfile>  (284) 
pfpi4k_grid

>  <i_i_glide_lignum>  (284) 
20

>  <i_i_glide_rotatable_bonds>  (284) 
8

>  <r_i_docking_score>  (284) 
-3.21251

>  <r_i_glide_ligand_efficiency>  (284) 
-0.107084

>  <r_i_glide_ligand_efficiency_sa>  (284) 
-0.332734

>  <r_i_glide_ligand_efficiency_ln>  (284) 
-0.729917

>  <r_i_glide_gscore>  (284) 
-3.21251

>  <r_i_glide_lipo>  (284) 
-0.0220567

>  <r_i_glide_hbond>  (284) 
-0.32

>  <r_i_glide_metal>  (284) 
-0

>  <r_i_glide_rewards>  (284) 
-1.01488

>  <r_i_glide_evdw>  (284) 
-16.3236

>  <r_i_glide_ecoul>  (284) 
-8.39655

>  <r_i_glide_erotb>  (284) 
0.22009

>  <r_i_glide_esite>  (284) 
0

>  <r_i_glide_emodel>  (284) 
-34.2896

>  <r_i_glide_energy>  (284) 
-24.7202

>  <r_i_glide_einternal>  (284) 
4.89443

>  <r_i_glide_intrahb_reward>  (284) 
-0.5

>  <i_i_glide_confnum>  (284) 
5

>  <i_i_glide_posenum>  (284) 
22

>  <r_i_glide_eff_state_penalty>  (284) 
0

>  <ligand_id>  (284) 
107

>  <original_smiles>  (284) 
COC12OCC3(CO)CC4CCC5(O)C6C(OC7(CO)C(O)C6C(O)C7C41)C3CC52

>  <smiles>  (284) 
[H]OC([H])([H])C12OC3([H])C4([H])C([H])(C([H])(O[H])C1([H])C1([H])C5(OC([H])([H])[H])OC([H])([H])C6(C([H])([H])O[H])C([H])([H])C1([H])C([H])([H])C([H])([H])C4(O[H])C5([H])C([H])([H])C36[H])C2([H])O[H]

$$$$
107:0:2
     RDKit          3D

 62 68  0  0  1  0  0  0  0  0999 V2000
    3.2959    1.7142    7.9819 C   0  0  0  0  0  0  0  0  0  0  0  0
    3.2271    1.6056    6.5661 O   0  0  0  0  0  0  0  0  0  0  0  0
    1.9133    1.5955    6.0196 C   0  0  2  0  0  0  0  0  0  0  0  0
    1.1701    2.7503    6.4166 O   0  0  0  0  0  0  0  0  0  0  0  0
    0.7720    3.7394    5.4004 C   0  0  0  0  0  0  0  0  0  0  0  0
    0.1950    3.0263    4.1050 C   0  0  2  0  0  0  0  0  0  0  0  0
   -0.7055    4.0121    3.3099 C   0  0  0  0  0  0  0  0  0  0  0  0
   -1.7767    4.5402    4.0701 O   0  0  0  0  0  0  0  0  0  0  0  0
   -0.7843    2.0627    5.0829 C   0  0  0  0  0  0  0  0  0  0  0  0
   -0.2632    0.7510    5.9901 C   0  0  1  0  0  0  0  0  0  0  0  0
   -1.0834   -0.4229    5.6428 C   0  0  0  0  0  0  0  0  0  0  0  0
   -0.7833   -0.5296    4.1760 C   0  0  0  0  0  0  0  0  0  0  0  0
    0.4993    0.3144    3.6058 C   0  0  2  0  0  0  0  0  0  0  0  0
   -0.4621    0.8739    2.6380 O   0  0  0  0  0  0  0  0  0  0  0  0
    1.1669   -0.4345    2.5367 C   0  0  1  0  0  0  0  0  0  0  0  0
    2.0498    0.8456    2.2667 C   0  0  2  0  0  0  0  0  0  0  0  0
    3.3097    0.2289    2.8076 O   0  0  0  0  0  0  0  0  0  0  0  0
    3.3967   -0.8031    3.9219 C   0  0  2  0  0  0  0  0  0  0  0  0
    4.8607   -0.6943    4.4097 C   0  0  0  0  0  0  0  0  0  0  0  0
    5.2385   -1.7589    5.2573 O   0  0  0  0  0  0  0  0  0  0  0  0
    3.1664   -1.9173    2.8916 C   0  0  1  0  0  0  0  0  0  0  0  0
    3.8086   -3.1580    3.1530 O   0  0  0  0  0  0  0  0  0  0  0  0
    1.6727   -1.8837    3.0712 C   0  0  1  0  0  0  0  0  0  0  0  0
    1.5227   -2.1472    4.6297 C   0  0  1  0  0  0  0  0  0  0  0  0
    2.0227   -3.3918    5.0798 O   0  0  0  0  0  0  0  0  0  0  0  0
    2.2699   -0.9647    5.2446 C   0  0  2  0  0  0  0  0  0  0  0  0
    1.3017    0.2341    6.1355 C   0  0  1  0  0  0  0  0  0  0  0  0
    1.5023    2.4650    2.9491 C   0  0  2  0  0  0  0  0  0  0  0  0
    2.5976    2.5292    3.8250 C   0  0  0  0  0  0  0  0  0  0  0  0
    1.8491    1.3992    4.5515 C   0  0  1  0  0  0  0  0  0  0  0  0
    4.3450    1.7566    8.2879 H   0  0  0  0  0  0  0  0  0  0  0  0
    2.8515    0.8573    8.4920 H   0  0  0  0  0  0  0  0  0  0  0  0
    2.8136    2.6237    8.3459 H   0  0  0  0  0  0  0  0  0  0  0  0
    0.0015    4.3368    5.8897 H   0  0  0  0  0  0  0  0  0  0  0  0
    1.4866    4.5311    5.2011 H   0  0  0  0  0  0  0  0  0  0  0  0
   -0.1288    4.8502    2.9023 H   0  0  0  0  0  0  0  0  0  0  0  0
   -1.1653    3.4828    2.4824 H   0  0  0  0  0  0  0  0  0  0  0  0
   -2.2651    3.7895    4.3971 H   0  0  0  0  0  0  0  0  0  0  0  0
   -1.2882    2.6833    5.8226 H   0  0  0  0  0  0  0  0  0  0  0  0
   -1.6734    1.7990    4.5069 H   0  0  0  0  0  0  0  0  0  0  0  0
   -0.5398    1.0095    7.0093 H   0  0  0  0  0  0  0  0  0  0  0  0
   -0.8141   -1.2966    6.2334 H   0  0  0  0  0  0  0  0  0  0  0  0
   -2.1436   -0.2265    5.8076 H   0  0  0  0  0  0  0  0  0  0  0  0
   -0.8024   -1.5527    3.8110 H   0  0  0  0  0  0  0  0  0  0  0  0
   -1.7690   -0.2668    3.7689 H   0  0  0  0  0  0  0  0  0  0  0  0
    0.0001    1.3454    1.9542 H   0  0  0  0  0  0  0  0  0  0  0  0
    0.6002   -0.6781    1.6289 H   0  0  0  0  0  0  0  0  0  0  0  0
    2.2005    0.9534    1.2019 H   0  0  0  0  0  0  0  0  0  0  0  0
    5.5451   -0.6749    3.5579 H   0  0  0  0  0  0  0  0  0  0  0  0
    5.0022    0.2458    4.9474 H   0  0  0  0  0  0  0  0  0  0  0  0
    5.1510   -2.5634    4.7584 H   0  0  0  0  0  0  0  0  0  0  0  0
    3.4458   -1.6698    1.8612 H   0  0  0  0  0  0  0  0  0  0  0  0
    3.6041   -3.7509    2.4387 H   0  0  0  0  0  0  0  0  0  0  0  0
    1.1900   -2.6802    2.5009 H   0  0  0  0  0  0  0  0  0  0  0  0
    0.5434   -2.3077    5.0341 H   0  0  0  0  0  0  0  0  0  0  0  0
    2.8921   -3.4919    4.7002 H   0  0  0  0  0  0  0  0  0  0  0  0
    2.8609   -1.3890    6.0603 H   0  0  0  0  0  0  0  0  0  0  0  0
    1.3657   -0.0913    7.1746 H   0  0  0  0  0  0  0  0  0  0  0  0
    1.6493    3.2284    2.1806 H   0  0  0  0  0  0  0  0  0  0  0  0
    3.5400    2.3497    3.3184 H   0  0  0  0  0  0  0  0  0  0  0  0
    2.8508    3.4451    4.3398 H   0  0  0  0  0  0  0  0  0  0  0  0
    2.8549    1.1392    4.6503 H   0  0  0  0  0  0  0  0  0  0  0  0
  1  2  1  0
  1 31  1  0
  1 32  1  0
  1 33  1  0
  3  2  1  1
  3 27  1  0
  3 30  1  0
  3  4  1  0
  4  5  1  0
  5  6  1  0
  5 34  1  0
  5 35  1  0
  6 28  1  0
  6  7  1  6
  6  9  1  0
  7  8  1  0
  7 36  1  0
  7 37  1  0
  8 38  1  0
  9 10  1  0
  9 39  1  0
  9 40  1  0
 10 27  1  0
 10 11  1  0
 10 41  1  1
 11 12  1  0
 11 42  1  0
 11 43  1  0
 12 13  1  0
 12 44  1  0
 12 45  1  0
 13 30  1  0
 13 14  1  6
 13 15  1  0
 14 46  1  0
 15 23  1  0
 15 16  1  0
 15 47  1  6
 16 17  1  0
 16 28  1  0
 16 48  1  6
 17 18  1  0
 18 26  1  0
 18 19  1  1
 18 21  1  0
 19 20  1  0
 19 49  1  0
 19 50  1  0
 20 51  1  0
 21 22  1  0
 21 23  1  0
 21 52  1  6
 22 53  1  0
 23 24  1  0
 23 54  1  6
 24 25  1  0
 24 26  1  0
 24 55  1  1
 25 56  1  0
 26 27  1  0
 26 57  1  1
 27 58  1  1
 28 29  1  0
 28 59  1  6
 29 30  1  0
 29 60  1  0
 29 61  1  0
 30 62  1  1
M  END
>  <i_m_ct_stereo_status>  (285) 
1

>  <s_m_source_file>  (285) 
/var/tmp/pbs.5076255.sched01/tmp3ug8vllb/105tp2mz_hs.sdf

>  <i_m_source_file_index>  (285) 
20

>  <i_lp_mmshare_version>  (285) 
48012

>  <i_f3d_flags>  (285) 
0

>  <s_epik_input>  (285) 
W0NIM11PW0NAQF0xMltDQEhdM1tDQEhdNFtDSDJdW0NAXShbQ0gyXU8xKShbQ0gyXVtPSF0pW0NAQEhdNVtDQEBIXTZbQ0BIXShbQ0BAXShbT0hdKShbQ0gyXVtDSDJdNClbQ0BIXTJbQ0gyXTUpW0NASF03W0NASF0oW09IXSlbQ0BdKE82KShbQ0gyXVtPSF0pW0NAQEhdM1tDQEBIXTdbT0hd

>  <s_epik_cmdline>  (285) 
J2VwaWtfcHl0aG9uJywgJy1waHQnLCAnMi4wJywgJy1waCcsICc3LjAnLCAnLXRuJywgJzgnLCAnLW1hJywgJzIwMCcsICctaW1hZScsICc8aW5maWxlLm1hZT4nLCAnLW9tYWUnLCAnPG91dGZpbGUubWFlPic=

>  <r_lp_tautomer_probability>  (285) 
1

>  <r_epik_Ionization_Penalty>  (285) 
4.69647e-07

>  <r_epik_Ionization_Penalty_Charging>  (285) 
0

>  <r_epik_Ionization_Penalty_Neutral>  (285) 
4.69647e-07

>  <r_epik_State_Penalty>  (285) 
-0

>  <r_epik_Charging_Adjusted_Penalty>  (285) 
0

>  <i_epik_Tot_Q>  (285) 
0

>  <i_epik_Tot_abs_Q>  (285) 
0

>  <s_lp_Force_Field>  (285) 
OPLS3e

>  <r_lp_Energy>  (285) 
650.043

>  <b_lp_Chiralities_Consistent>  (285) 
1

>  <s_lp_Variant>  (285) 
107:0-1

>  <s_i_glide_gridfile>  (285) 
pfpi4k_grid

>  <i_i_glide_lignum>  (285) 
20

>  <i_i_glide_rotatable_bonds>  (285) 
8

>  <r_i_docking_score>  (285) 
-3.17393

>  <r_i_glide_ligand_efficiency>  (285) 
-0.105798

>  <r_i_glide_ligand_efficiency_sa>  (285) 
-0.328738

>  <r_i_glide_ligand_efficiency_ln>  (285) 
-0.721151

>  <r_i_glide_gscore>  (285) 
-3.17393

>  <r_i_glide_lipo>  (285) 
-0.0578939

>  <r_i_glide_hbond>  (285) 
-0.135115

>  <r_i_glide_metal>  (285) 
-0

>  <r_i_glide_rewards>  (285) 
-1.51488

>  <r_i_glide_evdw>  (285) 
-16.2905

>  <r_i_glide_ecoul>  (285) 
-5.8107

>  <r_i_glide_erotb>  (285) 
0.22009

>  <r_i_glide_esite>  (285) 
0

>  <r_i_glide_emodel>  (285) 
-37.9067

>  <r_i_glide_energy>  (285) 
-22.1012

>  <r_i_glide_einternal>  (285) 
3.08917

>  <r_i_glide_intrahb_reward>  (285) 
-1

>  <i_i_glide_confnum>  (285) 
1

>  <i_i_glide_posenum>  (285) 
24

>  <r_i_glide_eff_state_penalty>  (285) 
0

>  <ligand_id>  (285) 
107

>  <original_smiles>  (285) 
COC12OCC3(CO)CC4CCC5(O)C6C(OC7(CO)C(O)C6C(O)C7C41)C3CC52

>  <smiles>  (285) 
[H]OC([H])([H])C12OC3([H])C4([H])C([H])(C([H])(O[H])C1([H])C1([H])C5(OC([H])([H])[H])OC([H])([H])C6(C([H])([H])O[H])C([H])([H])C1([H])C([H])([H])C([H])([H])C4(O[H])C5([H])C([H])([H])C36[H])C2([H])O[H]

$$$$
108:0:0
     RDKit          3D

 80 86  0  0  1  0  0  0  0  0999 V2000
    3.6948    5.8661    3.7038 C   0  0  0  0  0  0  0  0  0  0  0  0
    2.1790    6.0831    3.6981 C   0  0  0  0  0  0  0  0  0  0  0  0
    1.3702    4.7981    3.4622 C   0  0  0  0  0  0  0  0  0  0  0  0
    1.0396    4.0308    4.7425 C   0  0  2  0  0  0  0  0  0  0  0  0
    0.4268    4.8466    5.7436 O   0  0  0  0  0  0  0  0  0  0  0  0
   -0.7197    4.2986    6.3752 C   0  0  1  0  0  0  0  0  0  0  0  0
   -1.5396    3.5981    5.2793 C   0  0  1  0  0  0  0  0  0  0  0  0
   -1.7612    4.3080    4.0751 O   0  0  0  0  0  0  0  0  0  0  0  0
   -0.7516    2.2755    5.2102 C   0  0  2  0  0  0  0  0  0  0  0  0
   -0.8652    1.8677    6.6971 C   0  0  0  0  0  0  0  0  0  0  0  0
   -2.3112    1.5416    7.1870 C   0  0  0  0  0  0  0  0  0  0  0  0
   -0.1134    0.5841    6.9481 C   0  0  0  0  0  0  0  0  0  0  0  0
   -0.3365    3.1603    7.3881 C   0  0  1  0  0  0  0  0  0  0  0  0
    1.1533    3.1778    7.9036 C   0  0  1  0  0  0  0  0  0  0  0  0
    1.2638    2.3234    9.0196 O   0  0  0  0  0  0  0  0  0  0  0  0
    2.3422    3.0094    6.8778 C   0  0  2  0  0  0  0  0  0  0  0  0
    1.9452    3.1446    5.4126 C   0  0  1  0  0  0  0  0  0  0  0  0
    0.7513    2.4917    4.7655 C   0  0  2  0  0  0  0  0  0  0  0  0
    1.3160    1.3507    3.8937 C   0  0  0  0  0  0  0  0  0  0  0  0
    2.8911    1.0089    3.7494 C   0  0  1  0  0  0  0  0  0  0  0  0
    3.9701    0.9529    4.9459 C   0  0  2  0  0  0  0  0  0  0  0  0
    3.7524   -0.1880    5.9443 C   0  0  2  0  0  0  0  0  0  0  0  0
    2.6644   -1.1961    5.5236 C   0  0  0  0  0  0  0  0  0  0  0  0
    2.6216   -1.5370    4.0110 C   0  0  0  0  0  0  0  0  0  0  0  0
    3.0028   -0.3907    3.0178 C   0  0  0  0  0  0  0  0  0  0  0  0
    2.0849   -0.4808    1.7739 C   0  0  0  0  0  0  0  0  0  0  0  0
    4.4335   -0.6737    2.4636 C   0  0  0  0  0  0  0  0  0  0  0  0
    3.6796    0.5122    7.3534 C   0  0  1  0  0  0  0  0  0  0  0  0
    2.8559   -0.1672    8.4725 C   0  0  0  0  0  0  0  0  0  0  0  0
    4.9507    0.1755    7.9052 O   0  0  0  0  0  0  0  0  0  0  0  0
    3.6685    2.1141    7.1524 C   0  0  2  0  0  0  0  0  0  0  0  0
    4.4047    2.8478    8.3206 C   0  0  0  0  0  0  0  0  0  0  0  0
    4.5117    2.1407    5.8278 C   0  0  1  0  0  0  0  0  0  0  0  0
    5.8920    1.9294    6.0761 O   0  0  0  0  0  0  0  0  0  0  0  0
    4.2268    6.8055    3.8502 H   0  0  0  0  0  0  0  0  0  0  0  0
    4.0214    5.4506    2.7499 H   0  0  0  0  0  0  0  0  0  0  0  0
    4.0065    5.1902    4.4967 H   0  0  0  0  0  0  0  0  0  0  0  0
    1.8682    6.5831    4.6162 H   0  0  0  0  0  0  0  0  0  0  0  0
    1.9317    6.7768    2.8980 H   0  0  0  0  0  0  0  0  0  0  0  0
    0.4420    5.0683    2.9632 H   0  0  0  0  0  0  0  0  0  0  0  0
    1.8886    4.1421    2.7603 H   0  0  0  0  0  0  0  0  0  0  0  0
   -1.2701    5.0937    6.8753 H   0  0  0  0  0  0  0  0  0  0  0  0
   -2.5558    3.4523    5.6307 H   0  0  0  0  0  0  0  0  0  0  0  0
   -0.9938    4.2168    3.5241 H   0  0  0  0  0  0  0  0  0  0  0  0
   -1.2474    1.5610    4.5494 H   0  0  0  0  0  0  0  0  0  0  0  0
   -2.2877    1.0304    8.1473 H   0  0  0  0  0  0  0  0  0  0  0  0
   -2.8297    0.8917    6.4817 H   0  0  0  0  0  0  0  0  0  0  0  0
   -2.9371    2.4170    7.3663 H   0  0  0  0  0  0  0  0  0  0  0  0
   -0.2111    0.2671    7.9852 H   0  0  0  0  0  0  0  0  0  0  0  0
    0.9246    0.7750    6.7244 H   0  0  0  0  0  0  0  0  0  0  0  0
   -0.4775   -0.2185    6.3059 H   0  0  0  0  0  0  0  0  0  0  0  0
   -0.9492    3.3305    8.2739 H   0  0  0  0  0  0  0  0  0  0  0  0
    1.2752    4.1700    8.3439 H   0  0  0  0  0  0  0  0  0  0  0  0
    0.6584    2.6084    9.6867 H   0  0  0  0  0  0  0  0  0  0  0  0
    2.7637    4.0097    6.9673 H   0  0  0  0  0  0  0  0  0  0  0  0
    2.7769    3.2902    4.7597 H   0  0  0  0  0  0  0  0  0  0  0  0
    0.7790    0.4457    4.1760 H   0  0  0  0  0  0  0  0  0  0  0  0
    0.9519    1.5939    2.8948 H   0  0  0  0  0  0  0  0  0  0  0  0
    3.2830    1.7600    3.0649 H   0  0  0  0  0  0  0  0  0  0  0  0
    4.8854    0.7242    4.4082 H   0  0  0  0  0  0  0  0  0  0  0  0
    4.6625   -0.7915    5.8830 H   0  0  0  0  0  0  0  0  0  0  0  0
    2.7870   -2.1194    6.0884 H   0  0  0  0  0  0  0  0  0  0  0  0
    1.6908   -0.8368    5.7946 H   0  0  0  0  0  0  0  0  0  0  0  0
    3.2557   -2.4048    3.8289 H   0  0  0  0  0  0  0  0  0  0  0  0
    1.6108   -1.8873    3.7914 H   0  0  0  0  0  0  0  0  0  0  0  0
    2.2633   -1.4055    1.2198 H   0  0  0  0  0  0  0  0  0  0  0  0
    2.2553    0.3517    1.0877 H   0  0  0  0  0  0  0  0  0  0  0  0
    1.0253   -0.4965    2.0340 H   0  0  0  0  0  0  0  0  0  0  0  0
    4.4288   -1.4707    1.7179 H   0  0  0  0  0  0  0  0  0  0  0  0
    5.1318   -1.0066    3.2334 H   0  0  0  0  0  0  0  0  0  0  0  0
    4.8578    0.2043    1.9748 H   0  0  0  0  0  0  0  0  0  0  0  0
    1.8018   -0.2311    8.2979 H   0  0  0  0  0  0  0  0  0  0  0  0
    2.9831    0.3497    9.4225 H   0  0  0  0  0  0  0  0  0  0  0  0
    3.1594   -1.2035    8.6287 H   0  0  0  0  0  0  0  0  0  0  0  0
    4.9642   -0.7544    8.0712 H   0  0  0  0  0  0  0  0  0  0  0  0
    5.4006    2.4666    8.5333 H   0  0  0  0  0  0  0  0  0  0  0  0
    3.8398    2.7816    9.2517 H   0  0  0  0  0  0  0  0  0  0  0  0
    4.5561    3.9054    8.1071 H   0  0  0  0  0  0  0  0  0  0  0  0
    4.5938    3.1104    5.3465 H   0  0  0  0  0  0  0  0  0  0  0  0
    5.9454    1.1475    6.6243 H   0  0  0  0  0  0  0  0  0  0  0  0
  1  2  1  0
  1 35  1  0
  1 36  1  0
  1 37  1  0
  2  3  1  0
  2 38  1  0
  2 39  1  0
  4  3  1  6
  3 40  1  0
  3 41  1  0
  4 17  1  0
  4 18  1  0
  4  5  1  0
  5  6  1  0
  6 13  1  0
  6  7  1  0
  6 42  1  1
  7  8  1  0
  7  9  1  0
  7 43  1  1
  8 44  1  0
  9 18  1  0
  9 10  1  0
  9 45  1  6
 10 11  1  0
 10 12  1  0
 10 13  1  0
 11 46  1  0
 11 47  1  0
 11 48  1  0
 12 49  1  0
 12 50  1  0
 12 51  1  0
 13 14  1  0
 13 52  1  1
 14 15  1  0
 14 16  1  0
 14 53  1  1
 15 54  1  0
 16 31  1  0
 16 17  1  0
 16 55  1  1
 17 18  1  0
 17 56  1  6
 18 19  1  6
 19 20  1  0
 19 57  1  0
 19 58  1  0
 20 25  1  0
 20 21  1  0
 20 59  1  6
 21 33  1  0
 21 22  1  0
 21 60  1  6
 22 23  1  0
 22 28  1  0
 22 61  1  1
 23 24  1  0
 23 62  1  0
 23 63  1  0
 24 25  1  0
 24 64  1  0
 24 65  1  0
 25 26  1  0
 25 27  1  0
 26 66  1  0
 26 67  1  0
 26 68  1  0
 27 69  1  0
 27 70  1  0
 27 71  1  0
 28 29  1  0
 28 30  1  1
 28 31  1  0
 29 72  1  0
 29 73  1  0
 29 74  1  0
 30 75  1  0
 31 32  1  1
 31 33  1  0
 32 76  1  0
 32 77  1  0
 32 78  1  0
 33 34  1  0
 33 79  1  6
 34 80  1  0
M  END
>  <i_m_ct_stereo_status>  (286) 
1

>  <s_m_source_file>  (286) 
/var/tmp/pbs.5076255.sched01/tmp3ug8vllb/105tp2mz_hs.sdf

>  <i_m_source_file_index>  (286) 
21

>  <i_lp_mmshare_version>  (286) 
48012

>  <i_f3d_flags>  (286) 
0

>  <s_epik_input>  (286) 
W0NIM11DMShbQ0gzXSlbQ0BIXTJbQ0BIXShbT0hdKVtDQEhdKE8zKVtDQEBIXTFbQ0BASF0oW09IXSlbQ0BIXShbQ0BASF00W0NAXTMoW0NAXTI0NSlbQ0gyXVtDSDJdW0NIM10pW0NAQF02KFtDSDNdKVtDQF0oW0NIM10pKFtPSF0pW0NAQEhdN1tDQEhdKFtDQEBIXTZbT0hdKVtDQEhdKFtDSDJdNSlDKFtDSDNdKShbQ0gzXSlbQ0gyXVtDSDJdNw==

>  <s_epik_cmdline>  (286) 
J2VwaWtfcHl0aG9uJywgJy1waHQnLCAnMi4wJywgJy1waCcsICc3LjAnLCAnLXRuJywgJzgnLCAnLW1hJywgJzIwMCcsICctaW1hZScsICc8aW5maWxlLm1hZT4nLCAnLW9tYWUnLCAnPG91dGZpbGUubWFlPic=

>  <r_lp_tautomer_probability>  (286) 
1

>  <r_epik_Ionization_Penalty>  (286) 
3.16199e-06

>  <r_epik_Ionization_Penalty_Charging>  (286) 
0

>  <r_epik_Ionization_Penalty_Neutral>  (286) 
3.16199e-06

>  <r_epik_State_Penalty>  (286) 
-0

>  <r_epik_Charging_Adjusted_Penalty>  (286) 
0

>  <i_epik_Tot_Q>  (286) 
0

>  <i_epik_Tot_abs_Q>  (286) 
0

>  <s_lp_Force_Field>  (286) 
OPLS3e

>  <r_lp_Energy>  (286) 
191.652

>  <b_lp_Chiralities_Consistent>  (286) 
1

>  <s_lp_Variant>  (286) 
108:0-1

>  <s_i_glide_gridfile>  (286) 
pfpi4k_grid

>  <i_i_glide_lignum>  (286) 
21

>  <i_i_glide_rotatable_bonds>  (286) 
6

>  <r_i_docking_score>  (286) 
-2.16123

>  <r_i_glide_ligand_efficiency>  (286) 
-0.0635657

>  <r_i_glide_ligand_efficiency_sa>  (286) 
-0.205928

>  <r_i_glide_ligand_efficiency_ln>  (286) 
-0.477477

>  <r_i_glide_gscore>  (286) 
-2.16123

>  <r_i_glide_lipo>  (286) 
-0.108464

>  <r_i_glide_hbond>  (286) 
0

>  <r_i_glide_metal>  (286) 
-0

>  <r_i_glide_rewards>  (286) 
-0.672687

>  <r_i_glide_evdw>  (286) 
-17.1264

>  <r_i_glide_ecoul>  (286) 
-4.0905

>  <r_i_glide_erotb>  (286) 
0.0898155

>  <r_i_glide_esite>  (286) 
0

>  <r_i_glide_emodel>  (286) 
-27.3313

>  <r_i_glide_energy>  (286) 
-21.2169

>  <r_i_glide_einternal>  (286) 
3.28744

>  <r_i_glide_intrahb_reward>  (286) 
-0.5

>  <i_i_glide_confnum>  (286) 
1

>  <i_i_glide_posenum>  (286) 
4

>  <r_i_glide_eff_state_penalty>  (286) 
0

>  <ligand_id>  (286) 
108

>  <original_smiles>  (286) 
CCCC12OC3C(O)C4C(C)(C)C3C(O)C3C1C42CC1C2C(CCC1(C)C)C(C)(O)C3(C)C2O

>  <smiles>  (286) 
[H]OC1([H])C2([H])C3([H])OC4(C([H])([H])C([H])([H])C([H])([H])[H])C5([H])C1([H])C1(C([H])([H])[H])C([H])(O[H])C6([H])C([H])(C([H])([H])C([H])([H])C(C([H])([H])[H])(C([H])([H])[H])C6([H])C([H])([H])C54C([H])(C3([H])O[H])C2(C([H])([H])[H])C([H])([H])[H])C1(O[H])C([H])([H])[H]

$$$$
109:0:0
     RDKit          3D

 61 65  0  0  1  0  0  0  0  0999 V2000
    2.2720   -7.1905    3.0535 C   0  0  0  0  0  0  0  0  0  0  0  0
    2.9206   -6.1703    3.6549 C   0  0  0  0  0  0  0  0  0  0  0  0
    2.5583   -5.6864    4.9919 C   0  0  0  0  0  0  0  0  0  0  0  0
    1.8227   -6.2439    5.8043 O   0  0  0  0  0  0  0  0  0  0  0  0
    3.2188   -4.5523    5.1919 O   0  0  0  0  0  0  0  0  0  0  0  0
    3.7454   -4.0320    3.9828 C   0  0  1  0  0  0  0  0  0  0  0  0
    4.8252   -2.9587    4.1599 C   0  0  0  0  0  0  0  0  0  0  0  0
    4.4318   -1.6122    3.4986 C   0  0  1  0  0  0  0  0  0  0  0  0
    4.5148   -0.5235    4.6146 C   0  0  0  0  0  0  0  0  0  0  0  0
    5.1267   -1.2815    2.1081 C   0  0  1  0  0  0  0  0  0  0  0  0
    5.6381   -0.0073    2.4011 O   0  0  0  0  0  0  0  0  0  0  0  0
    6.2256   -2.0861    1.4213 C   0  0  1  0  0  0  0  0  0  0  0  0
    6.3813   -3.6035    1.2856 C   0  0  0  0  0  0  0  0  0  0  0  0
    5.2462   -4.5428    0.7861 C   0  0  2  0  0  0  0  0  0  0  0  0
    5.1710   -4.6338   -0.7588 C   0  0  0  0  0  0  0  0  0  0  0  0
    4.8480   -3.4680   -1.7500 C   0  0  1  0  0  0  0  0  0  0  0  0
    6.0282   -2.5948   -2.2329 C   0  0  0  0  0  0  0  0  0  0  0  0
    4.6153   -4.1549   -2.9737 O   0  0  0  0  0  0  0  0  0  0  0  0
    3.6003   -2.7302   -1.2516 C   0  0  0  0  0  0  0  0  0  0  0  0
    2.3564   -3.0857   -2.0721 C   0  0  0  0  0  0  0  0  0  0  0  0
    3.5353   -2.2766    0.0327 C   0  0  0  0  0  0  0  0  0  0  0  0
    2.4280   -2.7832    0.9198 C   0  0  0  0  0  0  0  0  0  0  0  0
    2.5544   -4.3118    1.1906 C   0  0  1  0  0  0  0  0  0  0  0  0
    1.9733   -5.0854    0.1501 O   0  0  0  0  0  0  0  0  0  0  0  0
    3.9296   -4.9525    1.5817 C   0  0  2  0  0  0  0  0  0  0  0  0
    4.0337   -5.2782    3.1190 C   0  0  2  0  0  0  0  0  0  0  0  0
    5.3299   -6.0441    3.5029 C   0  0  0  0  0  0  0  0  0  0  0  0
    4.5356   -1.2678    0.6543 C   0  0  2  0  0  0  0  0  0  0  0  0
    5.8491   -1.5302    0.1614 O   0  0  0  0  0  0  0  0  0  0  0  0
    2.5205   -7.5268    2.0584 H   0  0  0  0  0  0  0  0  0  0  0  0
    1.4801   -7.7190    3.5651 H   0  0  0  0  0  0  0  0  0  0  0  0
    2.8685   -3.5329    3.5787 H   0  0  0  0  0  0  0  0  0  0  0  0
    4.9215   -2.8063    5.2353 H   0  0  0  0  0  0  0  0  0  0  0  0
    5.8128   -3.2827    3.8851 H   0  0  0  0  0  0  0  0  0  0  0  0
    3.3652   -1.5771    3.3616 H   0  0  0  0  0  0  0  0  0  0  0  0
    5.5354   -0.3569    4.9605 H   0  0  0  0  0  0  0  0  0  0  0  0
    3.9226   -0.8156    5.4800 H   0  0  0  0  0  0  0  0  0  0  0  0
    4.1054    0.4351    4.2929 H   0  0  0  0  0  0  0  0  0  0  0  0
    6.4944    0.0642    2.0021 H   0  0  0  0  0  0  0  0  0  0  0  0
    7.1818   -1.6413    1.6805 H   0  0  0  0  0  0  0  0  0  0  0  0
    7.2246   -3.7701    0.6132 H   0  0  0  0  0  0  0  0  0  0  0  0
    6.7842   -4.0076    2.1958 H   0  0  0  0  0  0  0  0  0  0  0  0
    5.7881   -5.4764    0.9548 H   0  0  0  0  0  0  0  0  0  0  0  0
    6.1924   -4.9361   -1.0166 H   0  0  0  0  0  0  0  0  0  0  0  0
    4.5509   -5.5004   -0.9952 H   0  0  0  0  0  0  0  0  0  0  0  0
    6.9147   -2.7152   -1.6071 H   0  0  0  0  0  0  0  0  0  0  0  0
    5.7380   -1.5432   -2.2508 H   0  0  0  0  0  0  0  0  0  0  0  0
    6.3694   -2.8235   -3.2449 H   0  0  0  0  0  0  0  0  0  0  0  0
    3.9645   -4.8359   -2.8221 H   0  0  0  0  0  0  0  0  0  0  0  0
    2.4294   -2.6279   -3.0576 H   0  0  0  0  0  0  0  0  0  0  0  0
    1.4491   -2.6999   -1.6476 H   0  0  0  0  0  0  0  0  0  0  0  0
    2.1841   -4.1466   -2.2071 H   0  0  0  0  0  0  0  0  0  0  0  0
    2.3620   -2.2095    1.8233 H   0  0  0  0  0  0  0  0  0  0  0  0
    1.4499   -2.5881    0.4801 H   0  0  0  0  0  0  0  0  0  0  0  0
    1.8362   -4.4971    1.9918 H   0  0  0  0  0  0  0  0  0  0  0  0
    2.5087   -5.0138   -0.6293 H   0  0  0  0  0  0  0  0  0  0  0  0
    3.8174   -5.9672    1.1939 H   0  0  0  0  0  0  0  0  0  0  0  0
    6.2302   -5.4415    3.5188 H   0  0  0  0  0  0  0  0  0  0  0  0
    5.4987   -6.8862    2.8277 H   0  0  0  0  0  0  0  0  0  0  0  0
    5.2585   -6.4660    4.5088 H   0  0  0  0  0  0  0  0  0  0  0  0
    4.2266   -0.2622    0.3673 H   0  0  0  0  0  0  0  0  0  0  0  0
  1  2  2  0
  1 30  1  0
  1 31  1  0
  2 26  1  0
  2  3  1  0
  3  4  2  0
  3  5  1  0
  5  6  1  0
  6 26  1  0
  6  7  1  0
  6 32  1  6
  7  8  1  0
  7 33  1  0
  7 34  1  0
  8  9  1  0
  8 10  1  0
  8 35  1  6
  9 36  1  0
  9 37  1  0
  9 38  1  0
 10 28  1  0
 10 11  1  1
 10 12  1  0
 11 39  1  0
 12 29  1  0
 12 13  1  0
 12 40  1  1
 13 14  1  0
 13 41  1  0
 13 42  1  0
 14 25  1  0
 14 15  1  0
 14 43  1  1
 15 16  1  0
 15 44  1  0
 15 45  1  0
 16 17  1  0
 16 18  1  6
 16 19  1  0
 17 46  1  0
 17 47  1  0
 17 48  1  0
 18 49  1  0
 19 20  1  0
 19 21  2  3
 20 50  1  0
 20 51  1  0
 20 52  1  0
 21 22  1  0
 21 28  1  0
 22 23  1  0
 22 53  1  0
 22 54  1  0
 23 24  1  0
 23 25  1  0
 23 55  1  1
 24 56  1  0
 25 26  1  0
 25 57  1  6
 26 27  1  6
 27 58  1  0
 27 59  1  0
 27 60  1  0
 28 29  1  0
 28 61  1  6
M  END
>  <i_m_ct_stereo_status>  (287) 
1

>  <s_m_source_file>  (287) 
/var/tmp/pbs.5076255.sched01/tmp3ug8vllb/105tp2mz_hs.sdf

>  <i_m_source_file_index>  (287) 
22

>  <i_lp_mmshare_version>  (287) 
48012

>  <i_f3d_flags>  (287) 
0

>  <s_epik_input>  (287) 
W0NIMl09QzFDKD1PKU9bQ0BASF0oW0NIMl1bQ0BIXTJbQ0gzXSlbQ0BdMShbQ0gzXSlbQ0BIXShbQ0BASF0zW0NIMl1bQ0BASF00W0NAXTI1W09IXSlbQ0BIXShbT0hdKVtDSDJdXEMoW0NAQEhdNU80KT1DKFtDSDNdKVxbQ0BdKFtDSDJdMykoW0NIM10pW09IXQ==

>  <s_epik_cmdline>  (287) 
J2VwaWtfcHl0aG9uJywgJy1waHQnLCAnMi4wJywgJy1waCcsICc3LjAnLCAnLXRuJywgJzgnLCAnLW1hJywgJzIwMCcsICctaW1hZScsICc8aW5maWxlLm1hZT4nLCAnLW9tYWUnLCAnPG91dGZpbGUubWFlPic=

>  <r_lp_tautomer_probability>  (287) 
1

>  <r_epik_Ionization_Penalty>  (287) 
1.67211e-07

>  <r_epik_Ionization_Penalty_Charging>  (287) 
0

>  <r_epik_Ionization_Penalty_Neutral>  (287) 
1.67211e-07

>  <r_epik_State_Penalty>  (287) 
-0

>  <r_epik_Charging_Adjusted_Penalty>  (287) 
0

>  <i_epik_Tot_Q>  (287) 
0

>  <i_epik_Tot_abs_Q>  (287) 
0

>  <s_epik_Chemistry_Notes>  (287) 
This compound has an ester and may undergo hydrolysis at high or low pH.

>  <s_lp_Force_Field>  (287) 
OPLS3e

>  <r_lp_Energy>  (287) 
153.778

>  <b_lp_Chiralities_Consistent>  (287) 
1

>  <s_lp_Variant>  (287) 
109:0-1

>  <s_i_glide_gridfile>  (287) 
pfpi4k_grid

>  <i_i_glide_lignum>  (287) 
22

>  <i_i_glide_rotatable_bonds>  (287) 
3

>  <r_i_docking_score>  (287) 
-4.09244

>  <r_i_glide_ligand_efficiency>  (287) 
-0.141119

>  <r_i_glide_ligand_efficiency_sa>  (287) 
-0.433561

>  <r_i_glide_ligand_efficiency_ln>  (287) 
-0.937065

>  <r_i_glide_gscore>  (287) 
-4.09244

>  <r_i_glide_lipo>  (287) 
-0.575095

>  <r_i_glide_hbond>  (287) 
-0.416184

>  <r_i_glide_metal>  (287) 
-0

>  <r_i_glide_rewards>  (287) 
-0.65116

>  <r_i_glide_evdw>  (287) 
-9.43634

>  <r_i_glide_ecoul>  (287) 
-13.1879

>  <r_i_glide_erotb>  (287) 
0

>  <r_i_glide_esite>  (287) 
0

>  <r_i_glide_emodel>  (287) 
-30.0693

>  <r_i_glide_energy>  (287) 
-22.6242

>  <r_i_glide_einternal>  (287) 
0.650126

>  <r_i_glide_intrahb_reward>  (287) 
-0

>  <i_i_glide_confnum>  (287) 
1

>  <i_i_glide_posenum>  (287) 
27

>  <r_i_glide_eff_state_penalty>  (287) 
0

>  <ligand_id>  (287) 
109

>  <original_smiles>  (287) 
C=C1C(=O)OC2CC(C)C3(O)C4CC5CC(C)(O)C(C)=C(CC(O)C5C12C)C3O4

>  <smiles>  (287) 
[H]OC1([H])C([H])([H])C2=C(C([H])([H])[H])C(O[H])(C([H])([H])[H])C([H])([H])C3([H])C([H])([H])C4([H])OC2([H])C4(O[H])C([H])(C([H])([H])[H])C([H])([H])C2([H])OC(=O)C(=C([H])[H])C2(C([H])([H])[H])C13[H]

$$$$
109:0:1
     RDKit          3D

 61 65  0  0  1  0  0  0  0  0999 V2000
    0.6230   -4.2987    4.4777 C   0  0  0  0  0  0  0  0  0  0  0  0
    1.7269   -5.0657    4.4547 C   0  0  0  0  0  0  0  0  0  0  0  0
    2.2536   -5.7053    5.6639 C   0  0  0  0  0  0  0  0  0  0  0  0
    1.6850   -5.8099    6.7482 O   0  0  0  0  0  0  0  0  0  0  0  0
    3.4546   -6.1910    5.3591 O   0  0  0  0  0  0  0  0  0  0  0  0
    3.9380   -5.6636    4.1342 C   0  0  1  0  0  0  0  0  0  0  0  0
    5.1072   -6.4445    3.5170 C   0  0  0  0  0  0  0  0  0  0  0  0
    6.3759   -5.5660    3.3389 C   0  0  1  0  0  0  0  0  0  0  0  0
    7.5365   -6.2793    4.0927 C   0  0  0  0  0  0  0  0  0  0  0  0
    6.7047   -5.0531    1.8757 C   0  0  1  0  0  0  0  0  0  0  0  0
    8.0755   -5.3939    1.7138 O   0  0  0  0  0  0  0  0  0  0  0  0
    5.9245   -5.4660    0.6225 C   0  0  1  0  0  0  0  0  0  0  0  0
    4.4118   -5.6294    0.3907 C   0  0  0  0  0  0  0  0  0  0  0  0
    3.3432   -4.5477    0.7757 C   0  0  2  0  0  0  0  0  0  0  0  0
    3.1200   -3.4531   -0.3313 C   0  0  0  0  0  0  0  0  0  0  0  0
    4.1955   -2.3861   -0.7343 C   0  0  1  0  0  0  0  0  0  0  0  0
    5.1690   -2.7751   -1.8832 C   0  0  0  0  0  0  0  0  0  0  0  0
    3.4154   -1.4089   -1.4161 O   0  0  0  0  0  0  0  0  0  0  0  0
    4.8423   -1.7888    0.5373 C   0  0  0  0  0  0  0  0  0  0  0  0
    4.3607   -0.3661    0.8475 C   0  0  0  0  0  0  0  0  0  0  0  0
    5.3957   -2.5762    1.5028 C   0  0  0  0  0  0  0  0  0  0  0  0
    4.8764   -2.4293    2.9117 C   0  0  0  0  0  0  0  0  0  0  0  0
    3.3868   -2.8756    3.0030 C   0  0  1  0  0  0  0  0  0  0  0  0
    2.5149   -1.8183    2.6536 O   0  0  0  0  0  0  0  0  0  0  0  0
    2.8971   -4.1982    2.2809 C   0  0  2  0  0  0  0  0  0  0  0  0
    2.6720   -5.3880    3.2976 C   0  0  2  0  0  0  0  0  0  0  0  0
    2.0383   -6.6570    2.6566 C   0  0  0  0  0  0  0  0  0  0  0  0
    6.5120   -3.6251    1.2524 C   0  0  2  0  0  0  0  0  0  0  0  0
    6.3260   -4.2512   -0.0219 O   0  0  0  0  0  0  0  0  0  0  0  0
    0.2515   -3.8061    3.5923 H   0  0  0  0  0  0  0  0  0  0  0  0
    0.0624   -4.1518    5.3899 H   0  0  0  0  0  0  0  0  0  0  0  0
    4.3317   -4.7082    4.4707 H   0  0  0  0  0  0  0  0  0  0  0  0
    5.3306   -7.2444    4.2242 H   0  0  0  0  0  0  0  0  0  0  0  0
    4.8513   -7.0022    2.6262 H   0  0  0  0  0  0  0  0  0  0  0  0
    6.2793   -4.7082    3.9802 H   0  0  0  0  0  0  0  0  0  0  0  0
    7.8080   -7.2318    3.6354 H   0  0  0  0  0  0  0  0  0  0  0  0
    7.2455   -6.4904    5.1220 H   0  0  0  0  0  0  0  0  0  0  0  0
    8.4326   -5.6602    4.1684 H   0  0  0  0  0  0  0  0  0  0  0  0
    8.1511   -6.3351    1.7769 H   0  0  0  0  0  0  0  0  0  0  0  0
    6.4508   -6.2977    0.1639 H   0  0  0  0  0  0  0  0  0  0  0  0
    4.2903   -5.7652   -0.6871 H   0  0  0  0  0  0  0  0  0  0  0  0
    4.1142   -6.6089    0.7325 H   0  0  0  0  0  0  0  0  0  0  0  0
    2.4778   -5.1590    0.5171 H   0  0  0  0  0  0  0  0  0  0  0  0
    2.8185   -3.9601   -1.2493 H   0  0  0  0  0  0  0  0  0  0  0  0
    2.2227   -2.9176   -0.0145 H   0  0  0  0  0  0  0  0  0  0  0  0
    5.1665   -3.8521   -2.0598 H   0  0  0  0  0  0  0  0  0  0  0  0
    6.1940   -2.4647   -1.6717 H   0  0  0  0  0  0  0  0  0  0  0  0
    4.9141   -2.3356   -2.8500 H   0  0  0  0  0  0  0  0  0  0  0  0
    2.5018   -1.4235   -1.1194 H   0  0  0  0  0  0  0  0  0  0  0  0
    4.7565    0.2962    0.0855 H   0  0  0  0  0  0  0  0  0  0  0  0
    4.7296    0.0375    1.7867 H   0  0  0  0  0  0  0  0  0  0  0  0
    3.2806   -0.2508    0.8240 H   0  0  0  0  0  0  0  0  0  0  0  0
    5.5022   -2.9530    3.6128 H   0  0  0  0  0  0  0  0  0  0  0  0
    4.9834   -1.4041    3.2557 H   0  0  0  0  0  0  0  0  0  0  0  0
    3.1889   -2.9479    4.0718 H   0  0  0  0  0  0  0  0  0  0  0  0
    2.6406   -1.6011    1.7402 H   0  0  0  0  0  0  0  0  0  0  0  0
    1.8576   -3.9487    2.0762 H   0  0  0  0  0  0  0  0  0  0  0  0
    2.7118   -7.2488    2.0496 H   0  0  0  0  0  0  0  0  0  0  0  0
    1.1703   -6.4017    2.0454 H   0  0  0  0  0  0  0  0  0  0  0  0
    1.6790   -7.3522    3.4189 H   0  0  0  0  0  0  0  0  0  0  0  0
    7.4634   -3.0941    1.2639 H   0  0  0  0  0  0  0  0  0  0  0  0
  1  2  2  0
  1 30  1  0
  1 31  1  0
  2 26  1  0
  2  3  1  0
  3  4  2  0
  3  5  1  0
  5  6  1  0
  6 26  1  0
  6  7  1  0
  6 32  1  1
  7  8  1  0
  7 33  1  0
  7 34  1  0
  8  9  1  0
  8 10  1  0
  8 35  1  1
  9 36  1  0
  9 37  1  0
  9 38  1  0
 10 28  1  0
 10 11  1  6
 10 12  1  0
 11 39  1  0
 12 29  1  0
 12 13  1  0
 12 40  1  6
 13 14  1  0
 13 41  1  0
 13 42  1  0
 14 25  1  0
 14 15  1  0
 14 43  1  6
 15 16  1  0
 15 44  1  0
 15 45  1  0
 16 17  1  0
 16 18  1  6
 16 19  1  0
 17 46  1  0
 17 47  1  0
 17 48  1  0
 18 49  1  0
 19 20  1  0
 19 21  2  3
 20 50  1  0
 20 51  1  0
 20 52  1  0
 21 22  1  0
 21 28  1  0
 22 23  1  0
 22 53  1  0
 22 54  1  0
 23 24  1  0
 23 25  1  0
 23 55  1  1
 24 56  1  0
 25 26  1  0
 25 57  1  6
 26 27  1  6
 27 58  1  0
 27 59  1  0
 27 60  1  0
 28 29  1  0
 28 61  1  6
M  END
>  <i_m_ct_stereo_status>  (288) 
1

>  <s_m_source_file>  (288) 
/var/tmp/pbs.5076255.sched01/tmp3ug8vllb/105tp2mz_hs.sdf

>  <i_m_source_file_index>  (288) 
22

>  <i_lp_mmshare_version>  (288) 
48012

>  <i_f3d_flags>  (288) 
0

>  <s_epik_input>  (288) 
W0NIMl09QzFDKD1PKU9bQ0BASF0oW0NIMl1bQ0BIXTJbQ0gzXSlbQ0BdMShbQ0gzXSlbQ0BIXShbQ0BASF0zW0NIMl1bQ0BASF00W0NAXTI1W09IXSlbQ0BIXShbT0hdKVtDSDJdXEMoW0NAQEhdNU80KT1DKFtDSDNdKVxbQ0BdKFtDSDJdMykoW0NIM10pW09IXQ==

>  <s_epik_cmdline>  (288) 
J2VwaWtfcHl0aG9uJywgJy1waHQnLCAnMi4wJywgJy1waCcsICc3LjAnLCAnLXRuJywgJzgnLCAnLW1hJywgJzIwMCcsICctaW1hZScsICc8aW5maWxlLm1hZT4nLCAnLW9tYWUnLCAnPG91dGZpbGUubWFlPic=

>  <r_lp_tautomer_probability>  (288) 
1

>  <r_epik_Ionization_Penalty>  (288) 
1.67211e-07

>  <r_epik_Ionization_Penalty_Charging>  (288) 
0

>  <r_epik_Ionization_Penalty_Neutral>  (288) 
1.67211e-07

>  <r_epik_State_Penalty>  (288) 
-0

>  <r_epik_Charging_Adjusted_Penalty>  (288) 
0

>  <i_epik_Tot_Q>  (288) 
0

>  <i_epik_Tot_abs_Q>  (288) 
0

>  <s_epik_Chemistry_Notes>  (288) 
This compound has an ester and may undergo hydrolysis at high or low pH.

>  <s_lp_Force_Field>  (288) 
OPLS3e

>  <r_lp_Energy>  (288) 
153.778

>  <b_lp_Chiralities_Consistent>  (288) 
1

>  <s_lp_Variant>  (288) 
109:0-1

>  <s_i_glide_gridfile>  (288) 
pfpi4k_grid

>  <i_i_glide_lignum>  (288) 
22

>  <i_i_glide_rotatable_bonds>  (288) 
3

>  <r_i_docking_score>  (288) 
-3.50242

>  <r_i_glide_ligand_efficiency>  (288) 
-0.120773

>  <r_i_glide_ligand_efficiency_sa>  (288) 
-0.371053

>  <r_i_glide_ligand_efficiency_ln>  (288) 
-0.801964

>  <r_i_glide_gscore>  (288) 
-3.50242

>  <r_i_glide_lipo>  (288) 
-0.70253

>  <r_i_glide_hbond>  (288) 
-0.16

>  <r_i_glide_metal>  (288) 
-0

>  <r_i_glide_rewards>  (288) 
-0.65116

>  <r_i_glide_evdw>  (288) 
-25.293

>  <r_i_glide_ecoul>  (288) 
-4.82716

>  <r_i_glide_erotb>  (288) 
0

>  <r_i_glide_esite>  (288) 
0

>  <r_i_glide_emodel>  (288) 
-36.4622

>  <r_i_glide_energy>  (288) 
-30.1202

>  <r_i_glide_einternal>  (288) 
0.757424

>  <r_i_glide_intrahb_reward>  (288) 
-0

>  <i_i_glide_confnum>  (288) 
2

>  <i_i_glide_posenum>  (288) 
8

>  <r_i_glide_eff_state_penalty>  (288) 
0

>  <ligand_id>  (288) 
109

>  <original_smiles>  (288) 
C=C1C(=O)OC2CC(C)C3(O)C4CC5CC(C)(O)C(C)=C(CC(O)C5C12C)C3O4

>  <smiles>  (288) 
[H]OC1([H])C([H])([H])C2=C(C([H])([H])[H])C(O[H])(C([H])([H])[H])C([H])([H])C3([H])C([H])([H])C4([H])OC2([H])C4(O[H])C([H])(C([H])([H])[H])C([H])([H])C2([H])OC(=O)C(=C([H])[H])C2(C([H])([H])[H])C13[H]

$$$$
109:0:2
     RDKit          3D

 61 65  0  0  1  0  0  0  0  0999 V2000
    2.2108   -7.3957    2.6753 C   0  0  0  0  0  0  0  0  0  0  0  0
    2.6874   -6.3924    3.4222 C   0  0  0  0  0  0  0  0  0  0  0  0
    2.0898   -6.0095    4.7088 C   0  0  0  0  0  0  0  0  0  0  0  0
    1.2802   -6.6602    5.3679 O   0  0  0  0  0  0  0  0  0  0  0  0
    2.6354   -4.8542    5.0707 O   0  0  0  0  0  0  0  0  0  0  0  0
    3.3081   -4.2237    3.9938 C   0  0  1  0  0  0  0  0  0  0  0  0
    4.2637   -3.0951    4.3955 C   0  0  0  0  0  0  0  0  0  0  0  0
    3.8632   -1.7371    3.7603 C   0  0  1  0  0  0  0  0  0  0  0  0
    3.7065   -0.7269    4.9343 C   0  0  0  0  0  0  0  0  0  0  0  0
    4.7253   -1.2764    2.5151 C   0  0  1  0  0  0  0  0  0  0  0  0
    5.1169    0.0032    2.9392 O   0  0  0  0  0  0  0  0  0  0  0  0
    5.9624   -1.9745    1.9671 C   0  0  1  0  0  0  0  0  0  0  0  0
    6.2413   -3.4671    1.7439 C   0  0  0  0  0  0  0  0  0  0  0  0
    5.2956   -4.4446    1.0094 C   0  0  2  0  0  0  0  0  0  0  0  0
    5.4993   -4.4442   -0.5359 C   0  0  0  0  0  0  0  0  0  0  0  0
    5.1972   -3.2345   -1.4781 C   0  0  1  0  0  0  0  0  0  0  0  0
    6.3753   -2.2614   -1.7103 C   0  0  0  0  0  0  0  0  0  0  0  0
    5.1359   -3.8494   -2.7596 O   0  0  0  0  0  0  0  0  0  0  0  0
    3.8540   -2.5918   -1.1102 C   0  0  0  0  0  0  0  0  0  0  0  0
    2.7556   -2.9477   -2.1282 C   0  0  0  0  0  0  0  0  0  0  0  0
    3.5809   -2.2324    0.1713 C   0  0  0  0  0  0  0  0  0  0  0  0
    2.4096   -2.8459    0.8532 C   0  0  0  0  0  0  0  0  0  0  0  0
    2.5696   -4.3757    1.0502 C   0  0  1  0  0  0  0  0  0  0  0  0
    2.1408   -5.0818   -0.0945 O   0  0  0  0  0  0  0  0  0  0  0  0
    3.9092   -4.9790    1.5869 C   0  0  2  0  0  0  0  0  0  0  0  0
    3.8051   -5.3914    3.1124 C   0  0  2  0  0  0  0  0  0  0  0  0
    5.0749   -6.1026    3.6548 C   0  0  0  0  0  0  0  0  0  0  0  0
    4.3872   -1.1980    0.9868 C   0  0  2  0  0  0  0  0  0  0  0  0
    5.7671   -1.3678    0.6947 O   0  0  0  0  0  0  0  0  0  0  0  0
    2.6308   -7.6574    1.7129 H   0  0  0  0  0  0  0  0  0  0  0  0
    1.3906   -8.0098    3.0265 H   0  0  0  0  0  0  0  0  0  0  0  0
    2.4673   -3.7597    3.4883 H   0  0  0  0  0  0  0  0  0  0  0  0
    4.1838   -3.0192    5.4796 H   0  0  0  0  0  0  0  0  0  0  0  0
    5.3113   -3.3371    4.2683 H   0  0  0  0  0  0  0  0  0  0  0  0
    2.8280   -1.7747    3.4691 H   0  0  0  0  0  0  0  0  0  0  0  0
    4.6524   -0.5257    5.4371 H   0  0  0  0  0  0  0  0  0  0  0  0
    3.0178   -1.1120    5.6842 H   0  0  0  0  0  0  0  0  0  0  0  0
    3.2845    0.2235    4.6122 H   0  0  0  0  0  0  0  0  0  0  0  0
    4.3853    0.5825    2.7932 H   0  0  0  0  0  0  0  0  0  0  0  0
    6.8062   -1.4786    2.4362 H   0  0  0  0  0  0  0  0  0  0  0  0
    7.2005   -3.5236    1.2277 H   0  0  0  0  0  0  0  0  0  0  0  0
    6.4925   -3.9308    2.6714 H   0  0  0  0  0  0  0  0  0  0  0  0
    5.8754   -5.3451    1.2255 H   0  0  0  0  0  0  0  0  0  0  0  0
    6.5589   -4.6442   -0.6751 H   0  0  0  0  0  0  0  0  0  0  0  0
    4.9754   -5.3299   -0.9024 H   0  0  0  0  0  0  0  0  0  0  0  0
    7.1572   -2.3655   -0.9521 H   0  0  0  0  0  0  0  0  0  0  0  0
    6.0206   -1.2281   -1.7164 H   0  0  0  0  0  0  0  0  0  0  0  0
    6.8931   -2.4271   -2.6583 H   0  0  0  0  0  0  0  0  0  0  0  0
    4.4798   -4.5268   -2.7350 H   0  0  0  0  0  0  0  0  0  0  0  0
    2.9574   -2.4263   -3.0665 H   0  0  0  0  0  0  0  0  0  0  0  0
    1.7605   -2.6508   -1.8272 H   0  0  0  0  0  0  0  0  0  0  0  0
    2.6813   -3.9989   -2.3583 H   0  0  0  0  0  0  0  0  0  0  0  0
    2.1198   -2.3343    1.7508 H   0  0  0  0  0  0  0  0  0  0  0  0
    1.5419   -2.6616    0.2383 H   0  0  0  0  0  0  0  0  0  0  0  0
    1.7671   -4.6612    1.7292 H   0  0  0  0  0  0  0  0  0  0  0  0
    2.7664   -4.9681   -0.7960 H   0  0  0  0  0  0  0  0  0  0  0  0
    3.9148   -5.9676    1.1297 H   0  0  0  0  0  0  0  0  0  0  0  0
    5.9191   -5.4542    3.8525 H   0  0  0  0  0  0  0  0  0  0  0  0
    5.4066   -6.8880    2.9721 H   0  0  0  0  0  0  0  0  0  0  0  0
    4.8818   -6.5913    4.6126 H   0  0  0  0  0  0  0  0  0  0  0  0
    4.0523   -0.2013    0.6997 H   0  0  0  0  0  0  0  0  0  0  0  0
  1  2  2  0
  1 30  1  0
  1 31  1  0
  2 26  1  0
  2  3  1  0
  3  4  2  0
  3  5  1  0
  5  6  1  0
  6 26  1  0
  6  7  1  0
  6 32  1  6
  7  8  1  0
  7 33  1  0
  7 34  1  0
  8  9  1  0
  8 10  1  0
  8 35  1  6
  9 36  1  0
  9 37  1  0
  9 38  1  0
 10 28  1  0
 10 11  1  1
 10 12  1  0
 11 39  1  0
 12 29  1  0
 12 13  1  0
 12 40  1  1
 13 14  1  0
 13 41  1  0
 13 42  1  0
 14 25  1  0
 14 15  1  0
 14 43  1  1
 15 16  1  0
 15 44  1  0
 15 45  1  0
 16 17  1  0
 16 18  1  6
 16 19  1  0
 17 46  1  0
 17 47  1  0
 17 48  1  0
 18 49  1  0
 19 20  1  0
 19 21  2  3
 20 50  1  0
 20 51  1  0
 20 52  1  0
 21 22  1  0
 21 28  1  0
 22 23  1  0
 22 53  1  0
 22 54  1  0
 23 24  1  0
 23 25  1  0
 23 55  1  1
 24 56  1  0
 25 26  1  0
 25 57  1  6
 26 27  1  1
 27 58  1  0
 27 59  1  0
 27 60  1  0
 28 29  1  0
 28 61  1  1
M  END
>  <i_m_ct_stereo_status>  (289) 
1

>  <s_m_source_file>  (289) 
/var/tmp/pbs.5076255.sched01/tmp3ug8vllb/105tp2mz_hs.sdf

>  <i_m_source_file_index>  (289) 
22

>  <i_lp_mmshare_version>  (289) 
48012

>  <i_f3d_flags>  (289) 
0

>  <s_epik_input>  (289) 
W0NIMl09QzFDKD1PKU9bQ0BASF0oW0NIMl1bQ0BIXTJbQ0gzXSlbQ0BdMShbQ0gzXSlbQ0BIXShbQ0BASF0zW0NIMl1bQ0BASF00W0NAXTI1W09IXSlbQ0BIXShbT0hdKVtDSDJdXEMoW0NAQEhdNU80KT1DKFtDSDNdKVxbQ0BdKFtDSDJdMykoW0NIM10pW09IXQ==

>  <s_epik_cmdline>  (289) 
J2VwaWtfcHl0aG9uJywgJy1waHQnLCAnMi4wJywgJy1waCcsICc3LjAnLCAnLXRuJywgJzgnLCAnLW1hJywgJzIwMCcsICctaW1hZScsICc8aW5maWxlLm1hZT4nLCAnLW9tYWUnLCAnPG91dGZpbGUubWFlPic=

>  <r_lp_tautomer_probability>  (289) 
1

>  <r_epik_Ionization_Penalty>  (289) 
1.67211e-07

>  <r_epik_Ionization_Penalty_Charging>  (289) 
0

>  <r_epik_Ionization_Penalty_Neutral>  (289) 
1.67211e-07

>  <r_epik_State_Penalty>  (289) 
-0

>  <r_epik_Charging_Adjusted_Penalty>  (289) 
0

>  <i_epik_Tot_Q>  (289) 
0

>  <i_epik_Tot_abs_Q>  (289) 
0

>  <s_epik_Chemistry_Notes>  (289) 
This compound has an ester and may undergo hydrolysis at high or low pH.

>  <s_lp_Force_Field>  (289) 
OPLS3e

>  <r_lp_Energy>  (289) 
153.778

>  <b_lp_Chiralities_Consistent>  (289) 
1

>  <s_lp_Variant>  (289) 
109:0-1

>  <s_i_glide_gridfile>  (289) 
pfpi4k_grid

>  <i_i_glide_lignum>  (289) 
22

>  <i_i_glide_rotatable_bonds>  (289) 
3

>  <r_i_docking_score>  (289) 
-3.34185

>  <r_i_glide_ligand_efficiency>  (289) 
-0.115236

>  <r_i_glide_ligand_efficiency_sa>  (289) 
-0.354043

>  <r_i_glide_ligand_efficiency_ln>  (289) 
-0.7652

>  <r_i_glide_gscore>  (289) 
-3.34185

>  <r_i_glide_lipo>  (289) 
-0.415759

>  <r_i_glide_hbond>  (289) 
-0.339282

>  <r_i_glide_metal>  (289) 
-0

>  <r_i_glide_rewards>  (289) 
-0.65116

>  <r_i_glide_evdw>  (289) 
-15.8971

>  <r_i_glide_ecoul>  (289) 
-7.60458

>  <r_i_glide_erotb>  (289) 
0

>  <r_i_glide_esite>  (289) 
-0.000109797

>  <r_i_glide_emodel>  (289) 
-29.6241

>  <r_i_glide_energy>  (289) 
-23.5017

>  <r_i_glide_einternal>  (289) 
0.345468

>  <r_i_glide_intrahb_reward>  (289) 
-0

>  <i_i_glide_confnum>  (289) 
1

>  <i_i_glide_posenum>  (289) 
2

>  <r_i_glide_eff_state_penalty>  (289) 
0

>  <ligand_id>  (289) 
109

>  <original_smiles>  (289) 
C=C1C(=O)OC2CC(C)C3(O)C4CC5CC(C)(O)C(C)=C(CC(O)C5C12C)C3O4

>  <smiles>  (289) 
[H]OC1([H])C([H])([H])C2=C(C([H])([H])[H])C(O[H])(C([H])([H])[H])C([H])([H])C3([H])C([H])([H])C4([H])OC2([H])C4(O[H])C([H])(C([H])([H])[H])C([H])([H])C2([H])OC(=O)C(=C([H])[H])C2(C([H])([H])[H])C13[H]

$$$$
109:1:0
     RDKit          3D

 61 65  0  0  1  0  0  0  0  0999 V2000
    3.2787   -7.8044    1.5519 C   0  0  0  0  0  0  0  0  0  0  0  0
    4.0799   -7.0126    2.2784 C   0  0  0  0  0  0  0  0  0  0  0  0
    4.2134   -7.1530    3.7282 C   0  0  0  0  0  0  0  0  0  0  0  0
    3.8919   -8.1263    4.4141 O   0  0  0  0  0  0  0  0  0  0  0  0
    4.8328   -6.0573    4.1688 O   0  0  0  0  0  0  0  0  0  0  0  0
    4.7236   -5.0457    3.1926 C   0  0  1  0  0  0  0  0  0  0  0  0
    5.5084   -3.7649    3.3909 C   0  0  0  0  0  0  0  0  0  0  0  0
    4.6742   -2.5373    3.0202 C   0  0  1  0  0  0  0  0  0  0  0  0
    3.9666   -1.9355    4.2516 C   0  0  0  0  0  0  0  0  0  0  0  0
    5.2844   -1.5383    2.0118 C   0  0  1  0  0  0  0  0  0  0  0  0
    5.8046   -0.5670    2.8808 O   0  0  0  0  0  0  0  0  0  0  0  0
    6.3315   -1.9126    0.9551 C   0  0  1  0  0  0  0  0  0  0  0  0
    6.5032   -3.2176    0.1364 C   0  0  0  0  0  0  0  0  0  0  0  0
    5.3725   -4.2049   -0.3537 C   0  0  2  0  0  0  0  0  0  0  0  0
    4.9351   -4.0270   -1.8559 C   0  0  0  0  0  0  0  0  0  0  0  0
    3.7884   -3.0683   -2.3215 C   0  0  1  0  0  0  0  0  0  0  0  0
    3.8995   -2.8751   -3.8538 C   0  0  0  0  0  0  0  0  0  0  0  0
    2.4957   -3.6023   -2.2291 O   0  0  0  0  0  0  0  0  0  0  0  0
    3.9129   -1.8216   -1.4859 C   0  0  0  0  0  0  0  0  0  0  0  0
    4.5906   -0.6968   -2.2264 C   0  0  0  0  0  0  0  0  0  0  0  0
    3.7275   -1.8610   -0.1350 C   0  0  0  0  0  0  0  0  0  0  0  0
    2.6876   -2.8054    0.5018 C   0  0  0  0  0  0  0  0  0  0  0  0
    2.9294   -4.3376    0.7557 C   0  0  1  0  0  0  0  0  0  0  0  0
    1.9567   -5.1384    0.0990 O   0  0  0  0  0  0  0  0  0  0  0  0
    4.3358   -4.9789    0.5728 C   0  0  2  0  0  0  0  0  0  0  0  0
    4.8742   -5.7854    1.8462 C   0  0  2  0  0  0  0  0  0  0  0  0
    6.2962   -6.3601    1.5983 C   0  0  0  0  0  0  0  0  0  0  0  0
    4.5414   -0.9462    0.7836 C   0  0  2  0  0  0  0  0  0  0  0  0
    5.8421   -0.8277    0.1365 O   0  0  0  0  0  0  0  0  0  0  0  0
    3.1789   -7.6420    0.4963 H   0  0  0  0  0  0  0  0  0  0  0  0
    2.7295   -8.6217    1.9985 H   0  0  0  0  0  0  0  0  0  0  0  0
    3.6925   -4.7681    3.3603 H   0  0  0  0  0  0  0  0  0  0  0  0
    5.8328   -3.6895    4.4272 H   0  0  0  0  0  0  0  0  0  0  0  0
    6.3725   -3.8559    2.7520 H   0  0  0  0  0  0  0  0  0  0  0  0
    3.8526   -2.9516    2.5283 H   0  0  0  0  0  0  0  0  0  0  0  0
    4.6661   -1.5309    4.9839 H   0  0  0  0  0  0  0  0  0  0  0  0
    3.3991   -2.7188    4.7550 H   0  0  0  0  0  0  0  0  0  0  0  0
    3.2695   -1.1501    3.9594 H   0  0  0  0  0  0  0  0  0  0  0  0
    6.5113   -0.1365    2.4213 H   0  0  0  0  0  0  0  0  0  0  0  0
    7.2944   -1.6053    1.3252 H   0  0  0  0  0  0  0  0  0  0  0  0
    7.0940   -2.9690   -0.7538 H   0  0  0  0  0  0  0  0  0  0  0  0
    7.2205   -3.8088    0.6922 H   0  0  0  0  0  0  0  0  0  0  0  0
    6.0307   -5.0386   -0.5526 H   0  0  0  0  0  0  0  0  0  0  0  0
    5.8344   -3.7419   -2.4083 H   0  0  0  0  0  0  0  0  0  0  0  0
    4.7215   -5.0140   -2.2496 H   0  0  0  0  0  0  0  0  0  0  0  0
    4.8635   -2.4557   -4.1303 H   0  0  0  0  0  0  0  0  0  0  0  0
    3.1198   -2.2194   -4.2462 H   0  0  0  0  0  0  0  0  0  0  0  0
    3.8170   -3.8289   -4.3786 H   0  0  0  0  0  0  0  0  0  0  0  0
    2.5679   -4.4912   -2.5715 H   0  0  0  0  0  0  0  0  0  0  0  0
    4.0495   -0.4142   -3.1193 H   0  0  0  0  0  0  0  0  0  0  0  0
    5.6113   -0.9597   -2.4534 H   0  0  0  0  0  0  0  0  0  0  0  0
    4.5828    0.1445   -1.5869 H   0  0  0  0  0  0  0  0  0  0  0  0
    2.2820   -2.3153    1.3893 H   0  0  0  0  0  0  0  0  0  0  0  0
    1.8264   -2.7383   -0.1444 H   0  0  0  0  0  0  0  0  0  0  0  0
    2.5818   -4.4959    1.7720 H   0  0  0  0  0  0  0  0  0  0  0  0
    2.1724   -5.1454   -0.8314 H   0  0  0  0  0  0  0  0  0  0  0  0
    4.1261   -5.8039   -0.1076 H   0  0  0  0  0  0  0  0  0  0  0  0
    7.0956   -5.6260    1.6234 H   0  0  0  0  0  0  0  0  0  0  0  0
    6.3460   -6.8850    0.6415 H   0  0  0  0  0  0  0  0  0  0  0  0
    6.5830   -7.1003    2.3506 H   0  0  0  0  0  0  0  0  0  0  0  0
    4.0746    0.0245    0.9844 H   0  0  0  0  0  0  0  0  0  0  0  0
  1  2  2  0
  1 30  1  0
  1 31  1  0
  2 26  1  0
  2  3  1  0
  3  4  2  0
  3  5  1  0
  5  6  1  0
  6 26  1  0
  6  7  1  0
  6 32  1  6
  7  8  1  0
  7 33  1  0
  7 34  1  0
  8  9  1  0
  8 10  1  0
  8 35  1  6
  9 36  1  0
  9 37  1  0
  9 38  1  0
 10 28  1  0
 10 11  1  1
 10 12  1  0
 11 39  1  0
 12 29  1  0
 12 13  1  0
 12 40  1  1
 13 14  1  0
 13 41  1  0
 13 42  1  0
 14 25  1  0
 14 15  1  0
 14 43  1  6
 15 16  1  0
 15 44  1  0
 15 45  1  0
 16 17  1  0
 16 18  1  6
 16 19  1  0
 17 46  1  0
 17 47  1  0
 17 48  1  0
 18 49  1  0
 19 20  1  0
 19 21  2  3
 20 50  1  0
 20 51  1  0
 20 52  1  0
 21 22  1  0
 21 28  1  0
 22 23  1  0
 22 53  1  0
 22 54  1  0
 23 24  1  0
 23 25  1  0
 23 55  1  1
 24 56  1  0
 25 26  1  0
 25 57  1  6
 26 27  1  6
 27 58  1  0
 27 59  1  0
 27 60  1  0
 28 29  1  0
 28 61  1  1
M  END
>  <i_m_ct_stereo_status>  (290) 
1

>  <s_m_source_file>  (290) 
/var/tmp/pbs.5076255.sched01/tmp3ug8vllb/105tp2mz_hs.sdf

>  <i_m_source_file_index>  (290) 
23

>  <i_lp_mmshare_version>  (290) 
48012

>  <i_f3d_flags>  (290) 
0

>  <s_epik_input>  (290) 
W0NIMl09QzFDKD1PKU9bQ0BASF0oW0NIMl1bQ0BIXTJbQ0gzXSlbQ0BdMShbQ0gzXSlbQ0BIXShbQ0BASF0zW0NIMl1bQ0BASF00W0NAXTI1W09IXSlbQ0BIXShbT0hdKVtDSDJdXEMoW0NAQEhdNU80KT1DKFtDSDNdKVxbQ0BdKFtDSDJdMykoW0NIM10pW09IXQ==

>  <s_epik_cmdline>  (290) 
J2VwaWtfcHl0aG9uJywgJy1waHQnLCAnMi4wJywgJy1waCcsICc3LjAnLCAnLXRuJywgJzgnLCAnLW1hJywgJzIwMCcsICctaW1hZScsICc8aW5maWxlLm1hZT4nLCAnLW9tYWUnLCAnPG91dGZpbGUubWFlPic=

>  <r_lp_tautomer_probability>  (290) 
1

>  <r_epik_Ionization_Penalty>  (290) 
1.67211e-07

>  <r_epik_Ionization_Penalty_Charging>  (290) 
0

>  <r_epik_Ionization_Penalty_Neutral>  (290) 
1.67211e-07

>  <r_epik_State_Penalty>  (290) 
-0

>  <r_epik_Charging_Adjusted_Penalty>  (290) 
0

>  <i_epik_Tot_Q>  (290) 
0

>  <i_epik_Tot_abs_Q>  (290) 
0

>  <s_epik_Chemistry_Notes>  (290) 
This compound has an ester and may undergo hydrolysis at high or low pH.

>  <s_lp_Force_Field>  (290) 
OPLS3e

>  <r_lp_Energy>  (290) 
137.41

>  <b_lp_Chiralities_Consistent>  (290) 
1

>  <s_lp_Variant>  (290) 
109:0-2

>  <s_i_glide_gridfile>  (290) 
pfpi4k_grid

>  <i_i_glide_lignum>  (290) 
23

>  <i_i_glide_rotatable_bonds>  (290) 
3

>  <r_i_docking_score>  (290) 
-3.74801

>  <r_i_glide_ligand_efficiency>  (290) 
-0.129242

>  <r_i_glide_ligand_efficiency_sa>  (290) 
-0.397072

>  <r_i_glide_ligand_efficiency_ln>  (290) 
-0.858199

>  <r_i_glide_gscore>  (290) 
-3.74801

>  <r_i_glide_lipo>  (290) 
-0.741664

>  <r_i_glide_hbond>  (290) 
0

>  <r_i_glide_metal>  (290) 
-0

>  <r_i_glide_rewards>  (290) 
-0.65116

>  <r_i_glide_evdw>  (290) 
-20.2911

>  <r_i_glide_ecoul>  (290) 
-8.93755

>  <r_i_glide_erotb>  (290) 
0

>  <r_i_glide_esite>  (290) 
0

>  <r_i_glide_emodel>  (290) 
-33.4177

>  <r_i_glide_energy>  (290) 
-29.2286

>  <r_i_glide_einternal>  (290) 
0.976994

>  <r_i_glide_intrahb_reward>  (290) 
-0

>  <i_i_glide_confnum>  (290) 
2

>  <i_i_glide_posenum>  (290) 
39

>  <r_i_glide_eff_state_penalty>  (290) 
0

>  <ligand_id>  (290) 
109

>  <original_smiles>  (290) 
C=C1C(=O)OC2CC(C)C3(O)C4CC5CC(C)(O)C(C)=C(CC(O)C5C12C)C3O4

>  <smiles>  (290) 
[H]OC1([H])C([H])([H])C2=C(C([H])([H])[H])C(O[H])(C([H])([H])[H])C([H])([H])C3([H])C([H])([H])C4([H])OC2([H])C4(O[H])C([H])(C([H])([H])[H])C([H])([H])C2([H])OC(=O)C(=C([H])[H])C2(C([H])([H])[H])C13[H]

$$$$
109:1:1
     RDKit          3D

 61 65  0  0  1  0  0  0  0  0999 V2000
    3.2431   -7.8020    1.5632 C   0  0  0  0  0  0  0  0  0  0  0  0
    4.0529   -7.0288    2.2836 C   0  0  0  0  0  0  0  0  0  0  0  0
    4.2171   -7.1946    3.7366 C   0  0  0  0  0  0  0  0  0  0  0  0
    3.9007   -8.1768    4.4098 O   0  0  0  0  0  0  0  0  0  0  0  0
    4.8266   -6.1018    4.1848 O   0  0  0  0  0  0  0  0  0  0  0  0
    4.7076   -5.0881    3.2116 C   0  0  1  0  0  0  0  0  0  0  0  0
    5.5155   -3.8236    3.3922 C   0  0  0  0  0  0  0  0  0  0  0  0
    4.6768   -2.5917    3.0640 C   0  0  1  0  0  0  0  0  0  0  0  0
    4.0242   -1.9726    4.3169 C   0  0  0  0  0  0  0  0  0  0  0  0
    5.2882   -1.5882    2.0531 C   0  0  1  0  0  0  0  0  0  0  0  0
    5.8186   -0.6273    2.9299 O   0  0  0  0  0  0  0  0  0  0  0  0
    6.3316   -1.9403    0.9804 C   0  0  1  0  0  0  0  0  0  0  0  0
    6.4836   -3.2331    0.1273 C   0  0  0  0  0  0  0  0  0  0  0  0
    5.3369   -4.2192   -0.3533 C   0  0  2  0  0  0  0  0  0  0  0  0
    4.8422   -4.0189   -1.8381 C   0  0  0  0  0  0  0  0  0  0  0  0
    3.6849   -3.0363   -2.2596 C   0  0  1  0  0  0  0  0  0  0  0  0
    3.7993   -2.8224   -3.7834 C   0  0  0  0  0  0  0  0  0  0  0  0
    2.3364   -3.4367   -2.1523 O   0  0  0  0  0  0  0  0  0  0  0  0
    3.8916   -1.8039   -1.4229 C   0  0  0  0  0  0  0  0  0  0  0  0
    4.5860   -0.6863   -2.1549 C   0  0  0  0  0  0  0  0  0  0  0  0
    3.6940   -1.8424   -0.0747 C   0  0  0  0  0  0  0  0  0  0  0  0
    2.6895   -2.7904    0.5996 C   0  0  0  0  0  0  0  0  0  0  0  0
    2.9200   -4.3315    0.7955 C   0  0  1  0  0  0  0  0  0  0  0  0
    1.9596   -5.0940    0.0754 O   0  0  0  0  0  0  0  0  0  0  0  0
    4.3209   -4.9857    0.5943 C   0  0  2  0  0  0  0  0  0  0  0  0
    4.8598   -5.8100    1.8558 C   0  0  2  0  0  0  0  0  0  0  0  0
    6.2699   -6.3918    1.5743 C   0  0  0  0  0  0  0  0  0  0  0  0
    4.5503   -0.9631    0.8440 C   0  0  2  0  0  0  0  0  0  0  0  0
    5.8418   -0.8315    0.2035 O   0  0  0  0  0  0  0  0  0  0  0  0
    3.1275   -7.6073    0.5148 H   0  0  0  0  0  0  0  0  0  0  0  0
    2.6907   -8.6210    2.0072 H   0  0  0  0  0  0  0  0  0  0  0  0
    3.6740   -4.7981    3.3821 H   0  0  0  0  0  0  0  0  0  0  0  0
    5.8732   -3.7548    4.4197 H   0  0  0  0  0  0  0  0  0  0  0  0
    6.3544   -3.9132    2.7143 H   0  0  0  0  0  0  0  0  0  0  0  0
    3.8266   -2.9878    2.6048 H   0  0  0  0  0  0  0  0  0  0  0  0
    4.7420   -1.5784    5.0393 H   0  0  0  0  0  0  0  0  0  0  0  0
    3.4560   -2.7519    4.8252 H   0  0  0  0  0  0  0  0  0  0  0  0
    3.3333   -1.1719    4.0472 H   0  0  0  0  0  0  0  0  0  0  0  0
    6.5684   -0.2583    2.4949 H   0  0  0  0  0  0  0  0  0  0  0  0
    7.3077   -1.6452    1.3575 H   0  0  0  0  0  0  0  0  0  0  0  0
    7.0682   -2.9907   -0.7659 H   0  0  0  0  0  0  0  0  0  0  0  0
    7.2057   -3.8384    0.6681 H   0  0  0  0  0  0  0  0  0  0  0  0
    5.9929   -5.0550   -0.5615 H   0  0  0  0  0  0  0  0  0  0  0  0
    5.7439   -3.7018   -2.3762 H   0  0  0  0  0  0  0  0  0  0  0  0
    4.6188   -4.9995   -2.2246 H   0  0  0  0  0  0  0  0  0  0  0  0
    4.7644   -2.4150   -4.0700 H   0  0  0  0  0  0  0  0  0  0  0  0
    3.0266   -2.1512   -4.1552 H   0  0  0  0  0  0  0  0  0  0  0  0
    3.6943   -3.7762   -4.2993 H   0  0  0  0  0  0  0  0  0  0  0  0
    1.8177   -2.6511   -1.9520 H   0  0  0  0  0  0  0  0  0  0  0  0
    4.0110   -0.3995   -3.0282 H   0  0  0  0  0  0  0  0  0  0  0  0
    5.5864   -0.9833   -2.4347 H   0  0  0  0  0  0  0  0  0  0  0  0
    4.5794    0.1620   -1.4947 H   0  0  0  0  0  0  0  0  0  0  0  0
    2.3253   -2.3097    1.5092 H   0  0  0  0  0  0  0  0  0  0  0  0
    1.8310   -2.6858   -0.0243 H   0  0  0  0  0  0  0  0  0  0  0  0
    2.5670   -4.5254    1.8094 H   0  0  0  0  0  0  0  0  0  0  0  0
    2.1770   -5.0239   -0.8602 H   0  0  0  0  0  0  0  0  0  0  0  0
    4.0970   -5.7991   -0.0949 H   0  0  0  0  0  0  0  0  0  0  0  0
    7.0694   -5.6551    1.5889 H   0  0  0  0  0  0  0  0  0  0  0  0
    6.2830   -6.8997    0.6084 H   0  0  0  0  0  0  0  0  0  0  0  0
    6.5539   -7.1387    2.3168 H   0  0  0  0  0  0  0  0  0  0  0  0
    4.1256    0.0214    1.0663 H   0  0  0  0  0  0  0  0  0  0  0  0
  1  2  2  0
  1 30  1  0
  1 31  1  0
  2 26  1  0
  2  3  1  0
  3  4  2  0
  3  5  1  0
  5  6  1  0
  6 26  1  0
  6  7  1  0
  6 32  1  6
  7  8  1  0
  7 33  1  0
  7 34  1  0
  8  9  1  0
  8 10  1  0
  8 35  1  6
  9 36  1  0
  9 37  1  0
  9 38  1  0
 10 28  1  0
 10 11  1  1
 10 12  1  0
 11 39  1  0
 12 29  1  0
 12 13  1  0
 12 40  1  1
 13 14  1  0
 13 41  1  0
 13 42  1  0
 14 25  1  0
 14 15  1  0
 14 43  1  6
 15 16  1  0
 15 44  1  0
 15 45  1  0
 16 17  1  0
 16 18  1  6
 16 19  1  0
 17 46  1  0
 17 47  1  0
 17 48  1  0
 18 49  1  0
 19 20  1  0
 19 21  2  3
 20 50  1  0
 20 51  1  0
 20 52  1  0
 21 22  1  0
 21 28  1  0
 22 23  1  0
 22 53  1  0
 22 54  1  0
 23 24  1  0
 23 25  1  0
 23 55  1  1
 24 56  1  0
 25 26  1  0
 25 57  1  6
 26 27  1  6
 27 58  1  0
 27 59  1  0
 27 60  1  0
 28 29  1  0
 28 61  1  1
M  END
>  <i_m_ct_stereo_status>  (291) 
1

>  <s_m_source_file>  (291) 
/var/tmp/pbs.5076255.sched01/tmp3ug8vllb/105tp2mz_hs.sdf

>  <i_m_source_file_index>  (291) 
23

>  <i_lp_mmshare_version>  (291) 
48012

>  <i_f3d_flags>  (291) 
0

>  <s_epik_input>  (291) 
W0NIMl09QzFDKD1PKU9bQ0BASF0oW0NIMl1bQ0BIXTJbQ0gzXSlbQ0BdMShbQ0gzXSlbQ0BIXShbQ0BASF0zW0NIMl1bQ0BASF00W0NAXTI1W09IXSlbQ0BIXShbT0hdKVtDSDJdXEMoW0NAQEhdNU80KT1DKFtDSDNdKVxbQ0BdKFtDSDJdMykoW0NIM10pW09IXQ==

>  <s_epik_cmdline>  (291) 
J2VwaWtfcHl0aG9uJywgJy1waHQnLCAnMi4wJywgJy1waCcsICc3LjAnLCAnLXRuJywgJzgnLCAnLW1hJywgJzIwMCcsICctaW1hZScsICc8aW5maWxlLm1hZT4nLCAnLW9tYWUnLCAnPG91dGZpbGUubWFlPic=

>  <r_lp_tautomer_probability>  (291) 
1

>  <r_epik_Ionization_Penalty>  (291) 
1.67211e-07

>  <r_epik_Ionization_Penalty_Charging>  (291) 
0

>  <r_epik_Ionization_Penalty_Neutral>  (291) 
1.67211e-07

>  <r_epik_State_Penalty>  (291) 
-0

>  <r_epik_Charging_Adjusted_Penalty>  (291) 
0

>  <i_epik_Tot_Q>  (291) 
0

>  <i_epik_Tot_abs_Q>  (291) 
0

>  <s_epik_Chemistry_Notes>  (291) 
This compound has an ester and may undergo hydrolysis at high or low pH.

>  <s_lp_Force_Field>  (291) 
OPLS3e

>  <r_lp_Energy>  (291) 
137.41

>  <b_lp_Chiralities_Consistent>  (291) 
1

>  <s_lp_Variant>  (291) 
109:0-2

>  <s_i_glide_gridfile>  (291) 
pfpi4k_grid

>  <i_i_glide_lignum>  (291) 
23

>  <i_i_glide_rotatable_bonds>  (291) 
3

>  <r_i_docking_score>  (291) 
-3.72307

>  <r_i_glide_ligand_efficiency>  (291) 
-0.128382

>  <r_i_glide_ligand_efficiency_sa>  (291) 
-0.394429

>  <r_i_glide_ligand_efficiency_ln>  (291) 
-0.852488

>  <r_i_glide_gscore>  (291) 
-3.72307

>  <r_i_glide_lipo>  (291) 
-0.779387

>  <r_i_glide_hbond>  (291) 
0

>  <r_i_glide_metal>  (291) 
-0

>  <r_i_glide_rewards>  (291) 
-1.15116

>  <r_i_glide_evdw>  (291) 
-23.3295

>  <r_i_glide_ecoul>  (291) 
-4.17363

>  <r_i_glide_erotb>  (291) 
0

>  <r_i_glide_esite>  (291) 
0

>  <r_i_glide_emodel>  (291) 
-35.6341

>  <r_i_glide_energy>  (291) 
-27.5031

>  <r_i_glide_einternal>  (291) 
1.58278

>  <r_i_glide_intrahb_reward>  (291) 
-0.5

>  <i_i_glide_confnum>  (291) 
1

>  <i_i_glide_posenum>  (291) 
26

>  <r_i_glide_eff_state_penalty>  (291) 
0

>  <ligand_id>  (291) 
109

>  <original_smiles>  (291) 
C=C1C(=O)OC2CC(C)C3(O)C4CC5CC(C)(O)C(C)=C(CC(O)C5C12C)C3O4

>  <smiles>  (291) 
[H]OC1([H])C([H])([H])C2=C(C([H])([H])[H])C(O[H])(C([H])([H])[H])C([H])([H])C3([H])C([H])([H])C4([H])OC2([H])C4(O[H])C([H])(C([H])([H])[H])C([H])([H])C2([H])OC(=O)C(=C([H])[H])C2(C([H])([H])[H])C13[H]

$$$$
109:1:2
     RDKit          3D

 61 65  0  0  1  0  0  0  0  0999 V2000
    3.4267   -7.7717    1.5803 C   0  0  0  0  0  0  0  0  0  0  0  0
    4.2138   -6.9532    2.2763 C   0  0  0  0  0  0  0  0  0  0  0  0
    4.3984   -7.0848    3.7297 C   0  0  0  0  0  0  0  0  0  0  0  0
    4.1500   -8.0644    4.4278 O   0  0  0  0  0  0  0  0  0  0  0  0
    4.9868   -5.9587    4.1469 O   0  0  0  0  0  0  0  0  0  0  0  0
    4.7980   -4.9599    3.1727 C   0  0  1  0  0  0  0  0  0  0  0  0
    5.5369   -3.6447    3.3251 C   0  0  0  0  0  0  0  0  0  0  0  0
    4.6446   -2.4527    3.0019 C   0  0  1  0  0  0  0  0  0  0  0  0
    3.9713   -1.8732    4.2586 C   0  0  0  0  0  0  0  0  0  0  0  0
    5.2021   -1.4385    1.9857 C   0  0  1  0  0  0  0  0  0  0  0  0
    5.7303   -0.4498    2.8429 O   0  0  0  0  0  0  0  0  0  0  0  0
    6.2442   -1.7649    0.9077 C   0  0  1  0  0  0  0  0  0  0  0  0
    6.4308   -3.0662    0.0648 C   0  0  0  0  0  0  0  0  0  0  0  0
    5.3258   -4.1091   -0.3987 C   0  0  2  0  0  0  0  0  0  0  0  0
    4.8034   -3.9594   -1.8840 C   0  0  0  0  0  0  0  0  0  0  0  0
    3.6087   -3.0431   -2.3095 C   0  0  1  0  0  0  0  0  0  0  0  0
    3.6742   -2.8470   -3.8448 C   0  0  0  0  0  0  0  0  0  0  0  0
    2.3130   -3.5737   -2.1561 O   0  0  0  0  0  0  0  0  0  0  0  0
    3.7573   -1.7867   -1.4851 C   0  0  0  0  0  0  0  0  0  0  0  0
    4.3762   -0.6644   -2.2691 C   0  0  0  0  0  0  0  0  0  0  0  0
    3.6020   -1.8270   -0.1273 C   0  0  0  0  0  0  0  0  0  0  0  0
    2.6316   -2.7889    0.5605 C   0  0  0  0  0  0  0  0  0  0  0  0
    2.9259   -4.3182    0.7885 C   0  0  1  0  0  0  0  0  0  0  0  0
    1.9827   -5.1528    0.1220 O   0  0  0  0  0  0  0  0  0  0  0  0
    4.3557   -4.9152    0.5689 C   0  0  2  0  0  0  0  0  0  0  0  0
    4.9569   -5.6998    1.8301 C   0  0  2  0  0  0  0  0  0  0  0  0
    6.3894   -6.2126    1.5349 C   0  0  0  0  0  0  0  0  0  0  0  0
    4.4133   -0.8720    0.7744 C   0  0  2  0  0  0  0  0  0  0  0  0
    5.7002   -0.6898    0.1015 O   0  0  0  0  0  0  0  0  0  0  0  0
    3.2908   -7.6329    0.5214 H   0  0  0  0  0  0  0  0  0  0  0  0
    2.9290   -8.6107    2.0482 H   0  0  0  0  0  0  0  0  0  0  0  0
    3.7574   -4.7221    3.3686 H   0  0  0  0  0  0  0  0  0  0  0  0
    5.9073   -3.5581    4.3456 H   0  0  0  0  0  0  0  0  0  0  0  0
    6.3713   -3.6868    2.6404 H   0  0  0  0  0  0  0  0  0  0  0  0
    3.8147   -2.8996    2.5499 H   0  0  0  0  0  0  0  0  0  0  0  0
    4.6797   -1.4361    4.9622 H   0  0  0  0  0  0  0  0  0  0  0  0
    3.4472   -2.6707    4.7867 H   0  0  0  0  0  0  0  0  0  0  0  0
    3.2413   -1.1122    3.9906 H   0  0  0  0  0  0  0  0  0  0  0  0
    6.5340   -0.1467    2.4580 H   0  0  0  0  0  0  0  0  0  0  0  0
    7.2063   -1.4453    1.2743 H   0  0  0  0  0  0  0  0  0  0  0  0
    6.9786   -2.7977   -0.8457 H   0  0  0  0  0  0  0  0  0  0  0  0
    7.1890   -3.6290    0.5854 H   0  0  0  0  0  0  0  0  0  0  0  0
    6.0155   -4.9132   -0.6182 H   0  0  0  0  0  0  0  0  0  0  0  0
    5.6743   -3.6251   -2.4492 H   0  0  0  0  0  0  0  0  0  0  0  0
    4.6358   -4.9547   -2.2599 H   0  0  0  0  0  0  0  0  0  0  0  0
    4.6082   -2.3962   -4.1635 H   0  0  0  0  0  0  0  0  0  0  0  0
    2.8639   -2.2189   -4.2114 H   0  0  0  0  0  0  0  0  0  0  0  0
    3.6094   -3.8112   -4.3463 H   0  0  0  0  0  0  0  0  0  0  0  0
    1.6866   -3.0120   -2.6168 H   0  0  0  0  0  0  0  0  0  0  0  0
    3.7681   -0.4065   -3.1354 H   0  0  0  0  0  0  0  0  0  0  0  0
    5.4032   -0.8639   -2.5698 H   0  0  0  0  0  0  0  0  0  0  0  0
    4.3302    0.1737   -1.6147 H   0  0  0  0  0  0  0  0  0  0  0  0
    2.2379   -2.3248    1.4744 H   0  0  0  0  0  0  0  0  0  0  0  0
    1.7404   -2.7532   -0.0437 H   0  0  0  0  0  0  0  0  0  0  0  0
    2.6071   -4.5163    1.8119 H   0  0  0  0  0  0  0  0  0  0  0  0
    2.1773   -5.0979   -0.8192 H   0  0  0  0  0  0  0  0  0  0  0  0
    4.1619   -5.7541   -0.1071 H   0  0  0  0  0  0  0  0  0  0  0  0
    7.1530   -5.4439    1.5344 H   0  0  0  0  0  0  0  0  0  0  0  0
    6.4285   -6.7248    0.5723 H   0  0  0  0  0  0  0  0  0  0  0  0
    6.7272   -6.9372    2.2744 H   0  0  0  0  0  0  0  0  0  0  0  0
    3.9139    0.0898    0.9795 H   0  0  0  0  0  0  0  0  0  0  0  0
  1  2  2  0
  1 30  1  0
  1 31  1  0
  2 26  1  0
  2  3  1  0
  3  4  2  0
  3  5  1  0
  5  6  1  0
  6 26  1  0
  6  7  1  0
  6 32  1  6
  7  8  1  0
  7 33  1  0
  7 34  1  0
  8  9  1  0
  8 10  1  0
  8 35  1  6
  9 36  1  0
  9 37  1  0
  9 38  1  0
 10 28  1  0
 10 11  1  1
 10 12  1  0
 11 39  1  0
 12 29  1  0
 12 13  1  0
 12 40  1  1
 13 14  1  0
 13 41  1  0
 13 42  1  0
 14 25  1  0
 14 15  1  0
 14 43  1  6
 15 16  1  0
 15 44  1  0
 15 45  1  0
 16 17  1  0
 16 18  1  6
 16 19  1  0
 17 46  1  0
 17 47  1  0
 17 48  1  0
 18 49  1  0
 19 20  1  0
 19 21  2  3
 20 50  1  0
 20 51  1  0
 20 52  1  0
 21 22  1  0
 21 28  1  0
 22 23  1  0
 22 53  1  0
 22 54  1  0
 23 24  1  0
 23 25  1  0
 23 55  1  1
 24 56  1  0
 25 26  1  0
 25 57  1  6
 26 27  1  6
 27 58  1  0
 27 59  1  0
 27 60  1  0
 28 29  1  0
 28 61  1  1
M  END
>  <i_m_ct_stereo_status>  (292) 
1

>  <s_m_source_file>  (292) 
/var/tmp/pbs.5076255.sched01/tmp3ug8vllb/105tp2mz_hs.sdf

>  <i_m_source_file_index>  (292) 
23

>  <i_lp_mmshare_version>  (292) 
48012

>  <i_f3d_flags>  (292) 
0

>  <s_epik_input>  (292) 
W0NIMl09QzFDKD1PKU9bQ0BASF0oW0NIMl1bQ0BIXTJbQ0gzXSlbQ0BdMShbQ0gzXSlbQ0BIXShbQ0BASF0zW0NIMl1bQ0BASF00W0NAXTI1W09IXSlbQ0BIXShbT0hdKVtDSDJdXEMoW0NAQEhdNU80KT1DKFtDSDNdKVxbQ0BdKFtDSDJdMykoW0NIM10pW09IXQ==

>  <s_epik_cmdline>  (292) 
J2VwaWtfcHl0aG9uJywgJy1waHQnLCAnMi4wJywgJy1waCcsICc3LjAnLCAnLXRuJywgJzgnLCAnLW1hJywgJzIwMCcsICctaW1hZScsICc8aW5maWxlLm1hZT4nLCAnLW9tYWUnLCAnPG91dGZpbGUubWFlPic=

>  <r_lp_tautomer_probability>  (292) 
1

>  <r_epik_Ionization_Penalty>  (292) 
1.67211e-07

>  <r_epik_Ionization_Penalty_Charging>  (292) 
0

>  <r_epik_Ionization_Penalty_Neutral>  (292) 
1.67211e-07

>  <r_epik_State_Penalty>  (292) 
-0

>  <r_epik_Charging_Adjusted_Penalty>  (292) 
0

>  <i_epik_Tot_Q>  (292) 
0

>  <i_epik_Tot_abs_Q>  (292) 
0

>  <s_epik_Chemistry_Notes>  (292) 
This compound has an ester and may undergo hydrolysis at high or low pH.

>  <s_lp_Force_Field>  (292) 
OPLS3e

>  <r_lp_Energy>  (292) 
137.41

>  <b_lp_Chiralities_Consistent>  (292) 
1

>  <s_lp_Variant>  (292) 
109:0-2

>  <s_i_glide_gridfile>  (292) 
pfpi4k_grid

>  <i_i_glide_lignum>  (292) 
23

>  <i_i_glide_rotatable_bonds>  (292) 
3

>  <r_i_docking_score>  (292) 
-3.49995

>  <r_i_glide_ligand_efficiency>  (292) 
-0.120688

>  <r_i_glide_ligand_efficiency_sa>  (292) 
-0.370792

>  <r_i_glide_ligand_efficiency_ln>  (292) 
-0.801401

>  <r_i_glide_gscore>  (292) 
-3.49995

>  <r_i_glide_lipo>  (292) 
-0.76332

>  <r_i_glide_hbond>  (292) 
0

>  <r_i_glide_metal>  (292) 
-0

>  <r_i_glide_rewards>  (292) 
-1.15116

>  <r_i_glide_evdw>  (292) 
-21.7423

>  <r_i_glide_ecoul>  (292) 
-3.32238

>  <r_i_glide_erotb>  (292) 
0

>  <r_i_glide_esite>  (292) 
0

>  <r_i_glide_emodel>  (292) 
-33.5622

>  <r_i_glide_energy>  (292) 
-25.0647

>  <r_i_glide_einternal>  (292) 
0.969067

>  <r_i_glide_intrahb_reward>  (292) 
-0.5

>  <i_i_glide_confnum>  (292) 
1

>  <i_i_glide_posenum>  (292) 
21

>  <r_i_glide_eff_state_penalty>  (292) 
0

>  <ligand_id>  (292) 
109

>  <original_smiles>  (292) 
C=C1C(=O)OC2CC(C)C3(O)C4CC5CC(C)(O)C(C)=C(CC(O)C5C12C)C3O4

>  <smiles>  (292) 
[H]OC1([H])C([H])([H])C2=C(C([H])([H])[H])C(O[H])(C([H])([H])[H])C([H])([H])C3([H])C([H])([H])C4([H])OC2([H])C4(O[H])C([H])(C([H])([H])[H])C([H])([H])C2([H])OC(=O)C(=C([H])[H])C2(C([H])([H])[H])C13[H]

$$$$
110:0:0
     RDKit          3D

 22 23  0  0  1  0  0  0  0  0999 V2000
    6.4829   -3.0568   -2.1678 C   0  0  0  0  0  0  0  0  0  0  0  0
    5.1951   -2.7799   -2.4090 C   0  0  0  0  0  0  0  0  0  0  0  0
    4.3510   -3.3339   -3.4670 C   0  0  0  0  0  0  0  0  0  0  0  0
    4.6190   -4.1764   -4.3195 O   0  0  0  0  0  0  0  0  0  0  0  0
    2.9942   -2.6447   -3.3178 C   0  0  1  0  0  0  0  0  0  0  0  0
    2.3478   -3.1632   -2.0093 C   0  0  0  0  0  0  0  0  0  0  0  0
    3.2341   -2.5520   -0.8874 C   0  0  1  0  0  0  0  0  0  0  0  0
    3.7771   -3.5821   -0.0780 O   0  0  0  0  0  0  0  0  0  0  0  0
    4.2970   -1.7761   -1.7175 C   0  0  1  0  0  0  0  0  0  0  0  0
    4.9919   -0.7705   -1.0061 O   0  0  0  0  0  0  0  0  0  0  0  0
    3.4155   -1.2400   -2.8636 C   0  0  1  0  0  0  0  0  0  0  0  0
    4.0781   -0.5007   -3.8788 O   0  0  0  0  0  0  0  0  0  0  0  0
    7.0118   -2.5742   -1.3590 H   0  0  0  0  0  0  0  0  0  0  0  0
    7.0214   -3.7834   -2.7537 H   0  0  0  0  0  0  0  0  0  0  0  0
    2.3636   -2.6903   -4.2045 H   0  0  0  0  0  0  0  0  0  0  0  0
    1.3230   -2.8078   -1.9336 H   0  0  0  0  0  0  0  0  0  0  0  0
    2.2910   -4.2505   -1.9609 H   0  0  0  0  0  0  0  0  0  0  0  0
    2.6487   -1.8724   -0.2658 H   0  0  0  0  0  0  0  0  0  0  0  0
    4.2251   -4.2013   -0.6369 H   0  0  0  0  0  0  0  0  0  0  0  0
    4.3687   -0.1157   -0.7237 H   0  0  0  0  0  0  0  0  0  0  0  0
    2.5733   -0.6474   -2.5089 H   0  0  0  0  0  0  0  0  0  0  0  0
    4.1193    0.4073   -3.6129 H   0  0  0  0  0  0  0  0  0  0  0  0
  1  2  2  0
  1 13  1  0
  1 14  1  0
  2  9  1  0
  2  3  1  0
  3  4  2  0
  3  5  1  0
  5 11  1  0
  5  6  1  0
  5 15  1  6
  6  7  1  0
  6 16  1  0
  6 17  1  0
  7  8  1  0
  7  9  1  0
  7 18  1  1
  8 19  1  0
  9 10  1  1
  9 11  1  0
 10 20  1  0
 11 12  1  0
 11 21  1  1
 12 22  1  0
M  END
>  <i_m_ct_stereo_status>  (293) 
1

>  <s_m_source_file>  (293) 
/var/tmp/pbs.5076255.sched01/tmp3ug8vllb/105tp2mz_hs.sdf

>  <i_m_source_file_index>  (293) 
24

>  <i_lp_mmshare_version>  (293) 
48012

>  <i_f3d_flags>  (293) 
0

>  <s_epik_input>  (293) 
W09IXVtDQEBdMTJDKD1bQ0gyXSlDKD1PKVtDQEhdKFtDQEBIXTJbT0hdKVtDSDJdW0NASF0xW09IXQ==

>  <s_epik_cmdline>  (293) 
J2VwaWtfcHl0aG9uJywgJy1waHQnLCAnMi4wJywgJy1waCcsICc3LjAnLCAnLXRuJywgJzgnLCAnLW1hJywgJzIwMCcsICctaW1hZScsICc8aW5maWxlLm1hZT4nLCAnLW9tYWUnLCAnPG91dGZpbGUubWFlPic=

>  <r_lp_tautomer_probability>  (293) 
1

>  <r_epik_Ionization_Penalty>  (293) 
4.32772e-06

>  <r_epik_Ionization_Penalty_Charging>  (293) 
0

>  <r_epik_Ionization_Penalty_Neutral>  (293) 
4.32772e-06

>  <r_epik_State_Penalty>  (293) 
-0

>  <r_epik_Charging_Adjusted_Penalty>  (293) 
0

>  <i_epik_Tot_Q>  (293) 
0

>  <i_epik_Tot_abs_Q>  (293) 
0

>  <s_lp_Force_Field>  (293) 
OPLS3e

>  <r_lp_Energy>  (293) 
19.7313

>  <b_lp_Chiralities_Consistent>  (293) 
1

>  <s_lp_Variant>  (293) 
110:0-1

>  <s_i_glide_gridfile>  (293) 
pfpi4k_grid

>  <i_i_glide_lignum>  (293) 
24

>  <i_i_glide_rotatable_bonds>  (293) 
3

>  <r_i_docking_score>  (293) 
-4.82948

>  <r_i_glide_ligand_efficiency>  (293) 
-0.402457

>  <r_i_glide_ligand_efficiency_sa>  (293) 
-0.921396

>  <r_i_glide_ligand_efficiency_ln>  (293) 
-1.38583

>  <r_i_glide_gscore>  (293) 
-4.82948

>  <r_i_glide_lipo>  (293) 
-0.42691

>  <r_i_glide_hbond>  (293) 
0

>  <r_i_glide_metal>  (293) 
-0

>  <r_i_glide_rewards>  (293) 
-2.51457

>  <r_i_glide_evdw>  (293) 
-20.294

>  <r_i_glide_ecoul>  (293) 
-5.82201

>  <r_i_glide_erotb>  (293) 
0

>  <r_i_glide_esite>  (293) 
0

>  <r_i_glide_emodel>  (293) 
-34.497

>  <r_i_glide_energy>  (293) 
-26.116

>  <r_i_glide_einternal>  (293) 
1.04015

>  <r_i_glide_intrahb_reward>  (293) 
-0

>  <i_i_glide_confnum>  (293) 
2

>  <i_i_glide_posenum>  (293) 
8

>  <r_i_glide_eff_state_penalty>  (293) 
0

>  <ligand_id>  (293) 
110

>  <original_smiles>  (293) 
C=C1C(=O)C2CC(O)C1(O)C2O

>  <smiles>  (293) 
[H]OC1([H])C([H])([H])C2([H])C(=O)C(=C([H])[H])C1(O[H])C2([H])O[H]

$$$$
110:0:1
     RDKit          3D

 22 23  0  0  1  0  0  0  0  0999 V2000
    3.7675   -3.1598   -3.5668 C   0  0  0  0  0  0  0  0  0  0  0  0
    4.2032   -2.6078   -2.4227 C   0  0  0  0  0  0  0  0  0  0  0  0
    4.4177   -1.1947   -2.1861 C   0  0  0  0  0  0  0  0  0  0  0  0
    4.2100   -0.2583   -2.9529 O   0  0  0  0  0  0  0  0  0  0  0  0
    4.9636   -1.0811   -0.7504 C   0  0  1  0  0  0  0  0  0  0  0  0
    3.8194   -1.4441    0.2247 C   0  0  0  0  0  0  0  0  0  0  0  0
    3.6053   -2.9648   -0.0207 C   0  0  1  0  0  0  0  0  0  0  0  0
    2.2695   -3.2215   -0.4276 O   0  0  0  0  0  0  0  0  0  0  0  0
    4.6570   -3.2546   -1.1271 C   0  0  1  0  0  0  0  0  0  0  0  0
    5.0132   -4.6155   -1.2238 O   0  0  0  0  0  0  0  0  0  0  0  0
    5.8123   -2.3563   -0.6524 C   0  0  1  0  0  0  0  0  0  0  0  0
    6.9658   -2.3247   -1.4876 O   0  0  0  0  0  0  0  0  0  0  0  0
    3.6836   -4.2343   -3.6513 H   0  0  0  0  0  0  0  0  0  0  0  0
    3.4893   -2.5586   -4.4219 H   0  0  0  0  0  0  0  0  0  0  0  0
    5.4865   -0.1603   -0.5178 H   0  0  0  0  0  0  0  0  0  0  0  0
    4.1147   -1.2651    1.2623 H   0  0  0  0  0  0  0  0  0  0  0  0
    2.9323   -0.8422    0.0322 H   0  0  0  0  0  0  0  0  0  0  0  0
    3.8368   -3.5344    0.8793 H   0  0  0  0  0  0  0  0  0  0  0  0
    1.8681   -2.4026   -0.7198 H   0  0  0  0  0  0  0  0  0  0  0  0
    4.2832   -5.0689   -1.6299 H   0  0  0  0  0  0  0  0  0  0  0  0
    6.1290   -2.5794    0.3692 H   0  0  0  0  0  0  0  0  0  0  0  0
    7.2526   -3.2174   -1.6318 H   0  0  0  0  0  0  0  0  0  0  0  0
  1  2  2  0
  1 13  1  0
  1 14  1  0
  2  9  1  0
  2  3  1  0
  3  4  2  0
  3  5  1  0
  5 11  1  0
  5  6  1  0
  5 15  1  1
  6  7  1  0
  6 16  1  0
  6 17  1  0
  7  8  1  0
  7  9  1  0
  7 18  1  1
  8 19  1  0
  9 10  1  6
  9 11  1  0
 10 20  1  0
 11 12  1  0
 11 21  1  1
 12 22  1  0
M  END
>  <i_m_ct_stereo_status>  (294) 
1

>  <s_m_source_file>  (294) 
/var/tmp/pbs.5076255.sched01/tmp3ug8vllb/105tp2mz_hs.sdf

>  <i_m_source_file_index>  (294) 
24

>  <i_lp_mmshare_version>  (294) 
48012

>  <i_f3d_flags>  (294) 
0

>  <s_epik_input>  (294) 
W09IXVtDQEBdMTJDKD1bQ0gyXSlDKD1PKVtDQEhdKFtDQEBIXTJbT0hdKVtDSDJdW0NASF0xW09IXQ==

>  <s_epik_cmdline>  (294) 
J2VwaWtfcHl0aG9uJywgJy1waHQnLCAnMi4wJywgJy1waCcsICc3LjAnLCAnLXRuJywgJzgnLCAnLW1hJywgJzIwMCcsICctaW1hZScsICc8aW5maWxlLm1hZT4nLCAnLW9tYWUnLCAnPG91dGZpbGUubWFlPic=

>  <r_lp_tautomer_probability>  (294) 
1

>  <r_epik_Ionization_Penalty>  (294) 
4.32772e-06

>  <r_epik_Ionization_Penalty_Charging>  (294) 
0

>  <r_epik_Ionization_Penalty_Neutral>  (294) 
4.32772e-06

>  <r_epik_State_Penalty>  (294) 
-0

>  <r_epik_Charging_Adjusted_Penalty>  (294) 
0

>  <i_epik_Tot_Q>  (294) 
0

>  <i_epik_Tot_abs_Q>  (294) 
0

>  <s_lp_Force_Field>  (294) 
OPLS3e

>  <r_lp_Energy>  (294) 
19.7313

>  <b_lp_Chiralities_Consistent>  (294) 
1

>  <s_lp_Variant>  (294) 
110:0-1

>  <s_i_glide_gridfile>  (294) 
pfpi4k_grid

>  <i_i_glide_lignum>  (294) 
24

>  <i_i_glide_rotatable_bonds>  (294) 
3

>  <r_i_docking_score>  (294) 
-4.7924

>  <r_i_glide_ligand_efficiency>  (294) 
-0.399367

>  <r_i_glide_ligand_efficiency_sa>  (294) 
-0.914322

>  <r_i_glide_ligand_efficiency_ln>  (294) 
-1.37519

>  <r_i_glide_gscore>  (294) 
-4.7924

>  <r_i_glide_lipo>  (294) 
-0.269011

>  <r_i_glide_hbond>  (294) 
0

>  <r_i_glide_metal>  (294) 
-0

>  <r_i_glide_rewards>  (294) 
-2.24889

>  <r_i_glide_evdw>  (294) 
-17.2277

>  <r_i_glide_ecoul>  (294) 
-9.17264

>  <r_i_glide_erotb>  (294) 
0

>  <r_i_glide_esite>  (294) 
-0.0372208

>  <r_i_glide_emodel>  (294) 
-34.2339

>  <r_i_glide_energy>  (294) 
-26.4003

>  <r_i_glide_einternal>  (294) 
1.64224

>  <r_i_glide_intrahb_reward>  (294) 
-0

>  <i_i_glide_confnum>  (294) 
2

>  <i_i_glide_posenum>  (294) 
10

>  <r_i_glide_eff_state_penalty>  (294) 
0

>  <ligand_id>  (294) 
110

>  <original_smiles>  (294) 
C=C1C(=O)C2CC(O)C1(O)C2O

>  <smiles>  (294) 
[H]OC1([H])C([H])([H])C2([H])C(=O)C(=C([H])[H])C1(O[H])C2([H])O[H]

$$$$
110:0:2
     RDKit          3D

 22 23  0  0  1  0  0  0  0  0999 V2000
    6.5029   -3.0616   -2.1891 C   0  0  0  0  0  0  0  0  0  0  0  0
    5.2118   -2.7917   -2.4231 C   0  0  0  0  0  0  0  0  0  0  0  0
    4.3596   -3.3515   -3.4737 C   0  0  0  0  0  0  0  0  0  0  0  0
    4.6224   -4.1970   -4.3231 O   0  0  0  0  0  0  0  0  0  0  0  0
    3.0044   -2.6570   -3.3247 C   0  0  1  0  0  0  0  0  0  0  0  0
    2.3645   -3.1623   -2.0098 C   0  0  0  0  0  0  0  0  0  0  0  0
    3.2571   -2.5437   -0.8963 C   0  0  1  0  0  0  0  0  0  0  0  0
    3.8052   -3.5654   -0.0809 O   0  0  0  0  0  0  0  0  0  0  0  0
    4.3178   -1.7793   -1.7352 C   0  0  1  0  0  0  0  0  0  0  0  0
    5.0151   -0.7804   -1.0215 O   0  0  0  0  0  0  0  0  0  0  0  0
    3.4349   -1.2485   -2.8868 C   0  0  1  0  0  0  0  0  0  0  0  0
    4.1169   -0.5323   -3.9109 O   0  0  0  0  0  0  0  0  0  0  0  0
    7.0337   -2.5672   -1.3917 H   0  0  0  0  0  0  0  0  0  0  0  0
    7.0327   -3.7952   -2.7703 H   0  0  0  0  0  0  0  0  0  0  0  0
    2.3679   -2.7160   -4.2039 H   0  0  0  0  0  0  0  0  0  0  0  0
    1.3407   -2.8038   -1.9404 H   0  0  0  0  0  0  0  0  0  0  0  0
    2.3060   -4.2498   -1.9456 H   0  0  0  0  0  0  0  0  0  0  0  0
    2.6787   -1.8557   -0.2762 H   0  0  0  0  0  0  0  0  0  0  0  0
    4.2388   -4.1959   -0.6387 H   0  0  0  0  0  0  0  0  0  0  0  0
    4.3961   -0.1142   -0.7596 H   0  0  0  0  0  0  0  0  0  0  0  0
    2.6038   -0.6422   -2.5241 H   0  0  0  0  0  0  0  0  0  0  0  0
    3.4820   -0.1263   -4.4850 H   0  0  0  0  0  0  0  0  0  0  0  0
  1  2  2  0
  1 13  1  0
  1 14  1  0
  2  9  1  0
  2  3  1  0
  3  4  2  0
  3  5  1  0
  5 11  1  0
  5  6  1  0
  5 15  1  6
  6  7  1  0
  6 16  1  0
  6 17  1  0
  7  8  1  0
  7  9  1  0
  7 18  1  1
  8 19  1  0
  9 10  1  1
  9 11  1  0
 10 20  1  0
 11 12  1  0
 11 21  1  1
 12 22  1  0
M  END
>  <i_m_ct_stereo_status>  (295) 
1

>  <s_m_source_file>  (295) 
/var/tmp/pbs.5076255.sched01/tmp3ug8vllb/105tp2mz_hs.sdf

>  <i_m_source_file_index>  (295) 
24

>  <i_lp_mmshare_version>  (295) 
48012

>  <i_f3d_flags>  (295) 
0

>  <s_epik_input>  (295) 
W09IXVtDQEBdMTJDKD1bQ0gyXSlDKD1PKVtDQEhdKFtDQEBIXTJbT0hdKVtDSDJdW0NASF0xW09IXQ==

>  <s_epik_cmdline>  (295) 
J2VwaWtfcHl0aG9uJywgJy1waHQnLCAnMi4wJywgJy1waCcsICc3LjAnLCAnLXRuJywgJzgnLCAnLW1hJywgJzIwMCcsICctaW1hZScsICc8aW5maWxlLm1hZT4nLCAnLW9tYWUnLCAnPG91dGZpbGUubWFlPic=

>  <r_lp_tautomer_probability>  (295) 
1

>  <r_epik_Ionization_Penalty>  (295) 
4.32772e-06

>  <r_epik_Ionization_Penalty_Charging>  (295) 
0

>  <r_epik_Ionization_Penalty_Neutral>  (295) 
4.32772e-06

>  <r_epik_State_Penalty>  (295) 
-0

>  <r_epik_Charging_Adjusted_Penalty>  (295) 
0

>  <i_epik_Tot_Q>  (295) 
0

>  <i_epik_Tot_abs_Q>  (295) 
0

>  <s_lp_Force_Field>  (295) 
OPLS3e

>  <r_lp_Energy>  (295) 
19.7313

>  <b_lp_Chiralities_Consistent>  (295) 
1

>  <s_lp_Variant>  (295) 
110:0-1

>  <s_i_glide_gridfile>  (295) 
pfpi4k_grid

>  <i_i_glide_lignum>  (295) 
24

>  <i_i_glide_rotatable_bonds>  (295) 
3

>  <r_i_docking_score>  (295) 
-4.77847

>  <r_i_glide_ligand_efficiency>  (295) 
-0.398206

>  <r_i_glide_ligand_efficiency_sa>  (295) 
-0.911664

>  <r_i_glide_ligand_efficiency_ln>  (295) 
-1.37119

>  <r_i_glide_gscore>  (295) 
-4.77847

>  <r_i_glide_lipo>  (295) 
-0.4244

>  <r_i_glide_hbond>  (295) 
0

>  <r_i_glide_metal>  (295) 
-0

>  <r_i_glide_rewards>  (295) 
-2.52016

>  <r_i_glide_evdw>  (295) 
-20.2675

>  <r_i_glide_ecoul>  (295) 
-5.47025

>  <r_i_glide_erotb>  (295) 
0

>  <r_i_glide_esite>  (295) 
0

>  <r_i_glide_emodel>  (295) 
-34.1415

>  <r_i_glide_energy>  (295) 
-25.7378

>  <r_i_glide_einternal>  (295) 
0.762588

>  <r_i_glide_intrahb_reward>  (295) 
-0

>  <i_i_glide_confnum>  (295) 
1

>  <i_i_glide_posenum>  (295) 
5

>  <r_i_glide_eff_state_penalty>  (295) 
0

>  <ligand_id>  (295) 
110

>  <original_smiles>  (295) 
C=C1C(=O)C2CC(O)C1(O)C2O

>  <smiles>  (295) 
[H]OC1([H])C([H])([H])C2([H])C(=O)C(=C([H])[H])C1(O[H])C2([H])O[H]

$$$$
111:0:0
     RDKit          3D

 81 86  0  0  1  0  0  0  0  0999 V2000
    4.6824   -5.4774    7.8369 C   0  0  0  0  0  0  0  0  0  0  0  0
    3.4305   -5.2814    8.2910 C   0  0  0  0  0  0  0  0  0  0  0  0
    2.9322   -6.2148    9.3928 C   0  0  0  0  0  0  0  0  0  0  0  0
    2.4893   -4.1362    7.8217 C   0  0  2  0  0  0  0  0  0  0  0  0
    2.3181   -3.2177    9.0696 C   0  0  0  0  0  0  0  0  0  0  0  0
    2.3823   -1.8648    8.6257 O   0  0  0  0  0  0  0  0  0  0  0  0
    2.2328   -1.8930    7.2258 C   0  0  2  0  0  0  0  0  0  0  0  0
    0.7077   -2.0997    7.0743 C   0  0  0  0  0  0  0  0  0  0  0  0
    0.2931   -3.4361    6.7946 O   0  0  0  0  0  0  0  0  0  0  0  0
    1.0927   -4.5597    7.1630 C   0  0  2  0  0  0  0  0  0  0  0  0
    0.0824   -5.1860    8.1525 C   0  0  0  0  0  0  0  0  0  0  0  0
    1.3348   -5.3736    5.8059 C   0  0  2  0  0  0  0  0  0  0  0  0
    1.5356   -4.4768    4.5293 C   0  0  1  0  0  0  0  0  0  0  0  0
    0.6243   -3.2901    4.1572 C   0  0  0  0  0  0  0  0  0  0  0  0
    3.0216   -4.2253    4.3532 C   0  0  1  0  0  0  0  0  0  0  0  0
    3.7471   -5.5989    4.2004 C   0  0  0  0  0  0  0  0  0  0  0  0
    2.9035   -6.7256    3.5308 C   0  0  0  0  0  0  0  0  0  0  0  0
    1.8060   -7.5524    4.3460 C   0  0  2  0  0  0  0  0  0  0  0  0
    1.1554   -8.7350    3.4587 C   0  0  1  0  0  0  0  0  0  0  0  0
    1.8798   -8.9401    2.0950 C   0  0  0  0  0  0  0  0  0  0  0  0
    1.2075  -10.1569    4.1231 C   0  0  0  0  0  0  0  0  0  0  0  0
    2.5238  -10.4848    4.5193 O   0  0  0  0  0  0  0  0  0  0  0  0
   -0.3090   -8.3793    3.0679 C   0  0  1  0  0  0  0  0  0  0  0  0
   -0.9705   -9.4688    2.4567 O   0  0  0  0  0  0  0  0  0  0  0  0
   -1.1811   -7.9386    4.2329 C   0  0  0  0  0  0  0  0  0  0  0  0
   -0.6369   -6.6441    4.8088 C   0  0  0  0  0  0  0  0  0  0  0  0
    0.7971   -6.8074    5.3778 C   0  0  2  0  0  0  0  0  0  0  0  0
    0.7055   -7.7176    6.6182 C   0  0  0  0  0  0  0  0  0  0  0  0
    3.1953   -3.5209    3.1290 O   0  0  0  0  0  0  0  0  0  0  0  0
    3.8159   -2.3032    3.3983 C   0  0  0  0  0  0  0  0  0  0  0  0
    5.2858   -2.3847    2.9506 C   0  0  0  0  0  0  0  0  0  0  0  0
    3.0755   -1.1827    2.6599 C   0  0  0  0  0  0  0  0  0  0  0  0
    3.7392   -2.0423    4.7583 O   0  0  0  0  0  0  0  0  0  0  0  0
    3.6591   -3.2855    5.4124 C   0  0  1  0  0  0  0  0  0  0  0  0
    3.1498   -3.0762    6.8996 C   0  0  2  0  0  0  0  0  0  0  0  0
    5.2731   -6.2906    8.2236 H   0  0  0  0  0  0  0  0  0  0  0  0
    5.1631   -4.8472    7.1078 H   0  0  0  0  0  0  0  0  0  0  0  0
    2.2746   -5.7037   10.0909 H   0  0  0  0  0  0  0  0  0  0  0  0
    3.7655   -6.6142    9.9665 H   0  0  0  0  0  0  0  0  0  0  0  0
    2.4119   -7.0855    9.0021 H   0  0  0  0  0  0  0  0  0  0  0  0
    1.4037   -3.3827    9.6409 H   0  0  0  0  0  0  0  0  0  0  0  0
    3.1426   -3.3424    9.7765 H   0  0  0  0  0  0  0  0  0  0  0  0
    2.5698   -0.9436    6.8024 H   0  0  0  0  0  0  0  0  0  0  0  0
    0.2109   -1.7803    7.9936 H   0  0  0  0  0  0  0  0  0  0  0  0
    0.3064   -1.4256    6.3142 H   0  0  0  0  0  0  0  0  0  0  0  0
    0.4519   -6.0628    8.6770 H   0  0  0  0  0  0  0  0  0  0  0  0
   -0.8400   -5.4600    7.6432 H   0  0  0  0  0  0  0  0  0  0  0  0
   -0.2271   -4.4869    8.9227 H   0  0  0  0  0  0  0  0  0  0  0  0
    2.2993   -5.7535    6.0930 H   0  0  0  0  0  0  0  0  0  0  0  0
    1.2342   -5.0686    3.6784 H   0  0  0  0  0  0  0  0  0  0  0  0
    1.0016   -2.3527    4.5506 H   0  0  0  0  0  0  0  0  0  0  0  0
   -0.4016   -3.4449    4.4779 H   0  0  0  0  0  0  0  0  0  0  0  0
    0.6140   -3.1547    3.0745 H   0  0  0  0  0  0  0  0  0  0  0  0
    4.6335   -5.4326    3.5872 H   0  0  0  0  0  0  0  0  0  0  0  0
    4.1546   -5.9585    5.1469 H   0  0  0  0  0  0  0  0  0  0  0  0
    2.5124   -6.3343    2.5887 H   0  0  0  0  0  0  0  0  0  0  0  0
    3.6642   -7.4400    3.2215 H   0  0  0  0  0  0  0  0  0  0  0  0
    2.4861   -8.0620    5.0319 H   0  0  0  0  0  0  0  0  0  0  0  0
    1.4311   -9.7599    1.5312 H   0  0  0  0  0  0  0  0  0  0  0  0
    2.9304   -9.2182    2.1957 H   0  0  0  0  0  0  0  0  0  0  0  0
    1.8105   -8.0601    1.4521 H   0  0  0  0  0  0  0  0  0  0  0  0
    0.5320  -10.3072    4.9592 H   0  0  0  0  0  0  0  0  0  0  0  0
    0.8785  -10.9152    3.4035 H   0  0  0  0  0  0  0  0  0  0  0  0
    2.5180  -11.2760    5.0285 H   0  0  0  0  0  0  0  0  0  0  0  0
   -0.2961   -7.5658    2.3430 H   0  0  0  0  0  0  0  0  0  0  0  0
   -0.5792   -9.6307    1.6118 H   0  0  0  0  0  0  0  0  0  0  0  0
   -2.1961   -7.7723    3.8770 H   0  0  0  0  0  0  0  0  0  0  0  0
   -1.2625   -8.7293    4.9891 H   0  0  0  0  0  0  0  0  0  0  0  0
   -0.6730   -5.9052    4.0134 H   0  0  0  0  0  0  0  0  0  0  0  0
   -1.3083   -6.2663    5.5757 H   0  0  0  0  0  0  0  0  0  0  0  0
    0.5653   -8.7672    6.3995 H   0  0  0  0  0  0  0  0  0  0  0  0
   -0.1482   -7.4756    7.2527 H   0  0  0  0  0  0  0  0  0  0  0  0
    1.6294   -7.6433    7.1769 H   0  0  0  0  0  0  0  0  0  0  0  0
    5.7957   -3.1979    3.4535 H   0  0  0  0  0  0  0  0  0  0  0  0
    5.7979   -1.4441    3.1601 H   0  0  0  0  0  0  0  0  0  0  0  0
    5.3311   -2.5615    1.8745 H   0  0  0  0  0  0  0  0  0  0  0  0
    2.0463   -1.1056    3.0081 H   0  0  0  0  0  0  0  0  0  0  0  0
    3.0731   -1.3763    1.5845 H   0  0  0  0  0  0  0  0  0  0  0  0
    3.5732   -0.2294    2.8488 H   0  0  0  0  0  0  0  0  0  0  0  0
    4.6974   -3.6122    5.4770 H   0  0  0  0  0  0  0  0  0  0  0  0
    4.0878   -2.7894    7.3835 H   0  0  0  0  0  0  0  0  0  0  0  0
  1  2  2  0
  1 36  1  0
  1 37  1  0
  2  3  1  0
  4  2  1  1
  3 38  1  0
  3 39  1  0
  3 40  1  0
  4 10  1  0
  4 35  1  0
  4  5  1  0
  5  6  1  0
  5 41  1  0
  5 42  1  0
  6  7  1  0
  7 35  1  0
  7  8  1  0
  7 43  1  6
  8  9  1  0
  8 44  1  0
  8 45  1  0
  9 10  1  0
 10 11  1  1
 10 12  1  0
 11 46  1  0
 11 47  1  0
 11 48  1  0
 12 27  1  0
 12 13  1  0
 12 49  1  1
 13 14  1  0
 13 15  1  0
 13 50  1  6
 14 51  1  0
 14 52  1  0
 14 53  1  0
 15 34  1  0
 15 16  1  0
 15 29  1  6
 16 17  1  0
 16 54  1  0
 16 55  1  0
 17 18  1  0
 17 56  1  0
 17 57  1  0
 18 27  1  0
 18 19  1  0
 18 58  1  1
 19 20  1  6
 19 21  1  0
 19 23  1  0
 20 59  1  0
 20 60  1  0
 20 61  1  0
 21 22  1  0
 21 62  1  0
 21 63  1  0
 22 64  1  0
 23 24  1  0
 23 25  1  0
 23 65  1  6
 24 66  1  0
 25 26  1  0
 25 67  1  0
 25 68  1  0
 26 27  1  0
 26 69  1  0
 26 70  1  0
 27 28  1  1
 28 71  1  0
 28 72  1  0
 28 73  1  0
 29 30  1  0
 30 31  1  0
 30 32  1  0
 30 33  1  0
 31 74  1  0
 31 75  1  0
 31 76  1  0
 32 77  1  0
 32 78  1  0
 32 79  1  0
 33 34  1  0
 34 35  1  0
 34 80  1  1
 35 81  1  1
M  END
>  <i_m_ct_stereo_status>  (296) 
1

>  <s_m_source_file>  (296) 
/var/tmp/pbs.5076255.sched01/tmp3ug8vllb/105tp2mz_hs.sdf

>  <i_m_source_file_index>  (296) 
25

>  <i_lp_mmshare_version>  (296) 
48012

>  <i_f3d_flags>  (296) 
0

>  <s_epik_input>  (296) 
TzFDKFtDSDNdKShbQ0gzXSlPW0NASF0oW0NAXTEyMylbQ0BASF00W0NAXTUoQyg9W0NIMl0pW0NIM10pW0NAQF0oW0NIM10pKE9bQ0gyXVtDQEhdNE9bQ0gyXTUpW0NASF0oW0NASF0yW0NIM10pW0NAXTYoW0NIM10pW0NASF0oW0NIMl1bQ0gyXTMpW0NAQF0oW0NIM10pKFtDSDJdW09IXSlbQ0BASF0oW09IXSlbQ0gyXVtDSDJdNg==

>  <s_epik_cmdline>  (296) 
J2VwaWtfcHl0aG9uJywgJy1waHQnLCAnMi4wJywgJy1waCcsICc3LjAnLCAnLXRuJywgJzgnLCAnLW1hJywgJzIwMCcsICctaW1hZScsICc8aW5maWxlLm1hZT4nLCAnLW9tYWUnLCAnPG91dGZpbGUubWFlPic=

>  <r_lp_tautomer_probability>  (296) 
1

>  <r_epik_Ionization_Penalty>  (296) 
1.45045e-06

>  <r_epik_Ionization_Penalty_Charging>  (296) 
0

>  <r_epik_Ionization_Penalty_Neutral>  (296) 
1.45045e-06

>  <r_epik_State_Penalty>  (296) 
-0

>  <r_epik_Charging_Adjusted_Penalty>  (296) 
0

>  <i_epik_Tot_Q>  (296) 
0

>  <i_epik_Tot_abs_Q>  (296) 
0

>  <s_lp_Force_Field>  (296) 
OPLS3e

>  <r_lp_Energy>  (296) 
142.687

>  <b_lp_Chiralities_Consistent>  (296) 
1

>  <s_lp_Variant>  (296) 
111:0-1

>  <s_i_glide_gridfile>  (296) 
pfpi4k_grid

>  <i_i_glide_lignum>  (296) 
25

>  <i_i_glide_rotatable_bonds>  (296) 
4

>  <r_i_docking_score>  (296) 
-1.74115

>  <r_i_glide_ligand_efficiency>  (296) 
-0.0497471

>  <r_i_glide_ligand_efficiency_sa>  (296) 
-0.162726

>  <r_i_glide_ligand_efficiency_ln>  (296) 
-0.382221

>  <r_i_glide_gscore>  (296) 
-1.74115

>  <r_i_glide_lipo>  (296) 
-0.0990507

>  <r_i_glide_hbond>  (296) 
-0.32

>  <r_i_glide_metal>  (296) 
-0

>  <r_i_glide_rewards>  (296) 
-0.0636408

>  <r_i_glide_evdw>  (296) 
-19.6203

>  <r_i_glide_ecoul>  (296) 
-2.97673

>  <r_i_glide_erotb>  (296) 
0.169067

>  <r_i_glide_esite>  (296) 
0

>  <r_i_glide_emodel>  (296) 
-24.3004

>  <r_i_glide_energy>  (296) 
-22.597

>  <r_i_glide_einternal>  (296) 
0.714456

>  <r_i_glide_intrahb_reward>  (296) 
-0

>  <i_i_glide_confnum>  (296) 
1

>  <i_i_glide_posenum>  (296) 
9

>  <r_i_glide_eff_state_penalty>  (296) 
0

>  <ligand_id>  (296) 
111

>  <original_smiles>  (296) 
C=C(C)C12COC3COC1(C)C1C(C)C4(CCC5C(C)(CO)C(O)CCC51C)OC(C)(C)OC4C32

>  <smiles>  (296) 
[H]OC([H])([H])C1(C([H])([H])[H])C([H])(O[H])C([H])([H])C([H])([H])C2(C([H])([H])[H])C3([H])C([H])(C([H])([H])[H])C4(OC(C([H])([H])[H])(C([H])([H])[H])OC4([H])C4([H])C5([H])OC([H])([H])C4(C(=C([H])[H])C([H])([H])[H])C3(C([H])([H])[H])OC5([H])[H])C([H])([H])C([H])([H])C12[H]

$$$$
111:0:1
     RDKit          3D

 81 86  0  0  1  0  0  0  0  0999 V2000
    6.4311   -5.4556    3.6031 C   0  0  0  0  0  0  0  0  0  0  0  0
    5.9831   -5.3178    4.8613 C   0  0  0  0  0  0  0  0  0  0  0  0
    6.3174   -6.4325    5.8485 C   0  0  0  0  0  0  0  0  0  0  0  0
    5.2052   -4.0795    5.4065 C   0  0  2  0  0  0  0  0  0  0  0  0
    6.1293   -3.4569    6.5048 C   0  0  0  0  0  0  0  0  0  0  0  0
    6.0728   -2.0427    6.3614 O   0  0  0  0  0  0  0  0  0  0  0  0
    4.9638   -1.7573    5.5336 C   0  0  2  0  0  0  0  0  0  0  0  0
    3.7818   -1.9203    6.5158 C   0  0  0  0  0  0  0  0  0  0  0  0
    3.0813   -3.1607    6.4160 O   0  0  0  0  0  0  0  0  0  0  0  0
    3.7097   -4.3532    5.9196 C   0  0  2  0  0  0  0  0  0  0  0  0
    3.6262   -5.1726    7.2260 C   0  0  0  0  0  0  0  0  0  0  0  0
    2.7754   -4.8381    4.7121 C   0  0  2  0  0  0  0  0  0  0  0  0
    2.1532   -3.6856    3.8474 C   0  0  1  0  0  0  0  0  0  0  0  0
    1.4492   -2.4436    4.4403 C   0  0  0  0  0  0  0  0  0  0  0  0
    3.0860   -3.4054    2.6793 C   0  0  1  0  0  0  0  0  0  0  0  0
    3.2588   -4.7166    1.8433 C   0  0  0  0  0  0  0  0  0  0  0  0
    2.0358   -5.6832    1.8482 C   0  0  0  0  0  0  0  0  0  0  0  0
    1.7181   -6.6624    3.0698 C   0  0  2  0  0  0  0  0  0  0  0  0
    0.4318   -7.5999    2.7732 C   0  0  1  0  0  0  0  0  0  0  0  0
   -0.0949   -7.4699    1.3099 C   0  0  0  0  0  0  0  0  0  0  0  0
    0.7351   -9.1209    2.9556 C   0  0  0  0  0  0  0  0  0  0  0  0
    1.7243   -9.5718    2.0653 O   0  0  0  0  0  0  0  0  0  0  0  0
   -0.7830   -7.2027    3.6591 C   0  0  1  0  0  0  0  0  0  0  0  0
   -1.8886   -8.0783    3.5475 O   0  0  0  0  0  0  0  0  0  0  0  0
   -0.4719   -6.9830    5.1270 C   0  0  0  0  0  0  0  0  0  0  0  0
    0.5249   -5.8542    5.2850 C   0  0  0  0  0  0  0  0  0  0  0  0
    1.8817   -6.1432    4.6035 C   0  0  2  0  0  0  0  0  0  0  0  0
    2.5539   -7.2869    5.3861 C   0  0  0  0  0  0  0  0  0  0  0  0
    2.4609   -2.4477    1.8345 O   0  0  0  0  0  0  0  0  0  0  0  0
    3.2767   -1.3163    1.7419 C   0  0  0  0  0  0  0  0  0  0  0  0
    3.9570   -1.3022    0.3588 C   0  0  0  0  0  0  0  0  0  0  0  0
    2.4358   -0.0600    1.9660 C   0  0  0  0  0  0  0  0  0  0  0  0
    4.2393   -1.3687    2.7472 O   0  0  0  0  0  0  0  0  0  0  0  0
    4.4319   -2.7258    3.0662 C   0  0  1  0  0  0  0  0  0  0  0  0
    5.1550   -2.8470    4.4679 C   0  0  2  0  0  0  0  0  0  0  0  0
    6.9733   -6.3432    3.3106 H   0  0  0  0  0  0  0  0  0  0  0  0
    6.2930   -4.7156    2.8372 H   0  0  0  0  0  0  0  0  0  0  0  0
    6.4882   -6.0594    6.8558 H   0  0  0  0  0  0  0  0  0  0  0  0
    7.2218   -6.9546    5.5425 H   0  0  0  0  0  0  0  0  0  0  0  0
    5.5405   -7.1885    5.8914 H   0  0  0  0  0  0  0  0  0  0  0  0
    5.8747   -3.7358    7.5234 H   0  0  0  0  0  0  0  0  0  0  0  0
    7.1728   -3.7331    6.3618 H   0  0  0  0  0  0  0  0  0  0  0  0
    5.0498   -0.7412    5.1471 H   0  0  0  0  0  0  0  0  0  0  0  0
    4.1328   -1.8138    7.5445 H   0  0  0  0  0  0  0  0  0  0  0  0
    3.0752   -1.1008    6.3952 H   0  0  0  0  0  0  0  0  0  0  0  0
    4.1200   -6.1364    7.1792 H   0  0  0  0  0  0  0  0  0  0  0  0
    2.5909   -5.3339    7.5111 H   0  0  0  0  0  0  0  0  0  0  0  0
    4.0650   -4.6536    8.0731 H   0  0  0  0  0  0  0  0  0  0  0  0
    3.5806   -5.2723    4.1414 H   0  0  0  0  0  0  0  0  0  0  0  0
    1.2465   -4.0732    3.4046 H   0  0  0  0  0  0  0  0  0  0  0  0
    2.1358   -1.6127    4.5702 H   0  0  0  0  0  0  0  0  0  0  0  0
    0.9505   -2.6626    5.3833 H   0  0  0  0  0  0  0  0  0  0  0  0
    0.6778   -2.0721    3.7605 H   0  0  0  0  0  0  0  0  0  0  0  0
    3.4655   -4.4248    0.8128 H   0  0  0  0  0  0  0  0  0  0  0  0
    4.1472   -5.2790    2.1308 H   0  0  0  0  0  0  0  0  0  0  0  0
    1.1642   -5.0881    1.5931 H   0  0  0  0  0  0  0  0  0  0  0  0
    2.2105   -6.3042    0.9726 H   0  0  0  0  0  0  0  0  0  0  0  0
    2.5751   -7.3319    2.9523 H   0  0  0  0  0  0  0  0  0  0  0  0
   -0.9559   -8.1199    1.1457 H   0  0  0  0  0  0  0  0  0  0  0  0
    0.6397   -7.7603    0.5608 H   0  0  0  0  0  0  0  0  0  0  0  0
   -0.4346   -6.4702    1.0617 H   0  0  0  0  0  0  0  0  0  0  0  0
    1.0611   -9.3987    3.9652 H   0  0  0  0  0  0  0  0  0  0  0  0
   -0.1506   -9.7313    2.7957 H   0  0  0  0  0  0  0  0  0  0  0  0
    1.2935   -9.7894    1.2371 H   0  0  0  0  0  0  0  0  0  0  0  0
   -1.1550   -6.2534    3.2863 H   0  0  0  0  0  0  0  0  0  0  0  0
   -1.6798   -8.9105    3.9653 H   0  0  0  0  0  0  0  0  0  0  0  0
   -1.3747   -6.6590    5.6312 H   0  0  0  0  0  0  0  0  0  0  0  0
   -0.1372   -7.9025    5.6048 H   0  0  0  0  0  0  0  0  0  0  0  0
    0.0521   -4.9598    4.8925 H   0  0  0  0  0  0  0  0  0  0  0  0
    0.6698   -5.6514    6.3440 H   0  0  0  0  0  0  0  0  0  0  0  0
    2.1533   -8.2806    5.1722 H   0  0  0  0  0  0  0  0  0  0  0  0
    2.4266   -7.2168    6.4553 H   0  0  0  0  0  0  0  0  0  0  0  0
    3.6072   -7.3572    5.1530 H   0  0  0  0  0  0  0  0  0  0  0  0
    4.5482   -2.1994    0.1870 H   0  0  0  0  0  0  0  0  0  0  0  0
    4.6032   -0.4261    0.2687 H   0  0  0  0  0  0  0  0  0  0  0  0
    3.1898   -1.2397   -0.4175 H   0  0  0  0  0  0  0  0  0  0  0  0
    1.9934   -0.0609    2.9611 H   0  0  0  0  0  0  0  0  0  0  0  0
    1.6321   -0.0038    1.2298 H   0  0  0  0  0  0  0  0  0  0  0  0
    3.0628    0.8294    1.8705 H   0  0  0  0  0  0  0  0  0  0  0  0
    5.1437   -3.0539    2.3104 H   0  0  0  0  0  0  0  0  0  0  0  0
    6.1767   -2.6802    4.1456 H   0  0  0  0  0  0  0  0  0  0  0  0
  1  2  2  0
  1 36  1  0
  1 37  1  0
  2  3  1  0
  4  2  1  6
  3 38  1  0
  3 39  1  0
  3 40  1  0
  4 10  1  0
  4 35  1  0
  4  5  1  0
  5  6  1  0
  5 41  1  0
  5 42  1  0
  6  7  1  0
  7 35  1  0
  7  8  1  0
  7 43  1  6
  8  9  1  0
  8 44  1  0
  8 45  1  0
  9 10  1  0
 10 11  1  1
 10 12  1  0
 11 46  1  0
 11 47  1  0
 11 48  1  0
 12 27  1  0
 12 13  1  0
 12 49  1  6
 13 14  1  0
 13 15  1  0
 13 50  1  6
 14 51  1  0
 14 52  1  0
 14 53  1  0
 15 34  1  0
 15 16  1  0
 15 29  1  6
 16 17  1  0
 16 54  1  0
 16 55  1  0
 17 18  1  0
 17 56  1  0
 17 57  1  0
 18 27  1  0
 18 19  1  0
 18 58  1  1
 19 20  1  6
 19 21  1  0
 19 23  1  0
 20 59  1  0
 20 60  1  0
 20 61  1  0
 21 22  1  0
 21 62  1  0
 21 63  1  0
 22 64  1  0
 23 24  1  0
 23 25  1  0
 23 65  1  6
 24 66  1  0
 25 26  1  0
 25 67  1  0
 25 68  1  0
 26 27  1  0
 26 69  1  0
 26 70  1  0
 27 28  1  1
 28 71  1  0
 28 72  1  0
 28 73  1  0
 29 30  1  0
 30 31  1  0
 30 32  1  0
 30 33  1  0
 31 74  1  0
 31 75  1  0
 31 76  1  0
 32 77  1  0
 32 78  1  0
 32 79  1  0
 33 34  1  0
 34 35  1  0
 34 80  1  6
 35 81  1  6
M  END
>  <i_m_ct_stereo_status>  (297) 
1

>  <s_m_source_file>  (297) 
/var/tmp/pbs.5076255.sched01/tmp3ug8vllb/105tp2mz_hs.sdf

>  <i_m_source_file_index>  (297) 
25

>  <i_lp_mmshare_version>  (297) 
48012

>  <i_f3d_flags>  (297) 
0

>  <s_epik_input>  (297) 
TzFDKFtDSDNdKShbQ0gzXSlPW0NASF0oW0NAXTEyMylbQ0BASF00W0NAXTUoQyg9W0NIMl0pW0NIM10pW0NAQF0oW0NIM10pKE9bQ0gyXVtDQEhdNE9bQ0gyXTUpW0NASF0oW0NASF0yW0NIM10pW0NAXTYoW0NIM10pW0NASF0oW0NIMl1bQ0gyXTMpW0NAQF0oW0NIM10pKFtDSDJdW09IXSlbQ0BASF0oW09IXSlbQ0gyXVtDSDJdNg==

>  <s_epik_cmdline>  (297) 
J2VwaWtfcHl0aG9uJywgJy1waHQnLCAnMi4wJywgJy1waCcsICc3LjAnLCAnLXRuJywgJzgnLCAnLW1hJywgJzIwMCcsICctaW1hZScsICc8aW5maWxlLm1hZT4nLCAnLW9tYWUnLCAnPG91dGZpbGUubWFlPic=

>  <r_lp_tautomer_probability>  (297) 
1

>  <r_epik_Ionization_Penalty>  (297) 
1.45045e-06

>  <r_epik_Ionization_Penalty_Charging>  (297) 
0

>  <r_epik_Ionization_Penalty_Neutral>  (297) 
1.45045e-06

>  <r_epik_State_Penalty>  (297) 
-0

>  <r_epik_Charging_Adjusted_Penalty>  (297) 
0

>  <i_epik_Tot_Q>  (297) 
0

>  <i_epik_Tot_abs_Q>  (297) 
0

>  <s_lp_Force_Field>  (297) 
OPLS3e

>  <r_lp_Energy>  (297) 
142.687

>  <b_lp_Chiralities_Consistent>  (297) 
1

>  <s_lp_Variant>  (297) 
111:0-1

>  <s_i_glide_gridfile>  (297) 
pfpi4k_grid

>  <i_i_glide_lignum>  (297) 
25

>  <i_i_glide_rotatable_bonds>  (297) 
4

>  <r_i_docking_score>  (297) 
-1.69298

>  <r_i_glide_ligand_efficiency>  (297) 
-0.0483708

>  <r_i_glide_ligand_efficiency_sa>  (297) 
-0.158224

>  <r_i_glide_ligand_efficiency_ln>  (297) 
-0.371646

>  <r_i_glide_gscore>  (297) 
-1.69298

>  <r_i_glide_lipo>  (297) 
-0.122475

>  <r_i_glide_hbond>  (297) 
-0.32

>  <r_i_glide_metal>  (297) 
-0

>  <r_i_glide_rewards>  (297) 
-0.0636004

>  <r_i_glide_evdw>  (297) 
-19.2219

>  <r_i_glide_ecoul>  (297) 
-2.49333

>  <r_i_glide_erotb>  (297) 
0.169067

>  <r_i_glide_esite>  (297) 
-0.0208717

>  <r_i_glide_emodel>  (297) 
-23.2018

>  <r_i_glide_energy>  (297) 
-21.7153

>  <r_i_glide_einternal>  (297) 
0.411017

>  <r_i_glide_intrahb_reward>  (297) 
-0

>  <i_i_glide_confnum>  (297) 
1

>  <i_i_glide_posenum>  (297) 
21

>  <r_i_glide_eff_state_penalty>  (297) 
0

>  <ligand_id>  (297) 
111

>  <original_smiles>  (297) 
C=C(C)C12COC3COC1(C)C1C(C)C4(CCC5C(C)(CO)C(O)CCC51C)OC(C)(C)OC4C32

>  <smiles>  (297) 
[H]OC([H])([H])C1(C([H])([H])[H])C([H])(O[H])C([H])([H])C([H])([H])C2(C([H])([H])[H])C3([H])C([H])(C([H])([H])[H])C4(OC(C([H])([H])[H])(C([H])([H])[H])OC4([H])C4([H])C5([H])OC([H])([H])C4(C(=C([H])[H])C([H])([H])[H])C3(C([H])([H])[H])OC5([H])[H])C([H])([H])C([H])([H])C12[H]

$$$$
111:0:2
     RDKit          3D

 81 86  0  0  1  0  0  0  0  0999 V2000
    5.2744   -4.4494    6.9567 C   0  0  0  0  0  0  0  0  0  0  0  0
    4.1154   -4.4922    7.6608 C   0  0  0  0  0  0  0  0  0  0  0  0
    3.9903   -5.5675    8.7295 C   0  0  0  0  0  0  0  0  0  0  0  0
    2.9489   -3.4764    7.4941 C   0  0  2  0  0  0  0  0  0  0  0  0
    2.9028   -2.6904    8.8412 C   0  0  0  0  0  0  0  0  0  0  0  0
    2.6805   -1.3185    8.5299 O   0  0  0  0  0  0  0  0  0  0  0  0
    2.2522   -1.2697    7.1881 C   0  0  2  0  0  0  0  0  0  0  0  0
    0.7750   -1.7111    7.3096 C   0  0  0  0  0  0  0  0  0  0  0  0
    0.5100   -3.0717    6.9774 O   0  0  0  0  0  0  0  0  0  0  0  0
    1.5217   -4.0822    7.0719 C   0  0  2  0  0  0  0  0  0  0  0  0
    0.8354   -4.9283    8.1661 C   0  0  0  0  0  0  0  0  0  0  0  0
    1.6003   -4.7405    5.6138 C   0  0  2  0  0  0  0  0  0  0  0  0
    1.4077   -3.7383    4.4254 C   0  0  1  0  0  0  0  0  0  0  0  0
    0.2736   -2.6940    4.3541 C   0  0  0  0  0  0  0  0  0  0  0  0
    2.7750   -3.2375    3.9950 C   0  0  1  0  0  0  0  0  0  0  0  0
    3.6484   -4.4603    3.5713 C   0  0  0  0  0  0  0  0  0  0  0  0
    2.8603   -5.6612    2.9635 C   0  0  0  0  0  0  0  0  0  0  0  0
    2.0820   -6.7099    3.8819 C   0  0  2  0  0  0  0  0  0  0  0  0
    1.4376   -7.9109    3.0123 C   0  0  1  0  0  0  0  0  0  0  0  0
    1.8857   -7.8857    1.5213 C   0  0  0  0  0  0  0  0  0  0  0  0
    1.8412   -9.3437    3.5137 C   0  0  0  0  0  0  0  0  0  0  0  0
    3.2418   -9.5087    3.5299 O   0  0  0  0  0  0  0  0  0  0  0  0
   -0.1150   -7.7872    2.9483 C   0  0  1  0  0  0  0  0  0  0  0  0
   -0.7333   -8.9238    2.3826 O   0  0  0  0  0  0  0  0  0  0  0  0
   -0.7853   -7.5695    4.2979 C   0  0  0  0  0  0  0  0  0  0  0  0
   -0.3183   -6.2491    4.8855 C   0  0  0  0  0  0  0  0  0  0  0  0
    1.2045   -6.2147    5.1577 C   0  0  2  0  0  0  0  0  0  0  0  0
    1.4824   -7.2113    6.2956 C   0  0  0  0  0  0  0  0  0  0  0  0
    2.6006   -2.4303    2.8406 O   0  0  0  0  0  0  0  0  0  0  0  0
    3.0779   -1.1448    3.1023 C   0  0  0  0  0  0  0  0  0  0  0  0
    4.4295   -0.9563    2.3846 C   0  0  0  0  0  0  0  0  0  0  0  0
    2.0490   -0.1151    2.6396 C   0  0  0  0  0  0  0  0  0  0  0  0
    3.2450   -1.0019    4.4767 O   0  0  0  0  0  0  0  0  0  0  0  0
    3.4742   -2.2826    5.0063 C   0  0  1  0  0  0  0  0  0  0  0  0
    3.2470   -2.2648    6.5755 C   0  0  2  0  0  0  0  0  0  0  0  0
    6.0346   -5.1859    7.1421 H   0  0  0  0  0  0  0  0  0  0  0  0
    5.4966   -3.7028    6.2225 H   0  0  0  0  0  0  0  0  0  0  0  0
    3.4171   -5.2248    9.5899 H   0  0  0  0  0  0  0  0  0  0  0  0
    4.9680   -5.8754    9.0952 H   0  0  0  0  0  0  0  0  0  0  0  0
    3.5292   -6.4795    8.3567 H   0  0  0  0  0  0  0  0  0  0  0  0
    2.1545   -3.0380    9.5501 H   0  0  0  0  0  0  0  0  0  0  0  0
    3.8585   -2.7304    9.3662 H   0  0  0  0  0  0  0  0  0  0  0  0
    2.3526   -0.2531    6.8072 H   0  0  0  0  0  0  0  0  0  0  0  0
    0.4258   -1.5431    8.3311 H   0  0  0  0  0  0  0  0  0  0  0  0
    0.1348   -1.0627    6.7096 H   0  0  0  0  0  0  0  0  0  0  0  0
    1.4252   -5.7680    8.5219 H   0  0  0  0  0  0  0  0  0  0  0  0
   -0.1177   -5.3142    7.8140 H   0  0  0  0  0  0  0  0  0  0  0  0
    0.5864   -4.3435    9.0475 H   0  0  0  0  0  0  0  0  0  0  0  0
    2.6483   -4.9805    5.6763 H   0  0  0  0  0  0  0  0  0  0  0  0
    1.0328   -4.3057    3.5854 H   0  0  0  0  0  0  0  0  0  0  0  0
    0.5776   -1.7356    4.7580 H   0  0  0  0  0  0  0  0  0  0  0  0
   -0.6302   -3.0393    4.8486 H   0  0  0  0  0  0  0  0  0  0  0  0
    0.0123   -2.4922    3.3159 H   0  0  0  0  0  0  0  0  0  0  0  0
    4.3624   -4.1098    2.8239 H   0  0  0  0  0  0  0  0  0  0  0  0
    4.2821   -4.8172    4.3830 H   0  0  0  0  0  0  0  0  0  0  0  0
    2.2324   -5.2706    2.1591 H   0  0  0  0  0  0  0  0  0  0  0  0
    3.6376   -6.2173    2.4428 H   0  0  0  0  0  0  0  0  0  0  0  0
    2.9532   -7.1631    4.3670 H   0  0  0  0  0  0  0  0  0  0  0  0
    1.4293   -8.6963    0.9619 H   0  0  0  0  0  0  0  0  0  0  0  0
    2.9598   -8.0062    1.3896 H   0  0  0  0  0  0  0  0  0  0  0  0
    1.5749   -6.9782    1.0083 H   0  0  0  0  0  0  0  0  0  0  0  0
    1.4376   -9.6131    4.4918 H   0  0  0  0  0  0  0  0  0  0  0  0
    1.4307  -10.1062    2.8455 H   0  0  0  0  0  0  0  0  0  0  0  0
    3.4451  -10.4034    3.7789 H   0  0  0  0  0  0  0  0  0  0  0  0
   -0.3665   -6.9380    2.3148 H   0  0  0  0  0  0  0  0  0  0  0  0
   -0.3466   -9.1065    1.5273 H   0  0  0  0  0  0  0  0  0  0  0  0
   -1.8658   -7.5357    4.1632 H   0  0  0  0  0  0  0  0  0  0  0  0
   -0.6025   -8.4128    4.9728 H   0  0  0  0  0  0  0  0  0  0  0  0
   -0.5929   -5.4718    4.1868 H   0  0  0  0  0  0  0  0  0  0  0  0
   -0.8731   -6.0409    5.7958 H   0  0  0  0  0  0  0  0  0  0  0  0
    1.4741   -8.2568    5.9921 H   0  0  0  0  0  0  0  0  0  0  0  0
    0.7451   -7.1754    7.0875 H   0  0  0  0  0  0  0  0  0  0  0  0
    2.4751   -7.0377    6.6936 H   0  0  0  0  0  0  0  0  0  0  0  0
    5.1678   -1.6917    2.6900 H   0  0  0  0  0  0  0  0  0  0  0  0
    4.8194    0.0448    2.5854 H   0  0  0  0  0  0  0  0  0  0  0  0
    4.2773   -1.0456    1.3039 H   0  0  0  0  0  0  0  0  0  0  0  0
    1.1131   -0.2300    3.1801 H   0  0  0  0  0  0  0  0  0  0  0  0
    1.8532   -0.2277    1.5702 H   0  0  0  0  0  0  0  0  0  0  0  0
    2.4265    0.8922    2.8235 H   0  0  0  0  0  0  0  0  0  0  0  0
    4.5407   -2.4420    4.8425 H   0  0  0  0  0  0  0  0  0  0  0  0
    4.2132   -1.8637    6.8998 H   0  0  0  0  0  0  0  0  0  0  0  0
  1  2  2  0
  1 36  1  0
  1 37  1  0
  2  3  1  0
  4  2  1  1
  3 38  1  0
  3 39  1  0
  3 40  1  0
  4 10  1  0
  4 35  1  0
  4  5  1  0
  5  6  1  0
  5 41  1  0
  5 42  1  0
  6  7  1  0
  7 35  1  0
  7  8  1  0
  7 43  1  6
  8  9  1  0
  8 44  1  0
  8 45  1  0
  9 10  1  0
 10 11  1  1
 10 12  1  0
 11 46  1  0
 11 47  1  0
 11 48  1  0
 12 27  1  0
 12 13  1  0
 12 49  1  6
 13 14  1  0
 13 15  1  0
 13 50  1  6
 14 51  1  0
 14 52  1  0
 14 53  1  0
 15 34  1  0
 15 16  1  0
 15 29  1  6
 16 17  1  0
 16 54  1  0
 16 55  1  0
 17 18  1  0
 17 56  1  0
 17 57  1  0
 18 27  1  0
 18 19  1  0
 18 58  1  1
 19 20  1  6
 19 21  1  0
 19 23  1  0
 20 59  1  0
 20 60  1  0
 20 61  1  0
 21 22  1  0
 21 62  1  0
 21 63  1  0
 22 64  1  0
 23 24  1  0
 23 25  1  0
 23 65  1  6
 24 66  1  0
 25 26  1  0
 25 67  1  0
 25 68  1  0
 26 27  1  0
 26 69  1  0
 26 70  1  0
 27 28  1  1
 28 71  1  0
 28 72  1  0
 28 73  1  0
 29 30  1  0
 30 31  1  0
 30 32  1  0
 30 33  1  0
 31 74  1  0
 31 75  1  0
 31 76  1  0
 32 77  1  0
 32 78  1  0
 32 79  1  0
 33 34  1  0
 34 35  1  0
 34 80  1  1
 35 81  1  1
M  END
>  <i_m_ct_stereo_status>  (298) 
1

>  <s_m_source_file>  (298) 
/var/tmp/pbs.5076255.sched01/tmp3ug8vllb/105tp2mz_hs.sdf

>  <i_m_source_file_index>  (298) 
25

>  <i_lp_mmshare_version>  (298) 
48012

>  <i_f3d_flags>  (298) 
0

>  <s_epik_input>  (298) 
TzFDKFtDSDNdKShbQ0gzXSlPW0NASF0oW0NAXTEyMylbQ0BASF00W0NAXTUoQyg9W0NIMl0pW0NIM10pW0NAQF0oW0NIM10pKE9bQ0gyXVtDQEhdNE9bQ0gyXTUpW0NASF0oW0NASF0yW0NIM10pW0NAXTYoW0NIM10pW0NASF0oW0NIMl1bQ0gyXTMpW0NAQF0oW0NIM10pKFtDSDJdW09IXSlbQ0BASF0oW09IXSlbQ0gyXVtDSDJdNg==

>  <s_epik_cmdline>  (298) 
J2VwaWtfcHl0aG9uJywgJy1waHQnLCAnMi4wJywgJy1waCcsICc3LjAnLCAnLXRuJywgJzgnLCAnLW1hJywgJzIwMCcsICctaW1hZScsICc8aW5maWxlLm1hZT4nLCAnLW9tYWUnLCAnPG91dGZpbGUubWFlPic=

>  <r_lp_tautomer_probability>  (298) 
1

>  <r_epik_Ionization_Penalty>  (298) 
1.45045e-06

>  <r_epik_Ionization_Penalty_Charging>  (298) 
0

>  <r_epik_Ionization_Penalty_Neutral>  (298) 
1.45045e-06

>  <r_epik_State_Penalty>  (298) 
-0

>  <r_epik_Charging_Adjusted_Penalty>  (298) 
0

>  <i_epik_Tot_Q>  (298) 
0

>  <i_epik_Tot_abs_Q>  (298) 
0

>  <s_lp_Force_Field>  (298) 
OPLS3e

>  <r_lp_Energy>  (298) 
142.687

>  <b_lp_Chiralities_Consistent>  (298) 
1

>  <s_lp_Variant>  (298) 
111:0-1

>  <s_i_glide_gridfile>  (298) 
pfpi4k_grid

>  <i_i_glide_lignum>  (298) 
25

>  <i_i_glide_rotatable_bonds>  (298) 
4

>  <r_i_docking_score>  (298) 
-1.59321

>  <r_i_glide_ligand_efficiency>  (298) 
-0.0455202

>  <r_i_glide_ligand_efficiency_sa>  (298) 
-0.1489

>  <r_i_glide_ligand_efficiency_ln>  (298) 
-0.349745

>  <r_i_glide_gscore>  (298) 
-1.59321

>  <r_i_glide_lipo>  (298) 
-0.123804

>  <r_i_glide_hbond>  (298) 
-0.32

>  <r_i_glide_metal>  (298) 
-0

>  <r_i_glide_rewards>  (298) 
-0.0636004

>  <r_i_glide_evdw>  (298) 
-17.8636

>  <r_i_glide_ecoul>  (298) 
-2.40158

>  <r_i_glide_erotb>  (298) 
0.169067

>  <r_i_glide_esite>  (298) 
-0.00145274

>  <r_i_glide_emodel>  (298) 
-21.7688

>  <r_i_glide_energy>  (298) 
-20.2652

>  <r_i_glide_einternal>  (298) 
0.80865

>  <r_i_glide_intrahb_reward>  (298) 
-0

>  <i_i_glide_confnum>  (298) 
1

>  <i_i_glide_posenum>  (298) 
33

>  <r_i_glide_eff_state_penalty>  (298) 
0

>  <ligand_id>  (298) 
111

>  <original_smiles>  (298) 
C=C(C)C12COC3COC1(C)C1C(C)C4(CCC5C(C)(CO)C(O)CCC51C)OC(C)(C)OC4C32

>  <smiles>  (298) 
[H]OC([H])([H])C1(C([H])([H])[H])C([H])(O[H])C([H])([H])C([H])([H])C2(C([H])([H])[H])C3([H])C([H])(C([H])([H])[H])C4(OC(C([H])([H])[H])(C([H])([H])[H])OC4([H])C4([H])C5([H])OC([H])([H])C4(C(=C([H])[H])C([H])([H])[H])C3(C([H])([H])[H])OC5([H])[H])C([H])([H])C([H])([H])C12[H]

$$$$
112:0:0
     RDKit          3D

 78 84  0  0  1  0  0  0  0  0999 V2000
   -0.1365   -9.4840    7.2236 C   0  0  0  0  0  0  0  0  0  0  0  0
    0.7505   -8.9614    6.0871 C   0  0  2  0  0  0  0  0  0  0  0  0
   -0.0607   -8.0509    5.1257 C   0  0  0  0  0  0  0  0  0  0  0  0
    0.6329   -7.6417    3.8030 C   0  0  0  0  0  0  0  0  0  0  0  0
    2.1554   -7.3528    3.8752 C   0  0  2  0  0  0  0  0  0  0  0  0
    2.8869   -8.4896    4.6156 C   0  0  2  0  0  0  0  0  0  0  0  0
    2.2335   -9.7211    4.3354 O   0  0  0  0  0  0  0  0  0  0  0  0
    1.3036  -10.1087    5.4518 O   0  0  0  0  0  0  0  0  0  0  0  0
    3.0378   -8.2142    6.1163 C   0  0  2  0  0  0  0  0  0  0  0  0
    1.7506   -8.1810    6.7356 O   0  0  0  0  0  0  0  0  0  0  0  0
    3.7372   -6.8532    6.3913 C   0  0  1  0  0  0  0  0  0  0  0  0
    4.9493   -7.0413    7.0843 O   0  0  0  0  0  0  0  0  0  0  0  0
    3.9060   -5.9133    5.1567 C   0  0  1  0  0  0  0  0  0  0  0  0
    5.2312   -6.1440    4.3793 C   0  0  0  0  0  0  0  0  0  0  0  0
    5.3846   -5.1938    3.1987 C   0  0  0  0  0  0  0  0  0  0  0  0
    4.1937   -5.3464    2.2496 C   0  0  1  0  0  0  0  0  0  0  0  0
    2.8257   -5.0401    2.9366 C   0  0  2  0  0  0  0  0  0  0  0  0
    2.5660   -3.5006    2.9961 C   0  0  0  0  0  0  0  0  0  0  0  0
    2.6677   -2.8194    1.6017 C   0  0  0  0  0  0  0  0  0  0  0  0
    4.0419   -3.0493    0.9079 C   0  0  1  0  0  0  0  0  0  0  0  0
    5.1088   -2.2314    1.7019 C   0  0  0  0  0  0  0  0  0  0  0  0
    4.2877   -4.5754    0.9151 C   0  0  1  0  0  0  0  0  0  0  0  0
    5.4649   -4.8134   -0.0315 C   0  0  0  0  0  0  0  0  0  0  0  0
    5.4549   -3.5985   -0.9761 C   0  0  0  0  0  0  0  0  0  0  0  0
    4.1861   -2.7629   -0.6515 C   0  0  2  0  0  0  0  0  0  0  0  0
    4.4118   -1.2705   -1.0193 C   0  0  0  0  0  0  0  0  0  0  0  0
    4.5219   -1.0470   -2.5334 C   0  0  0  0  0  0  0  0  0  0  0  0
    3.2843   -1.5296   -3.2898 C   0  0  1  0  0  0  0  0  0  0  0  0
    3.4667   -1.3084   -4.6778 O   0  0  0  0  0  0  0  0  0  0  0  0
    2.9635   -3.0034   -3.0028 C   0  0  1  0  0  0  0  0  0  0  0  0
    3.9091   -3.8938   -3.6189 O   0  0  0  0  0  0  0  0  0  0  0  0
    2.9376   -3.2427   -1.4800 C   0  0  0  0  0  0  0  0  0  0  0  0
    2.6050   -5.8788    4.2669 C   0  0  1  0  0  0  0  0  0  0  0  0
    1.5086   -5.1829    5.1203 C   0  0  0  0  0  0  0  0  0  0  0  0
    0.4508  -10.1315    7.8686 H   0  0  0  0  0  0  0  0  0  0  0  0
   -0.9607  -10.0796    6.8459 H   0  0  0  0  0  0  0  0  0  0  0  0
   -0.5470   -8.6782    7.8287 H   0  0  0  0  0  0  0  0  0  0  0  0
   -0.9948   -8.5523    4.8714 H   0  0  0  0  0  0  0  0  0  0  0  0
   -0.3688   -7.1601    5.6737 H   0  0  0  0  0  0  0  0  0  0  0  0
    0.4918   -8.4769    3.1155 H   0  0  0  0  0  0  0  0  0  0  0  0
    0.1017   -6.8155    3.3315 H   0  0  0  0  0  0  0  0  0  0  0  0
    2.4808   -7.5086    2.8497 H   0  0  0  0  0  0  0  0  0  0  0  0
    3.8826   -8.5978    4.1953 H   0  0  0  0  0  0  0  0  0  0  0  0
    3.6013   -9.0383    6.5716 H   0  0  0  0  0  0  0  0  0  0  0  0
    3.1184   -6.3177    7.1096 H   0  0  0  0  0  0  0  0  0  0  0  0
    5.3334   -7.8611    6.7989 H   0  0  0  0  0  0  0  0  0  0  0  0
    4.0323   -4.9106    5.5628 H   0  0  0  0  0  0  0  0  0  0  0  0
    6.0782   -5.9674    5.0439 H   0  0  0  0  0  0  0  0  0  0  0  0
    5.3385   -7.1629    4.0193 H   0  0  0  0  0  0  0  0  0  0  0  0
    5.4744   -4.1904    3.5943 H   0  0  0  0  0  0  0  0  0  0  0  0
    6.3151   -5.4149    2.6779 H   0  0  0  0  0  0  0  0  0  0  0  0
    4.1939   -6.3995    1.9676 H   0  0  0  0  0  0  0  0  0  0  0  0
    2.0480   -5.3905    2.2529 H   0  0  0  0  0  0  0  0  0  0  0  0
    1.5592   -3.2970    3.3564 H   0  0  0  0  0  0  0  0  0  0  0  0
    3.2361   -3.0364    3.7147 H   0  0  0  0  0  0  0  0  0  0  0  0
    1.8639   -3.2346    0.9993 H   0  0  0  0  0  0  0  0  0  0  0  0
    2.4572   -1.7527    1.6829 H   0  0  0  0  0  0  0  0  0  0  0  0
    6.1257   -2.4847    1.4180 H   0  0  0  0  0  0  0  0  0  0  0  0
    5.0498   -2.3461    2.7789 H   0  0  0  0  0  0  0  0  0  0  0  0
    4.9768   -1.1625    1.5515 H   0  0  0  0  0  0  0  0  0  0  0  0
    3.4377   -5.0049    0.3896 H   0  0  0  0  0  0  0  0  0  0  0  0
    6.4293   -4.8981    0.4795 H   0  0  0  0  0  0  0  0  0  0  0  0
    5.3008   -5.7352   -0.5937 H   0  0  0  0  0  0  0  0  0  0  0  0
    6.3483   -3.0137   -0.7507 H   0  0  0  0  0  0  0  0  0  0  0  0
    5.5139   -3.9027   -2.0204 H   0  0  0  0  0  0  0  0  0  0  0  0
    3.6035   -0.6701   -0.6015 H   0  0  0  0  0  0  0  0  0  0  0  0
    5.3324   -0.8769   -0.5896 H   0  0  0  0  0  0  0  0  0  0  0  0
    4.6655    0.0111   -2.7318 H   0  0  0  0  0  0  0  0  0  0  0  0
    5.3984   -1.5691   -2.9074 H   0  0  0  0  0  0  0  0  0  0  0  0
    2.4419   -0.9290   -2.9493 H   0  0  0  0  0  0  0  0  0  0  0  0
    2.6706   -1.6187   -5.1110 H   0  0  0  0  0  0  0  0  0  0  0  0
    1.9633   -3.2428   -3.3839 H   0  0  0  0  0  0  0  0  0  0  0  0
    3.8185   -4.7203   -3.2155 H   0  0  0  0  0  0  0  0  0  0  0  0
    2.6648   -4.2725   -1.2932 H   0  0  0  0  0  0  0  0  0  0  0  0
    2.0817   -2.6671   -1.1346 H   0  0  0  0  0  0  0  0  0  0  0  0
    1.8433   -4.2091    5.4746 H   0  0  0  0  0  0  0  0  0  0  0  0
    1.2633   -5.7515    6.0107 H   0  0  0  0  0  0  0  0  0  0  0  0
    0.5878   -5.0231    4.5628 H   0  0  0  0  0  0  0  0  0  0  0  0
  2  1  1  1
  1 35  1  0
  1 36  1  0
  1 37  1  0
  2  8  1  0
  2 10  1  0
  2  3  1  0
  3  4  1  0
  3 38  1  0
  3 39  1  0
  4  5  1  0
  4 40  1  0
  4 41  1  0
  5 33  1  0
  5  6  1  0
  5 42  1  6
  6  7  1  0
  6  9  1  0
  6 43  1  6
  7  8  1  0
  9 10  1  0
  9 11  1  0
  9 44  1  1
 11 12  1  0
 11 13  1  0
 11 45  1  1
 12 46  1  0
 13 33  1  0
 13 14  1  0
 13 47  1  1
 14 15  1  0
 14 48  1  0
 14 49  1  0
 15 16  1  0
 15 50  1  0
 15 51  1  0
 16 22  1  0
 16 17  1  0
 16 52  1  6
 17 18  1  0
 17 33  1  0
 17 53  1  6
 18 19  1  0
 18 54  1  0
 18 55  1  0
 19 20  1  0
 19 56  1  0
 19 57  1  0
 20 25  1  0
 20 21  1  1
 20 22  1  0
 21 58  1  0
 21 59  1  0
 21 60  1  0
 22 23  1  0
 22 61  1  6
 23 24  1  0
 23 62  1  0
 23 63  1  0
 25 24  1  6
 24 64  1  0
 24 65  1  0
 25 32  1  0
 25 26  1  0
 26 27  1  0
 26 66  1  0
 26 67  1  0
 27 28  1  0
 27 68  1  0
 27 69  1  0
 28 29  1  0
 28 30  1  0
 28 70  1  1
 29 71  1  0
 30 31  1  0
 30 32  1  0
 30 72  1  6
 31 73  1  0
 32 74  1  0
 32 75  1  0
 33 34  1  1
 34 76  1  0
 34 77  1  0
 34 78  1  0
M  END
>  <i_m_ct_stereo_status>  (299) 
1

>  <s_m_source_file>  (299) 
/var/tmp/pbs.5076255.sched01/tmp3ug8vllb/105tp2mz_hs.sdf

>  <i_m_source_file_index>  (299) 
26

>  <i_lp_mmshare_version>  (299) 
48012

>  <i_f3d_flags>  (299) 
0

>  <s_epik_input>  (299) 
W0NIMl0xW0NIMl1bQ0BAXShbQ0gzXSkoT08yKU9bQ0BIXShbQ0BASF0oW09IXSlbQ0BIXTNbQ0gyXVtDSDJdNClbQ0BASF0yW0NAQEhdMVtDQF0zKFtDSDNdKVtDQEBIXShbQ0gyXVtDSDJdNSlbQ0BIXTRbQ0BIXShbQ0gyXVtDSDJdNilbQ0BAXTUoW0NIM10pW0NAQF02N1tDSDJdW0NIMl1bQ0BASF0oW09IXSlbQ0BASF0oW09IXSlbQ0gyXTc=

>  <s_epik_cmdline>  (299) 
J2VwaWtfcHl0aG9uJywgJy1waHQnLCAnMi4wJywgJy1waCcsICc3LjAnLCAnLXRuJywgJzgnLCAnLW1hJywgJzIwMCcsICctaW1hZScsICc8aW5maWxlLm1hZT4nLCAnLW9tYWUnLCAnPG91dGZpbGUubWFlPic=

>  <r_lp_tautomer_probability>  (299) 
1

>  <r_epik_Ionization_Penalty>  (299) 
1.54867e-06

>  <r_epik_Ionization_Penalty_Charging>  (299) 
0

>  <r_epik_Ionization_Penalty_Neutral>  (299) 
1.54867e-06

>  <r_epik_State_Penalty>  (299) 
-0

>  <r_epik_Charging_Adjusted_Penalty>  (299) 
0

>  <i_epik_Tot_Q>  (299) 
0

>  <i_epik_Tot_abs_Q>  (299) 
0

>  <s_lp_Force_Field>  (299) 
OPLS3e

>  <r_lp_Energy>  (299) 
94.8817

>  <b_lp_Chiralities_Consistent>  (299) 
1

>  <s_lp_Variant>  (299) 
112:0-1

>  <s_i_glide_gridfile>  (299) 
pfpi4k_grid

>  <i_i_glide_lignum>  (299) 
26

>  <i_i_glide_rotatable_bonds>  (299) 
3

>  <r_i_docking_score>  (299) 
-3.77374

>  <r_i_glide_ligand_efficiency>  (299) 
-0.110992

>  <r_i_glide_ligand_efficiency_sa>  (299) 
-0.359573

>  <r_i_glide_ligand_efficiency_ln>  (299) 
-0.833726

>  <r_i_glide_gscore>  (299) 
-3.77374

>  <r_i_glide_lipo>  (299) 
-0.416745

>  <r_i_glide_hbond>  (299) 
0

>  <r_i_glide_metal>  (299) 
-0

>  <r_i_glide_rewards>  (299) 
-0.159236

>  <r_i_glide_evdw>  (299) 
-30.5017

>  <r_i_glide_ecoul>  (299) 
-10.8431

>  <r_i_glide_erotb>  (299) 
0

>  <r_i_glide_esite>  (299) 
-0.0462174

>  <r_i_glide_emodel>  (299) 
-50.1082

>  <r_i_glide_energy>  (299) 
-41.3448

>  <r_i_glide_einternal>  (299) 
1.52687

>  <r_i_glide_intrahb_reward>  (299) 
-0

>  <i_i_glide_confnum>  (299) 
2

>  <i_i_glide_posenum>  (299) 
36

>  <r_i_glide_eff_state_penalty>  (299) 
0

>  <ligand_id>  (299) 
112

>  <original_smiles>  (299) 
CC12CCC3C(OO1)C(O2)C(O)C1CCC2C(CCC4(C)C2CCC42CCC(O)C(O)C2)C13C

>  <smiles>  (299) 
[H]OC1([H])C([H])([H])C([H])([H])C2(C([H])([H])C([H])([H])C3([H])C4([H])C([H])([H])C([H])([H])C5([H])C([H])(O[H])C6([H])OC7(C([H])([H])[H])OOC6([H])C([H])(C([H])([H])C7([H])[H])C5(C([H])([H])[H])C4([H])C([H])([H])C([H])([H])C32C([H])([H])[H])C([H])([H])C1([H])O[H]

$$$$
112:0:1
     RDKit          3D

 78 84  0  0  1  0  0  0  0  0999 V2000
   -2.2516    3.2539    5.9876 C   0  0  0  0  0  0  0  0  0  0  0  0
   -1.4547    2.0253    5.5296 C   0  0  2  0  0  0  0  0  0  0  0  0
   -1.3328    2.0024    3.9779 C   0  0  0  0  0  0  0  0  0  0  0  0
   -0.7823    0.6982    3.3475 C   0  0  0  0  0  0  0  0  0  0  0  0
    0.3524   -0.0260    4.1141 C   0  0  2  0  0  0  0  0  0  0  0  0
   -0.0100   -0.1692    5.6112 C   0  0  2  0  0  0  0  0  0  0  0  0
   -1.4163   -0.3883    5.7711 O   0  0  0  0  0  0  0  0  0  0  0  0
   -2.1739    0.8986    6.0713 O   0  0  0  0  0  0  0  0  0  0  0  0
    0.5244    0.9908    6.4645 C   0  0  2  0  0  0  0  0  0  0  0  0
   -0.1532    2.1920    6.0875 O   0  0  0  0  0  0  0  0  0  0  0  0
    2.0509    1.2016    6.2875 C   0  0  1  0  0  0  0  0  0  0  0  0
    2.7080    0.9762    7.5176 O   0  0  0  0  0  0  0  0  0  0  0  0
    2.7201    0.4058    5.1227 C   0  0  1  0  0  0  0  0  0  0  0  0
    3.2138   -1.0065    5.5441 C   0  0  0  0  0  0  0  0  0  0  0  0
    3.8947   -1.7538    4.4119 C   0  0  0  0  0  0  0  0  0  0  0  0
    2.9261   -1.8682    3.2364 C   0  0  1  0  0  0  0  0  0  0  0  0
    2.4527   -0.4725    2.7084 C   0  0  2  0  0  0  0  0  0  0  0  0
    3.5569    0.1689    1.8166 C   0  0  0  0  0  0  0  0  0  0  0  0
    3.9083   -0.7767    0.6676 C   0  0  0  0  0  0  0  0  0  0  0  0
    4.4695   -2.1506    1.1048 C   0  0  1  0  0  0  0  0  0  0  0  0
    5.8670   -1.9256    1.7465 C   0  0  0  0  0  0  0  0  0  0  0  0
    3.4082   -2.7430    2.0583 C   0  0  1  0  0  0  0  0  0  0  0  0
    3.7650   -4.2285    2.2281 C   0  0  0  0  0  0  0  0  0  0  0  0
    4.5617   -4.5790    0.9557 C   0  0  0  0  0  0  0  0  0  0  0  0
    4.5528   -3.3126    0.0348 C   0  0  2  0  0  0  0  0  0  0  0  0
    5.8403   -3.3618   -0.8430 C   0  0  0  0  0  0  0  0  0  0  0  0
    5.8892   -2.2464   -1.8924 C   0  0  0  0  0  0  0  0  0  0  0  0
    4.6610   -2.2626   -2.8510 C   0  0  1  0  0  0  0  0  0  0  0  0
    4.7089   -3.4350   -3.6453 O   0  0  0  0  0  0  0  0  0  0  0  0
    3.3623   -2.2379   -2.0418 C   0  0  1  0  0  0  0  0  0  0  0  0
    2.1719   -2.3442   -2.7885 O   0  0  0  0  0  0  0  0  0  0  0  0
    3.3220   -3.3460   -0.9541 C   0  0  0  0  0  0  0  0  0  0  0  0
    1.8363    0.4477    3.8246 C   0  0  1  0  0  0  0  0  0  0  0  0
    1.8613    1.9197    3.3273 C   0  0  0  0  0  0  0  0  0  0  0  0
   -2.3279    3.2630    7.0669 H   0  0  0  0  0  0  0  0  0  0  0  0
   -3.2606    3.2489    5.5966 H   0  0  0  0  0  0  0  0  0  0  0  0
   -1.7737    4.1839    5.6872 H   0  0  0  0  0  0  0  0  0  0  0  0
   -2.3099    2.1817    3.5324 H   0  0  0  0  0  0  0  0  0  0  0  0
   -0.7328    2.8556    3.6367 H   0  0  0  0  0  0  0  0  0  0  0  0
   -1.6300    0.0161    3.2958 H   0  0  0  0  0  0  0  0  0  0  0  0
   -0.5030    0.8611    2.3053 H   0  0  0  0  0  0  0  0  0  0  0  0
    0.2720   -1.0512    3.7508 H   0  0  0  0  0  0  0  0  0  0  0  0
    0.4403   -1.0860    5.9816 H   0  0  0  0  0  0  0  0  0  0  0  0
    0.2749    0.7830    7.5103 H   0  0  0  0  0  0  0  0  0  0  0  0
    2.2027    2.2631    6.0919 H   0  0  0  0  0  0  0  0  0  0  0  0
    3.5930    1.2904    7.4429 H   0  0  0  0  0  0  0  0  0  0  0  0
    3.6455    0.9350    4.8902 H   0  0  0  0  0  0  0  0  0  0  0  0
    3.9458   -0.9206    6.3431 H   0  0  0  0  0  0  0  0  0  0  0  0
    2.4181   -1.6317    5.9321 H   0  0  0  0  0  0  0  0  0  0  0  0
    4.7952   -1.2168    4.1416 H   0  0  0  0  0  0  0  0  0  0  0  0
    4.1958   -2.7515    4.7334 H   0  0  0  0  0  0  0  0  0  0  0  0
    2.0475   -2.3920    3.6074 H   0  0  0  0  0  0  0  0  0  0  0  0
    1.6310   -0.6649    2.0066 H   0  0  0  0  0  0  0  0  0  0  0  0
    3.1586    1.0482    1.3036 H   0  0  0  0  0  0  0  0  0  0  0  0
    4.4342    0.5056    2.3809 H   0  0  0  0  0  0  0  0  0  0  0  0
    2.9559   -0.9213    0.1644 H   0  0  0  0  0  0  0  0  0  0  0  0
    4.5632   -0.2593   -0.0252 H   0  0  0  0  0  0  0  0  0  0  0  0
    6.2186   -2.8101    2.2876 H   0  0  0  0  0  0  0  0  0  0  0  0
    5.8927   -1.0816    2.4309 H   0  0  0  0  0  0  0  0  0  0  0  0
    6.6198   -1.6551    1.0008 H   0  0  0  0  0  0  0  0  0  0  0  0
    2.4786   -2.7838    1.4967 H   0  0  0  0  0  0  0  0  0  0  0  0
    4.3851   -4.3902    3.1097 H   0  0  0  0  0  0  0  0  0  0  0  0
    2.8659   -4.8454    2.3124 H   0  0  0  0  0  0  0  0  0  0  0  0
    5.5837   -4.8322    1.2568 H   0  0  0  0  0  0  0  0  0  0  0  0
    4.1840   -5.4659    0.4474 H   0  0  0  0  0  0  0  0  0  0  0  0
    6.7663   -3.3869   -0.2674 H   0  0  0  0  0  0  0  0  0  0  0  0
    5.8666   -4.3044   -1.3803 H   0  0  0  0  0  0  0  0  0  0  0  0
    5.9650   -1.2975   -1.3659 H   0  0  0  0  0  0  0  0  0  0  0  0
    6.8121   -2.3207   -2.4718 H   0  0  0  0  0  0  0  0  0  0  0  0
    4.6709   -1.3470   -3.4501 H   0  0  0  0  0  0  0  0  0  0  0  0
    4.3674   -4.1188   -3.0901 H   0  0  0  0  0  0  0  0  0  0  0  0
    3.2898   -1.2275   -1.6431 H   0  0  0  0  0  0  0  0  0  0  0  0
    1.5489   -1.9347   -2.2265 H   0  0  0  0  0  0  0  0  0  0  0  0
    3.3318   -4.3147   -1.4395 H   0  0  0  0  0  0  0  0  0  0  0  0
    2.3583   -3.3401   -0.4343 H   0  0  0  0  0  0  0  0  0  0  0  0
    2.8797    2.2891    3.2078 H   0  0  0  0  0  0  0  0  0  0  0  0
    1.3926    2.5958    4.0316 H   0  0  0  0  0  0  0  0  0  0  0  0
    1.3683    2.0518    2.3644 H   0  0  0  0  0  0  0  0  0  0  0  0
  2  1  1  6
  1 35  1  0
  1 36  1  0
  1 37  1  0
  2  8  1  0
  2 10  1  0
  2  3  1  0
  3  4  1  0
  3 38  1  0
  3 39  1  0
  4  5  1  0
  4 40  1  0
  4 41  1  0
  5 33  1  0
  5  6  1  0
  5 42  1  6
  6  7  1  0
  6  9  1  0
  6 43  1  1
  7  8  1  0
  9 10  1  0
  9 11  1  0
  9 44  1  1
 11 12  1  0
 11 13  1  0
 11 45  1  6
 12 46  1  0
 13 33  1  0
 13 14  1  0
 13 47  1  6
 14 15  1  0
 14 48  1  0
 14 49  1  0
 15 16  1  0
 15 50  1  0
 15 51  1  0
 16 22  1  0
 16 17  1  0
 16 52  1  1
 17 18  1  0
 17 33  1  0
 17 53  1  6
 18 19  1  0
 18 54  1  0
 18 55  1  0
 19 20  1  0
 19 56  1  0
 19 57  1  0
 20 25  1  0
 20 21  1  1
 20 22  1  0
 21 58  1  0
 21 59  1  0
 21 60  1  0
 22 23  1  0
 22 61  1  6
 23 24  1  0
 23 62  1  0
 23 63  1  0
 25 24  1  1
 24 64  1  0
 24 65  1  0
 25 32  1  0
 25 26  1  0
 26 27  1  0
 26 66  1  0
 26 67  1  0
 27 28  1  0
 27 68  1  0
 27 69  1  0
 28 29  1  0
 28 30  1  0
 28 70  1  6
 29 71  1  0
 30 31  1  0
 30 32  1  0
 30 72  1  1
 31 73  1  0
 32 74  1  0
 32 75  1  0
 33 34  1  6
 34 76  1  0
 34 77  1  0
 34 78  1  0
M  END
>  <i_m_ct_stereo_status>  (300) 
1

>  <s_m_source_file>  (300) 
/var/tmp/pbs.5076255.sched01/tmp3ug8vllb/105tp2mz_hs.sdf

>  <i_m_source_file_index>  (300) 
26

>  <i_lp_mmshare_version>  (300) 
48012

>  <i_f3d_flags>  (300) 
0

>  <s_epik_input>  (300) 
W0NIMl0xW0NIMl1bQ0BAXShbQ0gzXSkoT08yKU9bQ0BIXShbQ0BASF0oW09IXSlbQ0BIXTNbQ0gyXVtDSDJdNClbQ0BASF0yW0NAQEhdMVtDQF0zKFtDSDNdKVtDQEBIXShbQ0gyXVtDSDJdNSlbQ0BIXTRbQ0BIXShbQ0gyXVtDSDJdNilbQ0BAXTUoW0NIM10pW0NAQF02N1tDSDJdW0NIMl1bQ0BASF0oW09IXSlbQ0BASF0oW09IXSlbQ0gyXTc=

>  <s_epik_cmdline>  (300) 
J2VwaWtfcHl0aG9uJywgJy1waHQnLCAnMi4wJywgJy1waCcsICc3LjAnLCAnLXRuJywgJzgnLCAnLW1hJywgJzIwMCcsICctaW1hZScsICc8aW5maWxlLm1hZT4nLCAnLW9tYWUnLCAnPG91dGZpbGUubWFlPic=

>  <r_lp_tautomer_probability>  (300) 
1

>  <r_epik_Ionization_Penalty>  (300) 
1.54867e-06

>  <r_epik_Ionization_Penalty_Charging>  (300) 
0

>  <r_epik_Ionization_Penalty_Neutral>  (300) 
1.54867e-06

>  <r_epik_State_Penalty>  (300) 
-0

>  <r_epik_Charging_Adjusted_Penalty>  (300) 
0

>  <i_epik_Tot_Q>  (300) 
0

>  <i_epik_Tot_abs_Q>  (300) 
0

>  <s_lp_Force_Field>  (300) 
OPLS3e

>  <r_lp_Energy>  (300) 
94.8817

>  <b_lp_Chiralities_Consistent>  (300) 
1

>  <s_lp_Variant>  (300) 
112:0-1

>  <s_i_glide_gridfile>  (300) 
pfpi4k_grid

>  <i_i_glide_lignum>  (300) 
26

>  <i_i_glide_rotatable_bonds>  (300) 
3

>  <r_i_docking_score>  (300) 
-3.53966

>  <r_i_glide_ligand_efficiency>  (300) 
-0.104108

>  <r_i_glide_ligand_efficiency_sa>  (300) 
-0.337268

>  <r_i_glide_ligand_efficiency_ln>  (300) 
-0.78201

>  <r_i_glide_gscore>  (300) 
-3.53966

>  <r_i_glide_lipo>  (300) 
-0.551722

>  <r_i_glide_hbond>  (300) 
-0.0557793

>  <r_i_glide_metal>  (300) 
-0

>  <r_i_glide_rewards>  (300) 
-0.159236

>  <r_i_glide_evdw>  (300) 
-34.859

>  <r_i_glide_ecoul>  (300) 
-6.81606

>  <r_i_glide_erotb>  (300) 
0

>  <r_i_glide_esite>  (300) 
-0.00756049

>  <r_i_glide_emodel>  (300) 
-48.6382

>  <r_i_glide_energy>  (300) 
-41.6751

>  <r_i_glide_einternal>  (300) 
1.1273

>  <r_i_glide_intrahb_reward>  (300) 
-0

>  <i_i_glide_confnum>  (300) 
1

>  <i_i_glide_posenum>  (300) 
7

>  <r_i_glide_eff_state_penalty>  (300) 
0

>  <ligand_id>  (300) 
112

>  <original_smiles>  (300) 
CC12CCC3C(OO1)C(O2)C(O)C1CCC2C(CCC4(C)C2CCC42CCC(O)C(O)C2)C13C

>  <smiles>  (300) 
[H]OC1([H])C([H])([H])C([H])([H])C2(C([H])([H])C([H])([H])C3([H])C4([H])C([H])([H])C([H])([H])C5([H])C([H])(O[H])C6([H])OC7(C([H])([H])[H])OOC6([H])C([H])(C([H])([H])C7([H])[H])C5(C([H])([H])[H])C4([H])C([H])([H])C([H])([H])C32C([H])([H])[H])C([H])([H])C1([H])O[H]

$$$$
112:0:2
     RDKit          3D

 78 84  0  0  1  0  0  0  0  0999 V2000
   -2.3097    3.3146    5.6624 C   0  0  0  0  0  0  0  0  0  0  0  0
   -1.4392    2.1014    5.3088 C   0  0  2  0  0  0  0  0  0  0  0  0
   -1.3825    1.9121    3.7647 C   0  0  0  0  0  0  0  0  0  0  0  0
   -0.7655    0.5853    3.2649 C   0  0  0  0  0  0  0  0  0  0  0  0
    0.4462    0.0351    4.0549 C   0  0  2  0  0  0  0  0  0  0  0  0
    0.1543    0.0380    5.5669 C   0  0  2  0  0  0  0  0  0  0  0  0
   -1.2192   -0.2618    5.8009 O   0  0  0  0  0  0  0  0  0  0  0  0
   -2.0123    1.0103    6.0247 O   0  0  0  0  0  0  0  0  0  0  0  0
    0.6240    1.3132    6.2645 C   0  0  2  0  0  0  0  0  0  0  0  0
   -0.1426    2.4270    5.7879 O   0  0  0  0  0  0  0  0  0  0  0  0
    2.1279    1.6097    5.9906 C   0  0  1  0  0  0  0  0  0  0  0  0
    2.8682    1.5967    7.1947 O   0  0  0  0  0  0  0  0  0  0  0  0
    2.8128    0.7388    4.8925 C   0  0  1  0  0  0  0  0  0  0  0  0
    3.4292   -0.5754    5.4462 C   0  0  0  0  0  0  0  0  0  0  0  0
    4.1192   -1.3986    4.3750 C   0  0  0  0  0  0  0  0  0  0  0  0
    3.1151   -1.7182    3.2697 C   0  0  1  0  0  0  0  0  0  0  0  0
    2.5170   -0.4275    2.6142 C   0  0  2  0  0  0  0  0  0  0  0  0
    3.5270    0.1712    1.6037 C   0  0  0  0  0  0  0  0  0  0  0  0
    3.8930   -0.8678    0.5492 C   0  0  0  0  0  0  0  0  0  0  0  0
    4.5918   -2.1285    1.1130 C   0  0  1  0  0  0  0  0  0  0  0  0
    5.9986   -1.7335    1.6546 C   0  0  0  0  0  0  0  0  0  0  0  0
    3.6200   -2.6857    2.1748 C   0  0  1  0  0  0  0  0  0  0  0  0
    4.0914   -4.1105    2.4943 C   0  0  0  0  0  0  0  0  0  0  0  0
    4.8556   -4.5416    1.2256 C   0  0  0  0  0  0  0  0  0  0  0  0
    4.7201   -3.3893    0.1790 C   0  0  2  0  0  0  0  0  0  0  0  0
    5.9664   -3.4501   -0.7523 C   0  0  0  0  0  0  0  0  0  0  0  0
    5.9034   -2.4723   -1.9356 C   0  0  0  0  0  0  0  0  0  0  0  0
    4.6425   -2.6646   -2.8210 C   0  0  1  0  0  0  0  0  0  0  0  0
    4.7037   -3.9059   -3.5033 O   0  0  0  0  0  0  0  0  0  0  0  0
    3.3570   -2.6157   -1.9553 C   0  0  1  0  0  0  0  0  0  0  0  0
    2.2086   -2.9679   -2.7344 O   0  0  0  0  0  0  0  0  0  0  0  0
    3.4572   -3.6274   -0.7434 C   0  0  0  0  0  0  0  0  0  0  0  0
    1.8787    0.5725    3.6413 C   0  0  1  0  0  0  0  0  0  0  0  0
    1.7775    1.9732    2.9786 C   0  0  0  0  0  0  0  0  0  0  0  0
   -2.3440    3.4426    6.7416 H   0  0  0  0  0  0  0  0  0  0  0  0
   -3.3366    3.1919    5.3244 H   0  0  0  0  0  0  0  0  0  0  0  0
   -1.9170    4.2327    5.2355 H   0  0  0  0  0  0  0  0  0  0  0  0
   -2.3875    1.9753    3.3564 H   0  0  0  0  0  0  0  0  0  0  0  0
   -0.8620    2.7549    3.3146 H   0  0  0  0  0  0  0  0  0  0  0  0
   -1.5579   -0.1581    3.3319 H   0  0  0  0  0  0  0  0  0  0  0  0
   -0.5395    0.6429    2.2010 H   0  0  0  0  0  0  0  0  0  0  0  0
    0.4337   -1.0251    3.8117 H   0  0  0  0  0  0  0  0  0  0  0  0
    0.6849   -0.7907    6.0118 H   0  0  0  0  0  0  0  0  0  0  0  0
    0.4420    1.2183    7.3431 H   0  0  0  0  0  0  0  0  0  0  0  0
    2.1980    2.6432    5.6703 H   0  0  0  0  0  0  0  0  0  0  0  0
    2.8598    0.7279    7.5478 H   0  0  0  0  0  0  0  0  0  0  0  0
    3.6898    1.3031    4.5656 H   0  0  0  0  0  0  0  0  0  0  0  0
    4.1915   -0.3454    6.1862 H   0  0  0  0  0  0  0  0  0  0  0  0
    2.6963   -1.2104    5.9345 H   0  0  0  0  0  0  0  0  0  0  0  0
    4.9630   -0.8316    4.0030 H   0  0  0  0  0  0  0  0  0  0  0  0
    4.5077   -2.3294    4.7917 H   0  0  0  0  0  0  0  0  0  0  0  0
    2.2955   -2.2567    3.7401 H   0  0  0  0  0  0  0  0  0  0  0  0
    1.6864   -0.7512    1.9742 H   0  0  0  0  0  0  0  0  0  0  0  0
    3.0609    0.9576    1.0114 H   0  0  0  0  0  0  0  0  0  0  0  0
    4.4104    0.6018    2.0961 H   0  0  0  0  0  0  0  0  0  0  0  0
    2.9599   -1.1480    0.1012 H   0  0  0  0  0  0  0  0  0  0  0  0
    4.4863   -0.3740   -0.2200 H   0  0  0  0  0  0  0  0  0  0  0  0
    6.4413   -2.5293    2.2594 H   0  0  0  0  0  0  0  0  0  0  0  0
    5.9926   -0.8212    2.2388 H   0  0  0  0  0  0  0  0  0  0  0  0
    6.6902   -1.5020    0.8421 H   0  0  0  0  0  0  0  0  0  0  0  0
    2.6791   -2.8564    1.6572 H   0  0  0  0  0  0  0  0  0  0  0  0
    4.7584   -4.1357    3.3551 H   0  0  0  0  0  0  0  0  0  0  0  0
    3.2437   -4.7725    2.6868 H   0  0  0  0  0  0  0  0  0  0  0  0
    5.9086   -4.6977    1.5057 H   0  0  0  0  0  0  0  0  0  0  0  0
    4.5188   -5.5017    0.8355 H   0  0  0  0  0  0  0  0  0  0  0  0
    6.9226   -3.3559   -0.2297 H   0  0  0  0  0  0  0  0  0  0  0  0
    6.0272   -4.4551   -1.1524 H   0  0  0  0  0  0  0  0  0  0  0  0
    5.9330   -1.4604   -1.5292 H   0  0  0  0  0  0  0  0  0  0  0  0
    6.8043   -2.5642   -2.5510 H   0  0  0  0  0  0  0  0  0  0  0  0
    4.5656   -1.8330   -3.5241 H   0  0  0  0  0  0  0  0  0  0  0  0
    4.3798   -4.5457   -2.8915 H   0  0  0  0  0  0  0  0  0  0  0  0
    3.2131   -1.6080   -1.6730 H   0  0  0  0  0  0  0  0  0  0  0  0
    2.1473   -3.8962   -2.9400 H   0  0  0  0  0  0  0  0  0  0  0  0
    3.5425   -4.6241   -1.1173 H   0  0  0  0  0  0  0  0  0  0  0  0
    2.5097   -3.6338   -0.2004 H   0  0  0  0  0  0  0  0  0  0  0  0
    2.7607    2.3968    2.7725 H   0  0  0  0  0  0  0  0  0  0  0  0
    1.2892    2.6935    3.6238 H   0  0  0  0  0  0  0  0  0  0  0  0
    1.2374    1.9563    2.0325 H   0  0  0  0  0  0  0  0  0  0  0  0
  2  1  1  6
  1 35  1  0
  1 36  1  0
  1 37  1  0
  2  8  1  0
  2 10  1  0
  2  3  1  0
  3  4  1  0
  3 38  1  0
  3 39  1  0
  4  5  1  0
  4 40  1  0
  4 41  1  0
  5 33  1  0
  5  6  1  0
  5 42  1  6
  6  7  1  0
  6  9  1  0
  6 43  1  1
  7  8  1  0
  9 10  1  0
  9 11  1  0
  9 44  1  1
 11 12  1  0
 11 13  1  0
 11 45  1  6
 12 46  1  0
 13 33  1  0
 13 14  1  0
 13 47  1  6
 14 15  1  0
 14 48  1  0
 14 49  1  0
 15 16  1  0
 15 50  1  0
 15 51  1  0
 16 22  1  0
 16 17  1  0
 16 52  1  1
 17 18  1  0
 17 33  1  0
 17 53  1  6
 18 19  1  0
 18 54  1  0
 18 55  1  0
 19 20  1  0
 19 56  1  0
 19 57  1  0
 20 25  1  0
 20 21  1  1
 20 22  1  0
 21 58  1  0
 21 59  1  0
 21 60  1  0
 22 23  1  0
 22 61  1  6
 23 24  1  0
 23 62  1  0
 23 63  1  0
 25 24  1  1
 24 64  1  0
 24 65  1  0
 25 32  1  0
 25 26  1  0
 26 27  1  0
 26 66  1  0
 26 67  1  0
 27 28  1  0
 27 68  1  0
 27 69  1  0
 28 29  1  0
 28 30  1  0
 28 70  1  6
 29 71  1  0
 30 31  1  0
 30 32  1  0
 30 72  1  1
 31 73  1  0
 32 74  1  0
 32 75  1  0
 33 34  1  6
 34 76  1  0
 34 77  1  0
 34 78  1  0
M  END
>  <i_m_ct_stereo_status>  (301) 
1

>  <s_m_source_file>  (301) 
/var/tmp/pbs.5076255.sched01/tmp3ug8vllb/105tp2mz_hs.sdf

>  <i_m_source_file_index>  (301) 
26

>  <i_lp_mmshare_version>  (301) 
48012

>  <i_f3d_flags>  (301) 
0

>  <s_epik_input>  (301) 
W0NIMl0xW0NIMl1bQ0BAXShbQ0gzXSkoT08yKU9bQ0BIXShbQ0BASF0oW09IXSlbQ0BIXTNbQ0gyXVtDSDJdNClbQ0BASF0yW0NAQEhdMVtDQF0zKFtDSDNdKVtDQEBIXShbQ0gyXVtDSDJdNSlbQ0BIXTRbQ0BIXShbQ0gyXVtDSDJdNilbQ0BAXTUoW0NIM10pW0NAQF02N1tDSDJdW0NIMl1bQ0BASF0oW09IXSlbQ0BASF0oW09IXSlbQ0gyXTc=

>  <s_epik_cmdline>  (301) 
J2VwaWtfcHl0aG9uJywgJy1waHQnLCAnMi4wJywgJy1waCcsICc3LjAnLCAnLXRuJywgJzgnLCAnLW1hJywgJzIwMCcsICctaW1hZScsICc8aW5maWxlLm1hZT4nLCAnLW9tYWUnLCAnPG91dGZpbGUubWFlPic=

>  <r_lp_tautomer_probability>  (301) 
1

>  <r_epik_Ionization_Penalty>  (301) 
1.54867e-06

>  <r_epik_Ionization_Penalty_Charging>  (301) 
0

>  <r_epik_Ionization_Penalty_Neutral>  (301) 
1.54867e-06

>  <r_epik_State_Penalty>  (301) 
-0

>  <r_epik_Charging_Adjusted_Penalty>  (301) 
0

>  <i_epik_Tot_Q>  (301) 
0

>  <i_epik_Tot_abs_Q>  (301) 
0

>  <s_lp_Force_Field>  (301) 
OPLS3e

>  <r_lp_Energy>  (301) 
94.8817

>  <b_lp_Chiralities_Consistent>  (301) 
1

>  <s_lp_Variant>  (301) 
112:0-1

>  <s_i_glide_gridfile>  (301) 
pfpi4k_grid

>  <i_i_glide_lignum>  (301) 
26

>  <i_i_glide_rotatable_bonds>  (301) 
3

>  <r_i_docking_score>  (301) 
-3.46395

>  <r_i_glide_ligand_efficiency>  (301) 
-0.101881

>  <r_i_glide_ligand_efficiency_sa>  (301) 
-0.330055

>  <r_i_glide_ligand_efficiency_ln>  (301) 
-0.765285

>  <r_i_glide_gscore>  (301) 
-3.46395

>  <r_i_glide_lipo>  (301) 
-0.4909

>  <r_i_glide_hbond>  (301) 
0

>  <r_i_glide_metal>  (301) 
-0

>  <r_i_glide_rewards>  (301) 
-0.159236

>  <r_i_glide_evdw>  (301) 
-36.9774

>  <r_i_glide_ecoul>  (301) 
-6.38801

>  <r_i_glide_erotb>  (301) 
0

>  <r_i_glide_esite>  (301) 
-0.00674661

>  <r_i_glide_emodel>  (301) 
-50.57

>  <r_i_glide_energy>  (301) 
-43.3654

>  <r_i_glide_einternal>  (301) 
0.62316

>  <r_i_glide_intrahb_reward>  (301) 
-0

>  <i_i_glide_confnum>  (301) 
3

>  <i_i_glide_posenum>  (301) 
13

>  <r_i_glide_eff_state_penalty>  (301) 
0

>  <ligand_id>  (301) 
112

>  <original_smiles>  (301) 
CC12CCC3C(OO1)C(O2)C(O)C1CCC2C(CCC4(C)C2CCC42CCC(O)C(O)C2)C13C

>  <smiles>  (301) 
[H]OC1([H])C([H])([H])C([H])([H])C2(C([H])([H])C([H])([H])C3([H])C4([H])C([H])([H])C([H])([H])C5([H])C([H])(O[H])C6([H])OC7(C([H])([H])[H])OOC6([H])C([H])(C([H])([H])C7([H])[H])C5(C([H])([H])[H])C4([H])C([H])([H])C([H])([H])C32C([H])([H])[H])C([H])([H])C1([H])O[H]

$$$$
113:3:0
     RDKit          3D

 28 30  0  0  1  0  0  0  0  0999 V2000
   -2.5828    3.1047    5.9912 C   0  0  0  0  0  0  0  0  0  0  0  0
   -1.7772    2.4884    4.9168 N   0  0  0  0  0  0  0  0  0  0  0  0
   -1.4608    3.2496    3.8326 C   0  0  0  0  0  0  0  0  0  0  0  0
   -1.8061    4.4273    3.7027 O   0  0  0  0  0  0  0  0  0  0  0  0
   -0.7254    2.6652    2.8793 N   0  0  0  0  0  0  0  0  0  0  0  0
   -0.2550    1.4098    2.8682 C   0  0  0  0  0  0  0  0  0  0  0  0
    0.4307    1.0448    1.9146 O   0  0  0  0  0  0  0  0  0  0  0  0
   -0.5844    0.5563    4.0250 C   0  0  0  0  0  0  0  0  0  0  0  0
   -0.1019   -0.7216    4.0046 C   0  0  0  0  0  0  0  0  0  0  0  0
   -0.1679   -1.9054    4.8994 C   0  0  0  0  0  0  0  0  0  0  0  0
   -0.8614   -1.9948    6.0708 N   0  0  0  0  0  0  0  0  0  0  0  0
   -0.5943   -3.2279    6.4918 C   0  0  0  0  0  0  0  0  0  0  0  0
   -1.0066   -3.8717    7.5961 N   0  0  0  0  0  0  0  0  0  0  0  0
   -0.5892   -5.1257    7.7425 C   0  0  0  0  0  0  0  0  0  0  0  0
    0.2377   -5.8086    6.8160 C   0  0  0  0  0  0  0  0  0  0  0  0
    0.6544   -5.1394    5.6891 C   0  0  0  0  0  0  0  0  0  0  0  0
    0.2292   -3.8528    5.5456 N   0  0  0  0  0  0  0  0  0  0  0  0
    0.4998   -2.9957    4.5332 N   0  0  0  0  0  0  0  0  0  0  0  0
   -1.4024    1.1825    5.0934 C   0  0  0  0  0  0  0  0  0  0  0  0
   -1.7644    0.5972    6.1180 O   0  0  0  0  0  0  0  0  0  0  0  0
   -2.8710    4.1417    5.8185 H   0  0  0  0  0  0  0  0  0  0  0  0
   -2.0460    3.0908    6.9395 H   0  0  0  0  0  0  0  0  0  0  0  0
   -3.5131    2.5629    6.1370 H   0  0  0  0  0  0  0  0  0  0  0  0
   -0.4711    3.2526    2.0834 H   0  0  0  0  0  0  0  0  0  0  0  0
    0.4755   -0.9768    3.1278 H   0  0  0  0  0  0  0  0  0  0  0  0
   -0.9256   -5.6380    8.6381 H   0  0  0  0  0  0  0  0  0  0  0  0
    0.5439   -6.8323    6.9900 H   0  0  0  0  0  0  0  0  0  0  0  0
    1.2924   -5.5642    4.9169 H   0  0  0  0  0  0  0  0  0  0  0  0
  1  2  1  0
  1 21  1  0
  1 22  1  0
  1 23  1  0
  2 19  1  0
  2  3  1  0
  3  4  2  0
  3  5  1  0
  5  6  1  0
  5 24  1  0
  6  7  2  0
  6  8  1  0
  8  9  2  3
  8 19  1  0
  9 10  1  0
  9 25  1  0
 10 18  2  0
 10 11  1  0
 11 12  2  0
 12 17  1  0
 12 13  1  0
 13 14  2  0
 14 15  1  0
 14 26  1  0
 15 16  2  0
 15 27  1  0
 16 17  1  0
 16 28  1  0
 17 18  1  0
 19 20  2  0
M  END
>  <i_m_ct_stereo_status>  (302) 
1

>  <s_m_source_file>  (302) 
/var/tmp/pbs.5076255.sched01/tmp3ug8vllb/105tp2mz_hs.sdf

>  <i_m_source_file_index>  (302) 
30

>  <i_lp_mmshare_version>  (302) 
48012

>  <i_f3d_flags>  (302) 
0

>  <s_epik_input>  (302) 
W0NIM11OMUMoPU8pW05IXUMoPU8pL0MoQzE9Tyk9W0NIXVxjKG4yKW5uKGMyMylbY0hdW2NIXVtjSF1uMw==

>  <s_epik_cmdline>  (302) 
J2VwaWtfcHl0aG9uJywgJy1waHQnLCAnMi4wJywgJy1waCcsICc3LjAnLCAnLXRuJywgJzgnLCAnLW1hJywgJzIwMCcsICctaW1hZScsICc8aW5maWxlLm1hZT4nLCAnLW9tYWUnLCAnPG91dGZpbGUubWFlPic=

>  <r_epik_Ionization_Penalty>  (302) 
1.52891

>  <r_epik_Ionization_Penalty_Charging>  (302) 
0

>  <r_epik_Ionization_Penalty_Neutral>  (302) 
1.52891

>  <r_epik_State_Penalty>  (302) 
1.62137

>  <r_epik_Charging_Adjusted_Penalty>  (302) 
1.62137

>  <i_epik_Tot_Q>  (302) 
0

>  <i_epik_Tot_abs_Q>  (302) 
0

>  <s_lp_Force_Field>  (302) 
OPLS3e

>  <r_lp_Energy>  (302) 
38.4728

>  <b_lp_Chiralities_Consistent>  (302) 
1

>  <s_lp_Variant>  (302) 
113:0-4

>  <s_i_glide_gridfile>  (302) 
pfpi4k_grid

>  <i_i_glide_lignum>  (302) 
30

>  <i_i_glide_rotatable_bonds>  (302) 
1

>  <r_i_docking_score>  (302) 
-4.74311

>  <r_i_glide_ligand_efficiency>  (302) 
-0.237155

>  <r_i_glide_ligand_efficiency_sa>  (302) 
-0.643739

>  <r_i_glide_ligand_efficiency_ln>  (302) 
-1.18704

>  <r_i_glide_gscore>  (302) 
-4.74311

>  <r_i_glide_lipo>  (302) 
-0.123462

>  <r_i_glide_hbond>  (302) 
-0.394421

>  <r_i_glide_metal>  (302) 
-0

>  <r_i_glide_rewards>  (302) 
-1.55305

>  <r_i_glide_evdw>  (302) 
-23.6059

>  <r_i_glide_ecoul>  (302) 
-8.1389

>  <r_i_glide_erotb>  (302) 
0

>  <r_i_glide_esite>  (302) 
-0.271046

>  <r_i_glide_emodel>  (302) 
-42.9769

>  <r_i_glide_energy>  (302) 
-31.7448

>  <r_i_glide_einternal>  (302) 
0.0192847

>  <r_i_glide_intrahb_reward>  (302) 
-0

>  <i_i_glide_confnum>  (302) 
1

>  <i_i_glide_posenum>  (302) 
35

>  <r_i_glide_eff_state_penalty>  (302) 
0

>  <ligand_id>  (302) 
113

>  <original_smiles>  (302) 
CN1C(=O)NC(=O)C(=Cc2nc3ncccn3n2)C1=O

>  <smiles>  (302) 
[H]C(=C1C(=O)N([H])C(=O)N(C([H])([H])[H])C1=O)c1nc2nc([H])c([H])c([H])n2n1

$$$$
113:3:1
     RDKit          3D

 28 30  0  0  1  0  0  0  0  0999 V2000
   -0.6845   -9.3388    2.7058 C   0  0  0  0  0  0  0  0  0  0  0  0
    0.7853   -9.5006    2.7130 N   0  0  0  0  0  0  0  0  0  0  0  0
    1.3033  -10.6287    3.2709 C   0  0  0  0  0  0  0  0  0  0  0  0
    0.6200  -11.5234    3.7656 O   0  0  0  0  0  0  0  0  0  0  0  0
    2.6370  -10.7533    3.2619 N   0  0  0  0  0  0  0  0  0  0  0  0
    3.5318   -9.8929    2.7552 C   0  0  0  0  0  0  0  0  0  0  0  0
    4.7283  -10.1675    2.8496 O   0  0  0  0  0  0  0  0  0  0  0  0
    3.0038   -8.6625    2.1333 C   0  0  0  0  0  0  0  0  0  0  0  0
    3.9200   -7.7893    1.6171 C   0  0  0  0  0  0  0  0  0  0  0  0
    3.8784   -6.4694    0.9379 C   0  0  0  0  0  0  0  0  0  0  0  0
    2.7678   -5.7043    0.7345 N   0  0  0  0  0  0  0  0  0  0  0  0
    3.2427   -4.6449    0.0824 C   0  0  0  0  0  0  0  0  0  0  0  0
    2.6138   -3.5529   -0.3805 N   0  0  0  0  0  0  0  0  0  0  0  0
    3.3631   -2.6427   -0.9953 C   0  0  0  0  0  0  0  0  0  0  0  0
    4.7660   -2.7462   -1.1717 C   0  0  0  0  0  0  0  0  0  0  0  0
    5.4030   -3.8664   -0.6868 C   0  0  0  0  0  0  0  0  0  0  0  0
    4.6307   -4.8030   -0.0698 N   0  0  0  0  0  0  0  0  0  0  0  0
    5.0257   -5.9768    0.4799 N   0  0  0  0  0  0  0  0  0  0  0  0
    1.5262   -8.5008    2.1402 C   0  0  0  0  0  0  0  0  0  0  0  0
    0.9417   -7.5247    1.6691 O   0  0  0  0  0  0  0  0  0  0  0  0
   -1.2420  -10.1551    3.1624 H   0  0  0  0  0  0  0  0  0  0  0  0
   -1.0569   -9.2513    1.6841 H   0  0  0  0  0  0  0  0  0  0  0  0
   -0.9702   -8.4371    3.2480 H   0  0  0  0  0  0  0  0  0  0  0  0
    3.0035  -11.6007    3.6688 H   0  0  0  0  0  0  0  0  0  0  0  0
    4.9523   -8.0971    1.7233 H   0  0  0  0  0  0  0  0  0  0  0  0
    2.8407   -1.7691   -1.3716 H   0  0  0  0  0  0  0  0  0  0  0  0
    5.3207   -1.9630   -1.6757 H   0  0  0  0  0  0  0  0  0  0  0  0
    6.4707   -4.0504   -0.7600 H   0  0  0  0  0  0  0  0  0  0  0  0
  1  2  1  0
  1 21  1  0
  1 22  1  0
  1 23  1  0
  2 19  1  0
  2  3  1  0
  3  4  2  0
  3  5  1  0
  5  6  1  0
  5 24  1  0
  6  7  2  0
  6  8  1  0
  8  9  2  3
  8 19  1  0
  9 10  1  0
  9 25  1  0
 10 18  2  0
 10 11  1  0
 11 12  2  0
 12 17  1  0
 12 13  1  0
 13 14  2  0
 14 15  1  0
 14 26  1  0
 15 16  2  0
 15 27  1  0
 16 17  1  0
 16 28  1  0
 17 18  1  0
 19 20  2  0
M  END
>  <i_m_ct_stereo_status>  (303) 
1

>  <s_m_source_file>  (303) 
/var/tmp/pbs.5076255.sched01/tmp3ug8vllb/105tp2mz_hs.sdf

>  <i_m_source_file_index>  (303) 
30

>  <i_lp_mmshare_version>  (303) 
48012

>  <i_f3d_flags>  (303) 
0

>  <s_epik_input>  (303) 
W0NIM11OMUMoPU8pW05IXUMoPU8pL0MoQzE9Tyk9W0NIXVxjKG4yKW5uKGMyMylbY0hdW2NIXVtjSF1uMw==

>  <s_epik_cmdline>  (303) 
J2VwaWtfcHl0aG9uJywgJy1waHQnLCAnMi4wJywgJy1waCcsICc3LjAnLCAnLXRuJywgJzgnLCAnLW1hJywgJzIwMCcsICctaW1hZScsICc8aW5maWxlLm1hZT4nLCAnLW9tYWUnLCAnPG91dGZpbGUubWFlPic=

>  <r_epik_Ionization_Penalty>  (303) 
1.52891

>  <r_epik_Ionization_Penalty_Charging>  (303) 
0

>  <r_epik_Ionization_Penalty_Neutral>  (303) 
1.52891

>  <r_epik_State_Penalty>  (303) 
1.62137

>  <r_epik_Charging_Adjusted_Penalty>  (303) 
1.62137

>  <i_epik_Tot_Q>  (303) 
0

>  <i_epik_Tot_abs_Q>  (303) 
0

>  <s_lp_Force_Field>  (303) 
OPLS3e

>  <r_lp_Energy>  (303) 
38.4728

>  <b_lp_Chiralities_Consistent>  (303) 
1

>  <s_lp_Variant>  (303) 
113:0-4

>  <s_i_glide_gridfile>  (303) 
pfpi4k_grid

>  <i_i_glide_lignum>  (303) 
30

>  <i_i_glide_rotatable_bonds>  (303) 
1

>  <r_i_docking_score>  (303) 
-3.85933

>  <r_i_glide_ligand_efficiency>  (303) 
-0.192967

>  <r_i_glide_ligand_efficiency_sa>  (303) 
-0.523792

>  <r_i_glide_ligand_efficiency_ln>  (303) 
-0.965863

>  <r_i_glide_gscore>  (303) 
-3.85933

>  <r_i_glide_lipo>  (303) 
-0.116904

>  <r_i_glide_hbond>  (303) 
0

>  <r_i_glide_metal>  (303) 
-0

>  <r_i_glide_rewards>  (303) 
-1.90132

>  <r_i_glide_evdw>  (303) 
-27.664

>  <r_i_glide_ecoul>  (303) 
-2.45074

>  <r_i_glide_erotb>  (303) 
0

>  <r_i_glide_esite>  (303) 
-0.0902986

>  <r_i_glide_emodel>  (303) 
-39.2128

>  <r_i_glide_energy>  (303) 
-30.1148

>  <r_i_glide_einternal>  (303) 
0.0693197

>  <r_i_glide_intrahb_reward>  (303) 
-0

>  <i_i_glide_confnum>  (303) 
1

>  <i_i_glide_posenum>  (303) 
3

>  <r_i_glide_eff_state_penalty>  (303) 
0

>  <ligand_id>  (303) 
113

>  <original_smiles>  (303) 
CN1C(=O)NC(=O)C(=Cc2nc3ncccn3n2)C1=O

>  <smiles>  (303) 
[H]C(=C1C(=O)N([H])C(=O)N(C([H])([H])[H])C1=O)c1nc2nc([H])c([H])c([H])n2n1

$$$$
113:3:2
     RDKit          3D

 28 30  0  0  1  0  0  0  0  0999 V2000
    1.1895   -0.7968    3.2497 C   0  0  0  0  0  0  0  0  0  0  0  0
    2.2820   -0.9266    2.2599 N   0  0  0  0  0  0  0  0  0  0  0  0
    2.8278    0.2109    1.7521 C   0  0  0  0  0  0  0  0  0  0  0  0
    2.4562    1.3396    2.0730 O   0  0  0  0  0  0  0  0  0  0  0  0
    3.8377    0.0695    0.8797 N   0  0  0  0  0  0  0  0  0  0  0  0
    4.3736   -1.0727    0.4175 C   0  0  0  0  0  0  0  0  0  0  0  0
    5.2946   -1.0164   -0.3967 O   0  0  0  0  0  0  0  0  0  0  0  0
    3.8014   -2.3258    0.9478 C   0  0  0  0  0  0  0  0  0  0  0  0
    4.3536   -3.4990    0.5143 C   0  0  0  0  0  0  0  0  0  0  0  0
    4.0334   -4.9240    0.7534 C   0  0  0  0  0  0  0  0  0  0  0  0
    5.0062   -5.8646    0.5688 N   0  0  0  0  0  0  0  0  0  0  0  0
    4.3920   -7.0031    0.8858 C   0  0  0  0  0  0  0  0  0  0  0  0
    4.8341   -8.2773    0.8906 N   0  0  0  0  0  0  0  0  0  0  0  0
    3.9668   -9.2116    1.2813 C   0  0  0  0  0  0  0  0  0  0  0  0
    2.6365   -8.9375    1.6900 C   0  0  0  0  0  0  0  0  0  0  0  0
    2.2011   -7.6340    1.6887 C   0  0  0  0  0  0  0  0  0  0  0  0
    3.0768   -6.6883    1.2715 N   0  0  0  0  0  0  0  0  0  0  0  0
    2.8456   -5.3638    1.1456 N   0  0  0  0  0  0  0  0  0  0  0  0
    2.7035   -2.1868    1.9440 C   0  0  0  0  0  0  0  0  0  0  0  0
    2.1745   -3.1348    2.5260 O   0  0  0  0  0  0  0  0  0  0  0  0
    0.8867    0.2208    3.4951 H   0  0  0  0  0  0  0  0  0  0  0  0
    1.4663   -1.2619    4.1967 H   0  0  0  0  0  0  0  0  0  0  0  0
    0.2912   -1.2958    2.8863 H   0  0  0  0  0  0  0  0  0  0  0  0
    4.2209    0.9268    0.5158 H   0  0  0  0  0  0  0  0  0  0  0  0
    5.1733   -3.4175   -0.1915 H   0  0  0  0  0  0  0  0  0  0  0  0
    4.3112  -10.2432    1.2794 H   0  0  0  0  0  0  0  0  0  0  0  0
    1.9599   -9.7262    1.9977 H   0  0  0  0  0  0  0  0  0  0  0  0
    1.2147   -7.3008    1.9851 H   0  0  0  0  0  0  0  0  0  0  0  0
  1  2  1  0
  1 21  1  0
  1 22  1  0
  1 23  1  0
  2 19  1  0
  2  3  1  0
  3  4  2  0
  3  5  1  0
  5  6  1  0
  5 24  1  0
  6  7  2  0
  6  8  1  0
  8  9  2  3
  8 19  1  0
  9 10  1  0
  9 25  1  0
 10 18  2  0
 10 11  1  0
 11 12  2  0
 12 17  1  0
 12 13  1  0
 13 14  2  0
 14 15  1  0
 14 26  1  0
 15 16  2  0
 15 27  1  0
 16 17  1  0
 16 28  1  0
 17 18  1  0
 19 20  2  0
M  END
>  <i_m_ct_stereo_status>  (304) 
1

>  <s_m_source_file>  (304) 
/var/tmp/pbs.5076255.sched01/tmp3ug8vllb/105tp2mz_hs.sdf

>  <i_m_source_file_index>  (304) 
30

>  <i_lp_mmshare_version>  (304) 
48012

>  <i_f3d_flags>  (304) 
0

>  <s_epik_input>  (304) 
W0NIM11OMUMoPU8pW05IXUMoPU8pL0MoQzE9Tyk9W0NIXVxjKG4yKW5uKGMyMylbY0hdW2NIXVtjSF1uMw==

>  <s_epik_cmdline>  (304) 
J2VwaWtfcHl0aG9uJywgJy1waHQnLCAnMi4wJywgJy1waCcsICc3LjAnLCAnLXRuJywgJzgnLCAnLW1hJywgJzIwMCcsICctaW1hZScsICc8aW5maWxlLm1hZT4nLCAnLW9tYWUnLCAnPG91dGZpbGUubWFlPic=

>  <r_epik_Ionization_Penalty>  (304) 
1.52891

>  <r_epik_Ionization_Penalty_Charging>  (304) 
0

>  <r_epik_Ionization_Penalty_Neutral>  (304) 
1.52891

>  <r_epik_State_Penalty>  (304) 
1.62137

>  <r_epik_Charging_Adjusted_Penalty>  (304) 
1.62137

>  <i_epik_Tot_Q>  (304) 
0

>  <i_epik_Tot_abs_Q>  (304) 
0

>  <s_lp_Force_Field>  (304) 
OPLS3e

>  <r_lp_Energy>  (304) 
38.4728

>  <b_lp_Chiralities_Consistent>  (304) 
1

>  <s_lp_Variant>  (304) 
113:0-4

>  <s_i_glide_gridfile>  (304) 
pfpi4k_grid

>  <i_i_glide_lignum>  (304) 
30

>  <i_i_glide_rotatable_bonds>  (304) 
1

>  <r_i_docking_score>  (304) 
-3.58153

>  <r_i_glide_ligand_efficiency>  (304) 
-0.179076

>  <r_i_glide_ligand_efficiency_sa>  (304) 
-0.486088

>  <r_i_glide_ligand_efficiency_ln>  (304) 
-0.896338

>  <r_i_glide_gscore>  (304) 
-3.58153

>  <r_i_glide_lipo>  (304) 
-0.0241019

>  <r_i_glide_hbond>  (304) 
-0.0831873

>  <r_i_glide_metal>  (304) 
-0

>  <r_i_glide_rewards>  (304) 
-1.82359

>  <r_i_glide_evdw>  (304) 
-24.5177

>  <r_i_glide_ecoul>  (304) 
-2.48998

>  <r_i_glide_erotb>  (304) 
0

>  <r_i_glide_esite>  (304) 
-0.051263

>  <r_i_glide_emodel>  (304) 
-34.805

>  <r_i_glide_energy>  (304) 
-27.0077

>  <r_i_glide_einternal>  (304) 
1.06204

>  <r_i_glide_intrahb_reward>  (304) 
-0

>  <i_i_glide_confnum>  (304) 
1

>  <i_i_glide_posenum>  (304) 
37

>  <r_i_glide_eff_state_penalty>  (304) 
0

>  <ligand_id>  (304) 
113

>  <original_smiles>  (304) 
CN1C(=O)NC(=O)C(=Cc2nc3ncccn3n2)C1=O

>  <smiles>  (304) 
[H]C(=C1C(=O)N([H])C(=O)N(C([H])([H])[H])C1=O)c1nc2nc([H])c([H])c([H])n2n1

$$$$
114:0:0
     RDKit          3D

 60 66  0  0  1  0  0  0  0  0999 V2000
    3.9853   -4.8482    5.2854 C   0  0  0  0  0  0  0  0  0  0  0  0
    3.5657   -5.2719    3.8497 C   0  0  1  0  0  0  0  0  0  0  0  0
    3.8145   -6.8233    3.8331 C   0  0  0  0  0  0  0  0  0  0  0  0
    3.1471   -7.6390    2.6966 C   0  0  0  0  0  0  0  0  0  0  0  0
    1.6923   -7.2340    2.5219 C   0  0  0  0  0  0  0  0  0  0  0  0
    0.7954   -8.0476    2.3785 O   0  0  0  0  0  0  0  0  0  0  0  0
    1.4172   -5.7423    2.4799 C   0  0  0  0  0  0  0  0  0  0  0  0
    2.0407   -5.0292    3.6915 C   0  0  2  0  0  0  0  0  0  0  0  0
    1.6935   -3.5375    3.6961 C   0  0  0  0  0  0  0  0  0  0  0  0
    2.4217   -2.7846    2.5848 C   0  0  0  0  0  0  0  0  0  0  0  0
    3.9623   -2.9436    2.6224 C   0  0  1  0  0  0  0  0  0  0  0  0
    4.4439   -4.4433    2.8180 C   0  0  2  0  0  0  0  0  0  0  0  0
    4.8544   -5.1951    1.5237 C   0  0  0  0  0  0  0  0  0  0  0  0
    5.8864   -4.4771    0.6707 C   0  0  2  0  0  0  0  0  0  0  0  0
    6.6137   -3.6342    1.5484 O   0  0  0  0  0  0  0  0  0  0  0  0
    6.0047   -2.4887    0.9377 C   0  0  2  0  0  0  0  0  0  0  0  0
    6.8986   -1.4276    0.5496 O   0  0  0  0  0  0  0  0  0  0  0  0
    4.7134   -1.9340    1.6196 C   0  0  2  0  0  0  0  0  0  0  0  0
    4.9110   -0.6052    2.3632 C   0  0  0  0  0  0  0  0  0  0  0  0
    5.8172   -0.4669    3.1726 O   0  0  0  0  0  0  0  0  0  0  0  0
    3.8608   -1.6603    0.3357 C   0  0  0  0  0  0  0  0  0  0  0  0
    4.0574   -2.9317   -0.5230 C   0  0  1  0  0  0  0  0  0  0  0  0
    3.6896   -2.8176   -1.9945 C   0  0  1  0  0  0  0  0  0  0  0  0
    2.6458   -1.9729   -2.3661 O   0  0  0  0  0  0  0  0  0  0  0  0
    2.9811   -1.5474   -3.6394 C   0  0  0  0  0  0  0  0  0  0  0  0
    4.2074   -2.0759   -4.0274 O   0  0  0  0  0  0  0  0  0  0  0  0
    4.8202   -2.2510   -2.7713 C   0  0  2  0  0  0  0  0  0  0  0  0
    5.9366   -3.2518   -2.6641 C   0  0  0  0  0  0  0  0  0  0  0  0
    6.4491   -3.1992   -1.3349 O   0  0  0  0  0  0  0  0  0  0  0  0
    5.5177   -3.3001   -0.2351 C   0  0  2  0  0  0  0  0  0  0  0  0
    5.0179   -5.1284    5.5054 H   0  0  0  0  0  0  0  0  0  0  0  0
    3.3640   -5.3340    6.0427 H   0  0  0  0  0  0  0  0  0  0  0  0
    3.9053   -3.7756    5.4584 H   0  0  0  0  0  0  0  0  0  0  0  0
    4.8860   -7.0418    3.8512 H   0  0  0  0  0  0  0  0  0  0  0  0
    3.4313   -7.2478    4.7619 H   0  0  0  0  0  0  0  0  0  0  0  0
    3.6527   -7.5107    1.7432 H   0  0  0  0  0  0  0  0  0  0  0  0
    3.2006   -8.7061    2.9163 H   0  0  0  0  0  0  0  0  0  0  0  0
    1.8093   -5.3460    1.5461 H   0  0  0  0  0  0  0  0  0  0  0  0
    0.3400   -5.5926    2.4806 H   0  0  0  0  0  0  0  0  0  0  0  0
    1.5504   -5.4532    4.5684 H   0  0  0  0  0  0  0  0  0  0  0  0
    0.6175   -3.4038    3.5791 H   0  0  0  0  0  0  0  0  0  0  0  0
    1.9388   -3.0876    4.6599 H   0  0  0  0  0  0  0  0  0  0  0  0
    2.0274   -3.1335    1.6309 H   0  0  0  0  0  0  0  0  0  0  0  0
    2.1596   -1.7283    2.6616 H   0  0  0  0  0  0  0  0  0  0  0  0
    4.1982   -2.5386    3.6110 H   0  0  0  0  0  0  0  0  0  0  0  0
    5.3899   -4.3530    3.3537 H   0  0  0  0  0  0  0  0  0  0  0  0
    5.3051   -6.1426    1.8148 H   0  0  0  0  0  0  0  0  0  0  0  0
    3.9760   -5.4612    0.9334 H   0  0  0  0  0  0  0  0  0  0  0  0
    6.5474   -5.1648    0.1293 H   0  0  0  0  0  0  0  0  0  0  0  0
    7.1180   -0.9707    1.3526 H   0  0  0  0  0  0  0  0  0  0  0  0
    4.2011    0.1867    2.1263 H   0  0  0  0  0  0  0  0  0  0  0  0
    2.8170   -1.3827    0.4865 H   0  0  0  0  0  0  0  0  0  0  0  0
    4.3096   -0.8152   -0.2029 H   0  0  0  0  0  0  0  0  0  0  0  0
    3.3782   -3.6692   -0.1060 H   0  0  0  0  0  0  0  0  0  0  0  0
    3.4554   -3.8157   -2.3781 H   0  0  0  0  0  0  0  0  0  0  0  0
    2.1900   -1.8404   -4.3259 H   0  0  0  0  0  0  0  0  0  0  0  0
    3.0345   -0.4513   -3.6108 H   0  0  0  0  0  0  0  0  0  0  0  0
    5.1367   -1.2723   -2.4029 H   0  0  0  0  0  0  0  0  0  0  0  0
    5.6099   -4.2568   -2.9245 H   0  0  0  0  0  0  0  0  0  0  0  0
    6.6829   -2.9784   -3.3767 H   0  0  0  0  0  0  0  0  0  0  0  0
  2  1  1  1
  1 31  1  0
  1 32  1  0
  1 33  1  0
  2  8  1  0
  2 12  1  0
  2  3  1  0
  3  4  1  0
  3 34  1  0
  3 35  1  0
  4  5  1  0
  4 36  1  0
  4 37  1  0
  5  6  2  0
  5  7  1  0
  7  8  1  0
  7 38  1  0
  7 39  1  0
  8  9  1  0
  8 40  1  1
  9 10  1  0
  9 41  1  0
  9 42  1  0
 10 11  1  0
 10 43  1  0
 10 44  1  0
 11 18  1  0
 11 12  1  0
 11 45  1  1
 12 13  1  0
 12 46  1  1
 13 14  1  0
 13 47  1  0
 13 48  1  0
 14 30  1  0
 14 15  1  0
 14 49  1  6
 15 16  1  0
 16 30  1  0
 16 17  1  6
 16 18  1  0
 17 50  1  0
 18 19  1  1
 18 21  1  0
 19 20  2  0
 19 51  1  0
 21 22  1  0
 21 52  1  0
 21 53  1  0
 22 30  1  0
 22 23  1  0
 22 54  1  1
 23 27  1  0
 23 24  1  0
 23 55  1  6
 24 25  1  0
 25 26  1  0
 25 56  1  0
 25 57  1  0
 26 27  1  0
 27 28  1  0
 27 58  1  1
 28 29  1  0
 28 59  1  0
 28 60  1  0
 30 29  1  6
M  END
>  <i_m_ct_stereo_status>  (305) 
1

>  <s_m_source_file>  (305) 
/var/tmp/pbs.5076255.sched01/tmp3ug8vllb/105tp2mz_hs.sdf

>  <i_m_source_file_index>  (305) 
31

>  <i_lp_mmshare_version>  (305) 
48012

>  <i_f3d_flags>  (305) 
0

>  <s_epik_input>  (305) 
W0NAQF0xMjNbQ0BASF00W0NIMl1bQ0BASF01W0NAQF02KFtDSDNdKVtDQEhdKFtDSDJdQyg9TylbQ0gyXVtDSDJdNilbQ0gyXVtDSDJdW0NAQEhdNVtDQEBdKFtDSF09TykoW0NAXTEoTzQpW09IXSlbQ0gyXVtDQEhdMltDQEBIXTdbQ0BASF0oW0NIMl1PMylPW0NIMl1PNw==

>  <s_epik_cmdline>  (305) 
J2VwaWtfcHl0aG9uJywgJy1waHQnLCAnMi4wJywgJy1waCcsICc3LjAnLCAnLXRuJywgJzgnLCAnLW1hJywgJzIwMCcsICctaW1hZScsICc8aW5maWxlLm1hZT4nLCAnLW9tYWUnLCAnPG91dGZpbGUubWFlPic=

>  <r_lp_tautomer_probability>  (305) 
1

>  <r_epik_Ionization_Penalty>  (305) 
3.3771e-05

>  <r_epik_Ionization_Penalty_Charging>  (305) 
0

>  <r_epik_Ionization_Penalty_Neutral>  (305) 
3.3771e-05

>  <r_epik_State_Penalty>  (305) 
-0

>  <r_epik_Charging_Adjusted_Penalty>  (305) 
0

>  <i_epik_Tot_Q>  (305) 
0

>  <i_epik_Tot_abs_Q>  (305) 
0

>  <s_epik_Chemistry_Notes>  (305) 
This compound contains an acetal/aminal-like group ( X-CH(R)-Y where X, Y are N, S, or O) that may be acid/base labile, releasing an aldehyde.

>  <s_lp_Force_Field>  (305) 
OPLS3e

>  <r_lp_Energy>  (305) 
61.4811

>  <b_lp_Chiralities_Consistent>  (305) 
1

>  <s_lp_Variant>  (305) 
114:0-1

>  <s_i_glide_gridfile>  (305) 
pfpi4k_grid

>  <i_i_glide_lignum>  (305) 
31

>  <i_i_glide_rotatable_bonds>  (305) 
2

>  <r_i_docking_score>  (305) 
-4.18129

>  <r_i_glide_ligand_efficiency>  (305) 
-0.139376

>  <r_i_glide_ligand_efficiency_sa>  (305) 
-0.433074

>  <r_i_glide_ligand_efficiency_ln>  (305) 
-0.950034

>  <r_i_glide_gscore>  (305) 
-4.18129

>  <r_i_glide_lipo>  (305) 
-0.625366

>  <r_i_glide_hbond>  (305) 
-0.2351

>  <r_i_glide_metal>  (305) 
-0

>  <r_i_glide_rewards>  (305) 
-1.12448

>  <r_i_glide_evdw>  (305) 
-31.6082

>  <r_i_glide_ecoul>  (305) 
-3.9806

>  <r_i_glide_erotb>  (305) 
0

>  <r_i_glide_esite>  (305) 
-0.0188346

>  <r_i_glide_emodel>  (305) 
-43.2712

>  <r_i_glide_energy>  (305) 
-35.5888

>  <r_i_glide_einternal>  (305) 
1.05411

>  <r_i_glide_intrahb_reward>  (305) 
-0

>  <i_i_glide_confnum>  (305) 
1

>  <i_i_glide_posenum>  (305) 
1

>  <r_i_glide_eff_state_penalty>  (305) 
0

>  <ligand_id>  (305) 
114

>  <original_smiles>  (305) 
CC12CCC(=O)CC1CCC1C2CC2OC3(O)C1(C=O)CC1C4OCOC4COC213

>  <smiles>  (305) 
[H]OC12OC3([H])C([H])([H])C4([H])C([H])(C([H])([H])C([H])([H])C5([H])C([H])([H])C(=O)C([H])([H])C([H])([H])C54C([H])([H])[H])C1(C([H])=O)C([H])([H])C1([H])C4([H])OC([H])([H])OC4([H])C([H])([H])OC321

$$$$
114:0:1
     RDKit          3D

 60 66  0  0  1  0  0  0  0  0999 V2000
    4.1467   -4.9405    5.2269 C   0  0  0  0  0  0  0  0  0  0  0  0
    3.7484   -5.4089    3.7984 C   0  0  1  0  0  0  0  0  0  0  0  0
    4.1448   -6.9291    3.7869 C   0  0  0  0  0  0  0  0  0  0  0  0
    3.5420   -7.8106    2.6628 C   0  0  0  0  0  0  0  0  0  0  0  0
    2.0554   -7.5452    2.5083 C   0  0  0  0  0  0  0  0  0  0  0  0
    1.2403   -8.4523    2.3836 O   0  0  0  0  0  0  0  0  0  0  0  0
    1.6309   -6.0903    2.4598 C   0  0  0  0  0  0  0  0  0  0  0  0
    2.2042   -5.3139    3.6605 C   0  0  2  0  0  0  0  0  0  0  0  0
    1.7211   -3.8612    3.6665 C   0  0  0  0  0  0  0  0  0  0  0  0
    2.3634   -3.0483    2.5424 C   0  0  0  0  0  0  0  0  0  0  0  0
    3.9138   -3.0598    2.5561 C   0  0  1  0  0  0  0  0  0  0  0  0
    4.5334   -4.5070    2.7514 C   0  0  2  0  0  0  0  0  0  0  0  0
    4.9955   -5.2233    1.4555 C   0  0  0  0  0  0  0  0  0  0  0  0
    5.9423   -4.4138    0.5869 C   0  0  2  0  0  0  0  0  0  0  0  0
    6.6100   -3.4991    1.4393 O   0  0  0  0  0  0  0  0  0  0  0  0
    5.8787   -2.4270    0.8356 C   0  0  2  0  0  0  0  0  0  0  0  0
    6.6661   -1.3028    0.4065 O   0  0  0  0  0  0  0  0  0  0  0  0
    4.5571   -1.9885    1.5414 C   0  0  2  0  0  0  0  0  0  0  0  0
    4.6390   -0.6401    2.2830 C   0  0  0  0  0  0  0  0  0  0  0  0
    5.5169   -0.4217    3.1050 O   0  0  0  0  0  0  0  0  0  0  0  0
    3.6664   -1.8062    0.2705 C   0  0  0  0  0  0  0  0  0  0  0  0
    3.9669   -3.0554   -0.5908 C   0  0  1  0  0  0  0  0  0  0  0  0
    3.5850   -2.9635   -2.0548 C   0  0  1  0  0  0  0  0  0  0  0  0
    2.4413   -2.2556   -2.4073 O   0  0  0  0  0  0  0  0  0  0  0  0
    2.7050   -1.8244   -3.6919 C   0  0  0  0  0  0  0  0  0  0  0  0
    3.9718   -2.2296   -4.1073 O   0  0  0  0  0  0  0  0  0  0  0  0
    4.6403   -2.3059   -2.8661 C   0  0  2  0  0  0  0  0  0  0  0  0
    5.8564   -3.2049   -2.7598 C   0  0  0  0  0  0  0  0  0  0  0  0
    6.3618   -3.1087   -1.4306 O   0  0  0  0  0  0  0  0  0  0  0  0
    5.4522   -3.2891   -0.3228 C   0  0  2  0  0  0  0  0  0  0  0  0
    5.2044   -5.1199    5.4332 H   0  0  0  0  0  0  0  0  0  0  0  0
    3.5854   -5.4791    5.9955 H   0  0  0  0  0  0  0  0  0  0  0  0
    3.9678   -3.8793    5.3971 H   0  0  0  0  0  0  0  0  0  0  0  0
    5.2323   -7.0449    3.7902 H   0  0  0  0  0  0  0  0  0  0  0  0
    3.8173   -7.3837    4.7231 H   0  0  0  0  0  0  0  0  0  0  0  0
    4.0221   -7.6409    1.7020 H   0  0  0  0  0  0  0  0  0  0  0  0
    3.7009   -8.8659    2.8871 H   0  0  0  0  0  0  0  0  0  0  0  0
    1.9691   -5.6643    1.5188 H   0  0  0  0  0  0  0  0  0  0  0  0
    0.5449   -6.0433    2.4706 H   0  0  0  0  0  0  0  0  0  0  0  0
    1.7702   -5.7783    4.5469 H   0  0  0  0  0  0  0  0  0  0  0  0
    0.6356   -3.8303    3.5652 H   0  0  0  0  0  0  0  0  0  0  0  0
    1.9350   -3.3867    4.6258 H   0  0  0  0  0  0  0  0  0  0  0  0
    1.9909   -3.4419    1.5969 H   0  0  0  0  0  0  0  0  0  0  0  0
    1.9989   -2.0221    2.6167 H   0  0  0  0  0  0  0  0  0  0  0  0
    4.1190   -2.6302    3.5404 H   0  0  0  0  0  0  0  0  0  0  0  0
    5.4729   -4.3257    3.2738 H   0  0  0  0  0  0  0  0  0  0  0  0
    5.5370   -6.1224    1.7452 H   0  0  0  0  0  0  0  0  0  0  0  0
    4.1384   -5.5768    0.8799 H   0  0  0  0  0  0  0  0  0  0  0  0
    6.6546   -5.0411    0.0412 H   0  0  0  0  0  0  0  0  0  0  0  0
    6.1560   -0.5255    0.5647 H   0  0  0  0  0  0  0  0  0  0  0  0
    3.8632    0.0868    2.0259 H   0  0  0  0  0  0  0  0  0  0  0  0
    2.6061   -1.6302    0.4436 H   0  0  0  0  0  0  0  0  0  0  0  0
    4.0085   -0.9221   -0.2814 H   0  0  0  0  0  0  0  0  0  0  0  0
    3.3591   -3.8500   -0.1672 H   0  0  0  0  0  0  0  0  0  0  0  0
    3.4463   -3.9681   -2.4372 H   0  0  0  0  0  0  0  0  0  0  0  0
    1.9147   -2.1853   -4.3412 H   0  0  0  0  0  0  0  0  0  0  0  0
    2.6722   -0.7263   -3.6685 H   0  0  0  0  0  0  0  0  0  0  0  0
    4.8625   -1.2956   -2.5102 H   0  0  0  0  0  0  0  0  0  0  0  0
    5.6113   -4.2379   -3.0069 H   0  0  0  0  0  0  0  0  0  0  0  0
    6.6124   -2.8987   -3.4632 H   0  0  0  0  0  0  0  0  0  0  0  0
  2  1  1  1
  1 31  1  0
  1 32  1  0
  1 33  1  0
  2  8  1  0
  2 12  1  0
  2  3  1  0
  3  4  1  0
  3 34  1  0
  3 35  1  0
  4  5  1  0
  4 36  1  0
  4 37  1  0
  5  6  2  0
  5  7  1  0
  7  8  1  0
  7 38  1  0
  7 39  1  0
  8  9  1  0
  8 40  1  1
  9 10  1  0
  9 41  1  0
  9 42  1  0
 10 11  1  0
 10 43  1  0
 10 44  1  0
 11 18  1  0
 11 12  1  0
 11 45  1  1
 12 13  1  0
 12 46  1  1
 13 14  1  0
 13 47  1  0
 13 48  1  0
 14 30  1  0
 14 15  1  0
 14 49  1  6
 15 16  1  0
 16 30  1  0
 16 17  1  6
 16 18  1  0
 17 50  1  0
 18 19  1  1
 18 21  1  0
 19 20  2  0
 19 51  1  0
 21 22  1  0
 21 52  1  0
 21 53  1  0
 22 30  1  0
 22 23  1  0
 22 54  1  1
 23 27  1  0
 23 24  1  0
 23 55  1  6
 24 25  1  0
 25 26  1  0
 25 56  1  0
 25 57  1  0
 26 27  1  0
 27 28  1  0
 27 58  1  1
 28 29  1  0
 28 59  1  0
 28 60  1  0
 30 29  1  6
M  END
>  <i_m_ct_stereo_status>  (306) 
1

>  <s_m_source_file>  (306) 
/var/tmp/pbs.5076255.sched01/tmp3ug8vllb/105tp2mz_hs.sdf

>  <i_m_source_file_index>  (306) 
31

>  <i_lp_mmshare_version>  (306) 
48012

>  <i_f3d_flags>  (306) 
0

>  <s_epik_input>  (306) 
W0NAQF0xMjNbQ0BASF00W0NIMl1bQ0BASF01W0NAQF02KFtDSDNdKVtDQEhdKFtDSDJdQyg9TylbQ0gyXVtDSDJdNilbQ0gyXVtDSDJdW0NAQEhdNVtDQEBdKFtDSF09TykoW0NAXTEoTzQpW09IXSlbQ0gyXVtDQEhdMltDQEBIXTdbQ0BASF0oW0NIMl1PMylPW0NIMl1PNw==

>  <s_epik_cmdline>  (306) 
J2VwaWtfcHl0aG9uJywgJy1waHQnLCAnMi4wJywgJy1waCcsICc3LjAnLCAnLXRuJywgJzgnLCAnLW1hJywgJzIwMCcsICctaW1hZScsICc8aW5maWxlLm1hZT4nLCAnLW9tYWUnLCAnPG91dGZpbGUubWFlPic=

>  <r_lp_tautomer_probability>  (306) 
1

>  <r_epik_Ionization_Penalty>  (306) 
3.3771e-05

>  <r_epik_Ionization_Penalty_Charging>  (306) 
0

>  <r_epik_Ionization_Penalty_Neutral>  (306) 
3.3771e-05

>  <r_epik_State_Penalty>  (306) 
-0

>  <r_epik_Charging_Adjusted_Penalty>  (306) 
0

>  <i_epik_Tot_Q>  (306) 
0

>  <i_epik_Tot_abs_Q>  (306) 
0

>  <s_epik_Chemistry_Notes>  (306) 
This compound contains an acetal/aminal-like group ( X-CH(R)-Y where X, Y are N, S, or O) that may be acid/base labile, releasing an aldehyde.

>  <s_lp_Force_Field>  (306) 
OPLS3e

>  <r_lp_Energy>  (306) 
61.4811

>  <b_lp_Chiralities_Consistent>  (306) 
1

>  <s_lp_Variant>  (306) 
114:0-1

>  <s_i_glide_gridfile>  (306) 
pfpi4k_grid

>  <i_i_glide_lignum>  (306) 
31

>  <i_i_glide_rotatable_bonds>  (306) 
2

>  <r_i_docking_score>  (306) 
-4.02252

>  <r_i_glide_ligand_efficiency>  (306) 
-0.134084

>  <r_i_glide_ligand_efficiency_sa>  (306) 
-0.41663

>  <r_i_glide_ligand_efficiency_ln>  (306) 
-0.913961

>  <r_i_glide_gscore>  (306) 
-4.02252

>  <r_i_glide_lipo>  (306) 
-0.573342

>  <r_i_glide_hbond>  (306) 
-0.304032

>  <r_i_glide_metal>  (306) 
-0

>  <r_i_glide_rewards>  (306) 
-1.03528

>  <r_i_glide_evdw>  (306) 
-30.396

>  <r_i_glide_ecoul>  (306) 
-3.85741

>  <r_i_glide_erotb>  (306) 
0

>  <r_i_glide_esite>  (306) 
-0.0114558

>  <r_i_glide_emodel>  (306) 
-41.421

>  <r_i_glide_energy>  (306) 
-34.2534

>  <r_i_glide_einternal>  (306) 
1.46996

>  <r_i_glide_intrahb_reward>  (306) 
-0

>  <i_i_glide_confnum>  (306) 
1

>  <i_i_glide_posenum>  (306) 
14

>  <r_i_glide_eff_state_penalty>  (306) 
0

>  <ligand_id>  (306) 
114

>  <original_smiles>  (306) 
CC12CCC(=O)CC1CCC1C2CC2OC3(O)C1(C=O)CC1C4OCOC4COC213

>  <smiles>  (306) 
[H]OC12OC3([H])C([H])([H])C4([H])C([H])(C([H])([H])C([H])([H])C5([H])C([H])([H])C(=O)C([H])([H])C([H])([H])C54C([H])([H])[H])C1(C([H])=O)C([H])([H])C1([H])C4([H])OC([H])([H])OC4([H])C([H])([H])OC321

$$$$
114:0:2
     RDKit          3D

 60 66  0  0  1  0  0  0  0  0999 V2000
    4.2492   -4.9689    5.1449 C   0  0  0  0  0  0  0  0  0  0  0  0
    3.6754   -5.2992    3.7401 C   0  0  1  0  0  0  0  0  0  0  0  0
    3.7176   -6.8680    3.6786 C   0  0  0  0  0  0  0  0  0  0  0  0
    2.8690   -7.5634    2.5833 C   0  0  0  0  0  0  0  0  0  0  0  0
    1.4741   -6.9642    2.5199 C   0  0  0  0  0  0  0  0  0  0  0  0
    0.4596   -7.6387    2.4126 O   0  0  0  0  0  0  0  0  0  0  0  0
    1.4080   -5.4525    2.5265 C   0  0  0  0  0  0  0  0  0  0  0  0
    2.1903   -4.8575    3.7026 C   0  0  2  0  0  0  0  0  0  0  0  0
    2.0380   -3.3365    3.7529 C   0  0  0  0  0  0  0  0  0  0  0  0
    2.7713   -2.6592    2.5964 C   0  0  0  0  0  0  0  0  0  0  0  0
    4.2837   -3.0090    2.5184 C   0  0  1  0  0  0  0  0  0  0  0  0
    4.5765   -4.5633    2.6579 C   0  0  2  0  0  0  0  0  0  0  0  0
    4.7914   -5.3269    1.3291 C   0  0  0  0  0  0  0  0  0  0  0  0
    5.8400   -4.7222    0.4171 C   0  0  2  0  0  0  0  0  0  0  0  0
    6.7454   -4.0047    1.2447 O   0  0  0  0  0  0  0  0  0  0  0  0
    6.2488   -2.7706    0.6960 C   0  0  2  0  0  0  0  0  0  0  0  0
    7.2522   -1.8516    0.2590 O   0  0  0  0  0  0  0  0  0  0  0  0
    5.0973   -2.0772    1.4837 C   0  0  2  0  0  0  0  0  0  0  0  0
    5.5612   -0.8204    2.2468 C   0  0  0  0  0  0  0  0  0  0  0  0
    4.7440   -0.0541    2.7347 O   0  0  0  0  0  0  0  0  0  0  0  0
    4.1872   -1.6588    0.2786 C   0  0  0  0  0  0  0  0  0  0  0  0
    4.1439   -2.9201   -0.6129 C   0  0  1  0  0  0  0  0  0  0  0  0
    3.6942   -2.7207   -2.0567 C   0  0  1  0  0  0  0  0  0  0  0  0
    2.7532   -1.7281   -2.3480 O   0  0  0  0  0  0  0  0  0  0  0  0
    3.0482   -1.3310   -3.6448 C   0  0  0  0  0  0  0  0  0  0  0  0
    4.1792   -2.0028   -4.1167 O   0  0  0  0  0  0  0  0  0  0  0  0
    4.8336   -2.2968   -2.9074 C   0  0  2  0  0  0  0  0  0  0  0  0
    5.8033   -3.4478   -2.8817 C   0  0  0  0  0  0  0  0  0  0  0  0
    6.4236   -3.4446   -1.5979 O   0  0  0  0  0  0  0  0  0  0  0  0
    5.5611   -3.4866   -0.4414 C   0  0  2  0  0  0  0  0  0  0  0  0
    5.2493   -5.3879    5.2798 H   0  0  0  0  0  0  0  0  0  0  0  0
    3.6241   -5.3914    5.9365 H   0  0  0  0  0  0  0  0  0  0  0  0
    4.3221   -3.8994    5.3391 H   0  0  0  0  0  0  0  0  0  0  0  0
    4.7499   -7.2207    3.6088 H   0  0  0  0  0  0  0  0  0  0  0  0
    3.3525   -7.2610    4.6269 H   0  0  0  0  0  0  0  0  0  0  0  0
    3.3178   -7.4755    1.5967 H   0  0  0  0  0  0  0  0  0  0  0  0
    2.7960   -8.6331    2.7804 H   0  0  0  0  0  0  0  0  0  0  0  0
    1.7784   -5.0807    1.5745 H   0  0  0  0  0  0  0  0  0  0  0  0
    0.3649   -5.1606    2.6156 H   0  0  0  0  0  0  0  0  0  0  0  0
    1.7113   -5.2381    4.6051 H   0  0  0  0  0  0  0  0  0  0  0  0
    0.9815   -3.0632    3.7173 H   0  0  0  0  0  0  0  0  0  0  0  0
    2.4083   -2.9412    4.7002 H   0  0  0  0  0  0  0  0  0  0  0  0
    2.2618   -2.9307    1.6716 H   0  0  0  0  0  0  0  0  0  0  0  0
    2.6408   -1.5834    2.7115 H   0  0  0  0  0  0  0  0  0  0  0  0
    4.6389   -2.6609    3.4943 H   0  0  0  0  0  0  0  0  0  0  0  0
    5.5606   -4.6102    3.1270 H   0  0  0  0  0  0  0  0  0  0  0  0
    5.1363   -6.3330    1.5680 H   0  0  0  0  0  0  0  0  0  0  0  0
    3.8459   -5.4643    0.7986 H   0  0  0  0  0  0  0  0  0  0  0  0
    6.3574   -5.4705   -0.1890 H   0  0  0  0  0  0  0  0  0  0  0  0
    7.9709   -2.4108   -0.0023 H   0  0  0  0  0  0  0  0  0  0  0  0
    6.6353   -0.6710    2.3493 H   0  0  0  0  0  0  0  0  0  0  0  0
    3.2000   -1.2564    0.5161 H   0  0  0  0  0  0  0  0  0  0  0  0
    4.6955   -0.8582   -0.2716 H   0  0  0  0  0  0  0  0  0  0  0  0
    3.4073   -3.5773   -0.1621 H   0  0  0  0  0  0  0  0  0  0  0  0
    3.2998   -3.6677   -2.4390 H   0  0  0  0  0  0  0  0  0  0  0  0
    2.2167   -1.5110   -4.3179 H   0  0  0  0  0  0  0  0  0  0  0  0
    3.2416   -0.2517   -3.5917 H   0  0  0  0  0  0  0  0  0  0  0  0
    5.3029   -1.3757   -2.5443 H   0  0  0  0  0  0  0  0  0  0  0  0
    5.3285   -4.4012   -3.1039 H   0  0  0  0  0  0  0  0  0  0  0  0
    6.5387   -3.2804   -3.6529 H   0  0  0  0  0  0  0  0  0  0  0  0
  2  1  1  1
  1 31  1  0
  1 32  1  0
  1 33  1  0
  2  8  1  0
  2 12  1  0
  2  3  1  0
  3  4  1  0
  3 34  1  0
  3 35  1  0
  4  5  1  0
  4 36  1  0
  4 37  1  0
  5  6  2  0
  5  7  1  0
  7  8  1  0
  7 38  1  0
  7 39  1  0
  8  9  1  0
  8 40  1  1
  9 10  1  0
  9 41  1  0
  9 42  1  0
 10 11  1  0
 10 43  1  0
 10 44  1  0
 11 18  1  0
 11 12  1  0
 11 45  1  1
 12 13  1  0
 12 46  1  1
 13 14  1  0
 13 47  1  0
 13 48  1  0
 14 30  1  0
 14 15  1  0
 14 49  1  6
 15 16  1  0
 16 30  1  0
 16 17  1  6
 16 18  1  0
 17 50  1  0
 18 19  1  1
 18 21  1  0
 19 20  2  0
 19 51  1  0
 21 22  1  0
 21 52  1  0
 21 53  1  0
 22 30  1  0
 22 23  1  0
 22 54  1  1
 23 27  1  0
 23 24  1  0
 23 55  1  6
 24 25  1  0
 25 26  1  0
 25 56  1  0
 25 57  1  0
 26 27  1  0
 27 28  1  0
 27 58  1  1
 28 29  1  0
 28 59  1  0
 28 60  1  0
 30 29  1  6
M  END
>  <i_m_ct_stereo_status>  (307) 
1

>  <s_m_source_file>  (307) 
/var/tmp/pbs.5076255.sched01/tmp3ug8vllb/105tp2mz_hs.sdf

>  <i_m_source_file_index>  (307) 
31

>  <i_lp_mmshare_version>  (307) 
48012

>  <i_f3d_flags>  (307) 
0

>  <s_epik_input>  (307) 
W0NAQF0xMjNbQ0BASF00W0NIMl1bQ0BASF01W0NAQF02KFtDSDNdKVtDQEhdKFtDSDJdQyg9TylbQ0gyXVtDSDJdNilbQ0gyXVtDSDJdW0NAQEhdNVtDQEBdKFtDSF09TykoW0NAXTEoTzQpW09IXSlbQ0gyXVtDQEhdMltDQEBIXTdbQ0BASF0oW0NIMl1PMylPW0NIMl1PNw==

>  <s_epik_cmdline>  (307) 
J2VwaWtfcHl0aG9uJywgJy1waHQnLCAnMi4wJywgJy1waCcsICc3LjAnLCAnLXRuJywgJzgnLCAnLW1hJywgJzIwMCcsICctaW1hZScsICc8aW5maWxlLm1hZT4nLCAnLW9tYWUnLCAnPG91dGZpbGUubWFlPic=

>  <r_lp_tautomer_probability>  (307) 
1

>  <r_epik_Ionization_Penalty>  (307) 
3.3771e-05

>  <r_epik_Ionization_Penalty_Charging>  (307) 
0

>  <r_epik_Ionization_Penalty_Neutral>  (307) 
3.3771e-05

>  <r_epik_State_Penalty>  (307) 
-0

>  <r_epik_Charging_Adjusted_Penalty>  (307) 
0

>  <i_epik_Tot_Q>  (307) 
0

>  <i_epik_Tot_abs_Q>  (307) 
0

>  <s_epik_Chemistry_Notes>  (307) 
This compound contains an acetal/aminal-like group ( X-CH(R)-Y where X, Y are N, S, or O) that may be acid/base labile, releasing an aldehyde.

>  <s_lp_Force_Field>  (307) 
OPLS3e

>  <r_lp_Energy>  (307) 
61.4811

>  <b_lp_Chiralities_Consistent>  (307) 
1

>  <s_lp_Variant>  (307) 
114:0-1

>  <s_i_glide_gridfile>  (307) 
pfpi4k_grid

>  <i_i_glide_lignum>  (307) 
31

>  <i_i_glide_rotatable_bonds>  (307) 
2

>  <r_i_docking_score>  (307) 
-3.98494

>  <r_i_glide_ligand_efficiency>  (307) 
-0.132831

>  <r_i_glide_ligand_efficiency_sa>  (307) 
-0.412738

>  <r_i_glide_ligand_efficiency_ln>  (307) 
-0.905421

>  <r_i_glide_gscore>  (307) 
-3.98494

>  <r_i_glide_lipo>  (307) 
-0.59976

>  <r_i_glide_hbond>  (307) 
-0.323946

>  <r_i_glide_metal>  (307) 
-0

>  <r_i_glide_rewards>  (307) 
-1.09053

>  <r_i_glide_evdw>  (307) 
-30.7542

>  <r_i_glide_ecoul>  (307) 
-2.71279

>  <r_i_glide_erotb>  (307) 
0

>  <r_i_glide_esite>  (307) 
-0.0260734

>  <r_i_glide_emodel>  (307) 
-40.9795

>  <r_i_glide_energy>  (307) 
-33.467

>  <r_i_glide_einternal>  (307) 
0.413858

>  <r_i_glide_intrahb_reward>  (307) 
-0

>  <i_i_glide_confnum>  (307) 
1

>  <i_i_glide_posenum>  (307) 
21

>  <r_i_glide_eff_state_penalty>  (307) 
0

>  <ligand_id>  (307) 
114

>  <original_smiles>  (307) 
CC12CCC(=O)CC1CCC1C2CC2OC3(O)C1(C=O)CC1C4OCOC4COC213

>  <smiles>  (307) 
[H]OC12OC3([H])C([H])([H])C4([H])C([H])(C([H])([H])C([H])([H])C5([H])C([H])([H])C(=O)C([H])([H])C([H])([H])C54C([H])([H])[H])C1(C([H])=O)C([H])([H])C1([H])C4([H])OC([H])([H])OC4([H])C([H])([H])OC321

$$$$
117:0:0
     RDKit          3D

 37 38  0  0  1  0  0  0  0  0999 V2000
    2.6666   -3.0290   -3.6173 C   0  0  0  0  0  0  0  0  0  0  0  0
    2.7430   -3.0641   -2.2025 O   0  0  0  0  0  0  0  0  0  0  0  0
    3.5440   -2.2051   -1.5619 C   0  0  0  0  0  0  0  0  0  0  0  0
    4.1799   -1.3371   -2.1626 O   0  0  0  0  0  0  0  0  0  0  0  0
    3.5557   -2.3822   -0.0770 C   0  0  0  0  0  0  0  0  0  0  0  0
    3.2449   -3.4848    0.6400 C   0  0  0  0  0  0  0  0  0  0  0  0
    2.9337   -4.9100    0.1718 C   0  0  0  0  0  0  0  0  0  0  0  0
    1.8852   -5.6048    1.0440 C   0  0  0  0  0  0  0  0  0  0  0  0
    0.9538   -6.2273    0.5103 O   0  0  0  0  0  0  0  0  0  0  0  0
    2.0007   -5.4528    2.5709 C   0  0  1  0  0  0  0  0  0  0  0  0
    0.7851   -5.8786    3.1631 O   0  0  0  0  0  0  0  0  0  0  0  0
    3.1544   -6.3859    3.0350 C   0  0  0  0  0  0  0  0  0  0  0  0
    2.9617   -7.6167    2.9477 O   0  0  0  0  0  0  0  0  0  0  0  0
    4.2064   -5.8833    3.4814 O   0  0  0  0  0  0  0  0  0  0  0  0
    2.1599   -3.9412    2.9415 C   0  0  1  0  0  0  0  0  0  0  0  0
    2.2626   -3.7077    4.4733 C   0  0  0  0  0  0  0  0  0  0  0  0
    3.2911   -3.2195    2.1343 C   0  0  2  0  0  0  0  0  0  0  0  0
    3.2452   -1.6684    2.1767 C   0  0  1  0  0  0  0  0  0  0  0  0
    3.7256   -1.1540    3.4116 O   0  0  0  0  0  0  0  0  0  0  0  0
    3.8821   -1.1995    0.8215 C   0  0  1  0  0  0  0  0  0  0  0  0
    5.3947   -0.8544    0.8913 C   0  0  0  0  0  0  0  0  0  0  0  0
    6.1292   -1.1479   -0.0855 O   0  0  0  0  0  0  0  0  0  0  0  0
    5.8088   -0.2597    1.9000 O   0  0  0  0  0  0  0  0  0  0  0  0
    1.9948   -3.8075   -3.9694 H   0  0  0  0  0  0  0  0  0  0  0  0
    3.6457   -3.2004   -4.0644 H   0  0  0  0  0  0  0  0  0  0  0  0
    2.2932   -2.0658   -3.9638 H   0  0  0  0  0  0  0  0  0  0  0  0
    2.5271   -4.9017   -0.8343 H   0  0  0  0  0  0  0  0  0  0  0  0
    3.8516   -5.5046    0.1666 H   0  0  0  0  0  0  0  0  0  0  0  0
    0.9448   -5.9489    4.0934 H   0  0  0  0  0  0  0  0  0  0  0  0
    1.2193   -3.4699    2.6466 H   0  0  0  0  0  0  0  0  0  0  0  0
    3.2186   -4.0343    4.8837 H   0  0  0  0  0  0  0  0  0  0  0  0
    1.4845   -4.2389    5.0204 H   0  0  0  0  0  0  0  0  0  0  0  0
    2.1458   -2.6574    4.7368 H   0  0  0  0  0  0  0  0  0  0  0  0
    4.2661   -3.5825    2.4626 H   0  0  0  0  0  0  0  0  0  0  0  0
    2.1929   -1.3672    2.1556 H   0  0  0  0  0  0  0  0  0  0  0  0
    3.2193   -1.5200    4.1303 H   0  0  0  0  0  0  0  0  0  0  0  0
    3.3552   -0.3168    0.4751 H   0  0  0  0  0  0  0  0  0  0  0  0
  1  2  1  0
  1 24  1  0
  1 25  1  0
  1 26  1  0
  2  3  1  0
  3  4  2  0
  3  5  1  0
  5 20  1  0
  5  6  2  0
  6 17  1  0
  6  7  1  0
  7  8  1  0
  7 27  1  0
  7 28  1  0
  8  9  2  0
  8 10  1  0
 10 11  1  1
 10 12  1  0
 10 15  1  0
 11 29  1  0
 12 13  2  0
 12 14  1  0
 15 16  1  0
 15 17  1  0
 15 30  1  6
 16 31  1  0
 16 32  1  0
 16 33  1  0
 17 18  1  0
 17 34  1  1
 18 19  1  0
 18 20  1  0
 18 35  1  6
 19 36  1  0
 20 21  1  0
 20 37  1  6
 21 22  2  0
 21 23  1  0
M  CHG  2  14  -1  23  -1
M  END
>  <i_m_ct_stereo_status>  (308) 
1

>  <s_m_source_file>  (308) 
/var/tmp/pbs.5076255.sched01/tmp3ug8vllb/105tp2mz_hs.sdf

>  <i_m_source_file_index>  (308) 
34

>  <i_lp_mmshare_version>  (308) 
48012

>  <i_f3d_flags>  (308) 
0

>  <s_epik_input>  (308) 
W0NIM11PQyg9TylDPTFbQ0BIXShDKD1PKVtPSF0pW0NASF0oW09IXSlbQ0BIXShDMTIpW0NASF0oW0NIM10pW0NAQF0oW09IXSkoQyg9TylbQ0gyXTIpQyg9TylbT0hd

>  <s_epik_cmdline>  (308) 
J2VwaWtfcHl0aG9uJywgJy1waHQnLCAnMi4wJywgJy1waCcsICc3LjAnLCAnLXRuJywgJzgnLCAnLW1hJywgJzIwMCcsICctaW1hZScsICc8aW5maWxlLm1hZT4nLCAnLW9tYWUnLCAnPG91dGZpbGUubWFlPic=

>  <r_lp_tautomer_probability>  (308) 
1

>  <r_epik_Ionization_Penalty>  (308) 
5.88367e-05

>  <r_epik_Ionization_Penalty_Charging>  (308) 
5.85396e-05

>  <r_epik_Ionization_Penalty_Neutral>  (308) 
2.9713e-07

>  <r_epik_State_Penalty>  (308) 
-0

>  <r_epik_Charging_Adjusted_Penalty>  (308) 
5.85396e-05

>  <i_epik_Tot_Q>  (308) 
-2

>  <i_epik_Tot_abs_Q>  (308) 
2

>  <s_epik_Chemistry_Notes>  (308) 
This compound has an ester and may undergo hydrolysis at high or low pH.

>  <s_lp_Force_Field>  (308) 
OPLS3e

>  <r_lp_Energy>  (308) 
33.2359

>  <b_lp_Chiralities_Consistent>  (308) 
1

>  <s_lp_Variant>  (308) 
117:0-1

>  <s_i_glide_gridfile>  (308) 
pfpi4k_grid

>  <i_i_glide_lignum>  (308) 
34

>  <i_i_glide_rotatable_bonds>  (308) 
6

>  <r_i_docking_score>  (308) 
-3.66792

>  <r_i_glide_ligand_efficiency>  (308) 
-0.159475

>  <r_i_glide_ligand_efficiency_sa>  (308) 
-0.453525

>  <r_i_glide_ligand_efficiency_ln>  (308) 
-0.886935

>  <r_i_glide_gscore>  (308) 
-3.66792

>  <r_i_glide_lipo>  (308) 
-0.24568

>  <r_i_glide_hbond>  (308) 
-0.369419

>  <r_i_glide_metal>  (308) 
-0

>  <r_i_glide_rewards>  (308) 
-1.35494

>  <r_i_glide_evdw>  (308) 
-22.2854

>  <r_i_glide_ecoul>  (308) 
-4.24033

>  <r_i_glide_erotb>  (308) 
0.176172

>  <r_i_glide_esite>  (308) 
-0.123727

>  <r_i_glide_emodel>  (308) 
-32.4346

>  <r_i_glide_energy>  (308) 
-26.5258

>  <r_i_glide_einternal>  (308) 
1.86103

>  <r_i_glide_intrahb_reward>  (308) 
-0

>  <i_i_glide_confnum>  (308) 
1

>  <i_i_glide_posenum>  (308) 
3

>  <r_i_glide_eff_state_penalty>  (308) 
0

>  <ligand_id>  (308) 
117

>  <original_smiles>  (308) 
COC(=O)C1=C2CC(=O)C(O)(C(=O)O)C(C)C2C(O)C1C(=O)O

>  <smiles>  (308) 
[H]OC1(C(=O)[O-])C(=O)C([H])([H])C2=C(C(=O)OC([H])([H])[H])C([H])(C(=O)[O-])C([H])(O[H])C2([H])C1([H])C([H])([H])[H]

$$$$
117:0:1
     RDKit          3D

 37 38  0  0  1  0  0  0  0  0999 V2000
    3.4545   -3.1138    7.6846 C   0  0  0  0  0  0  0  0  0  0  0  0
    3.2286   -3.4490    6.3304 O   0  0  0  0  0  0  0  0  0  0  0  0
    3.9297   -2.8518    5.3431 C   0  0  0  0  0  0  0  0  0  0  0  0
    4.7208   -1.9274    5.5348 O   0  0  0  0  0  0  0  0  0  0  0  0
    3.6065   -3.4204    4.0091 C   0  0  0  0  0  0  0  0  0  0  0  0
    4.0910   -3.0075    2.8143 C   0  0  0  0  0  0  0  0  0  0  0  0
    5.1049   -1.9187    2.4855 C   0  0  0  0  0  0  0  0  0  0  0  0
    4.7567   -1.1516    1.1939 C   0  0  0  0  0  0  0  0  0  0  0  0
    4.8217    0.0792    1.1567 O   0  0  0  0  0  0  0  0  0  0  0  0
    4.3284   -1.9951   -0.0281 C   0  0  1  0  0  0  0  0  0  0  0  0
    3.7992   -1.1373   -1.0217 O   0  0  0  0  0  0  0  0  0  0  0  0
    5.6234   -2.6388   -0.6067 C   0  0  0  0  0  0  0  0  0  0  0  0
    6.4800   -1.8580   -1.1076 O   0  0  0  0  0  0  0  0  0  0  0  0
    5.7889   -3.8738   -0.5300 O   0  0  0  0  0  0  0  0  0  0  0  0
    3.1653   -2.9540    0.4069 C   0  0  1  0  0  0  0  0  0  0  0  0
    2.6219   -3.8087   -0.7644 C   0  0  0  0  0  0  0  0  0  0  0  0
    3.5101   -3.8140    1.6654 C   0  0  2  0  0  0  0  0  0  0  0  0
    2.2795   -4.4790    2.3496 C   0  0  1  0  0  0  0  0  0  0  0  0
    1.8890   -5.6859    1.7104 O   0  0  0  0  0  0  0  0  0  0  0  0
    2.6219   -4.5679    3.8572 C   0  0  1  0  0  0  0  0  0  0  0  0
    3.2219   -5.9110    4.2671 C   0  0  0  0  0  0  0  0  0  0  0  0
    2.9225   -6.3395    5.3967 O   0  0  0  0  0  0  0  0  0  0  0  0
    4.0172   -6.4483    3.4600 O   0  0  0  0  0  0  0  0  0  0  0  0
    2.8339   -3.7375    8.3238 H   0  0  0  0  0  0  0  0  0  0  0  0
    3.1929   -2.0733    7.8717 H   0  0  0  0  0  0  0  0  0  0  0  0
    4.4947   -3.2750    7.9734 H   0  0  0  0  0  0  0  0  0  0  0  0
    5.1365   -1.1938    3.2927 H   0  0  0  0  0  0  0  0  0  0  0  0
    6.1067   -2.3482    2.3964 H   0  0  0  0  0  0  0  0  0  0  0  0
    2.9289   -0.8528   -0.7509 H   0  0  0  0  0  0  0  0  0  0  0  0
    2.3373   -2.2902    0.6829 H   0  0  0  0  0  0  0  0  0  0  0  0
    3.3492   -4.5699   -1.0571 H   0  0  0  0  0  0  0  0  0  0  0  0
    2.4113   -3.2014   -1.6500 H   0  0  0  0  0  0  0  0  0  0  0  0
    1.6931   -4.3293   -0.5148 H   0  0  0  0  0  0  0  0  0  0  0  0
    4.2743   -4.5539    1.3974 H   0  0  0  0  0  0  0  0  0  0  0  0
    1.4226   -3.8042    2.2612 H   0  0  0  0  0  0  0  0  0  0  0  0
    2.6065   -6.3130    1.8169 H   0  0  0  0  0  0  0  0  0  0  0  0
    1.7254   -4.3901    4.4437 H   0  0  0  0  0  0  0  0  0  0  0  0
  1  2  1  0
  1 24  1  0
  1 25  1  0
  1 26  1  0
  2  3  1  0
  3  4  2  0
  3  5  1  0
  5 20  1  0
  5  6  2  0
  6 17  1  0
  6  7  1  0
  7  8  1  0
  7 27  1  0
  7 28  1  0
  8  9  2  0
  8 10  1  0
 10 11  1  6
 10 12  1  0
 10 15  1  0
 11 29  1  0
 12 13  2  0
 12 14  1  0
 15 16  1  0
 15 17  1  0
 15 30  1  1
 16 31  1  0
 16 32  1  0
 16 33  1  0
 17 18  1  0
 17 34  1  6
 18 19  1  0
 18 20  1  0
 18 35  1  1
 19 36  1  0
 20 21  1  0
 20 37  1  1
 21 22  2  0
 21 23  1  0
M  CHG  2  14  -1  23  -1
M  END
>  <i_m_ct_stereo_status>  (309) 
1

>  <s_m_source_file>  (309) 
/var/tmp/pbs.5076255.sched01/tmp3ug8vllb/105tp2mz_hs.sdf

>  <i_m_source_file_index>  (309) 
34

>  <i_lp_mmshare_version>  (309) 
48012

>  <i_f3d_flags>  (309) 
0

>  <s_epik_input>  (309) 
W0NIM11PQyg9TylDPTFbQ0BIXShDKD1PKVtPSF0pW0NASF0oW09IXSlbQ0BIXShDMTIpW0NASF0oW0NIM10pW0NAQF0oW09IXSkoQyg9TylbQ0gyXTIpQyg9TylbT0hd

>  <s_epik_cmdline>  (309) 
J2VwaWtfcHl0aG9uJywgJy1waHQnLCAnMi4wJywgJy1waCcsICc3LjAnLCAnLXRuJywgJzgnLCAnLW1hJywgJzIwMCcsICctaW1hZScsICc8aW5maWxlLm1hZT4nLCAnLW9tYWUnLCAnPG91dGZpbGUubWFlPic=

>  <r_lp_tautomer_probability>  (309) 
1

>  <r_epik_Ionization_Penalty>  (309) 
5.88367e-05

>  <r_epik_Ionization_Penalty_Charging>  (309) 
5.85396e-05

>  <r_epik_Ionization_Penalty_Neutral>  (309) 
2.9713e-07

>  <r_epik_State_Penalty>  (309) 
-0

>  <r_epik_Charging_Adjusted_Penalty>  (309) 
5.85396e-05

>  <i_epik_Tot_Q>  (309) 
-2

>  <i_epik_Tot_abs_Q>  (309) 
2

>  <s_epik_Chemistry_Notes>  (309) 
This compound has an ester and may undergo hydrolysis at high or low pH.

>  <s_lp_Force_Field>  (309) 
OPLS3e

>  <r_lp_Energy>  (309) 
33.2359

>  <b_lp_Chiralities_Consistent>  (309) 
1

>  <s_lp_Variant>  (309) 
117:0-1

>  <s_i_glide_gridfile>  (309) 
pfpi4k_grid

>  <i_i_glide_lignum>  (309) 
34

>  <i_i_glide_rotatable_bonds>  (309) 
6

>  <r_i_docking_score>  (309) 
-3.39635

>  <r_i_glide_ligand_efficiency>  (309) 
-0.147667

>  <r_i_glide_ligand_efficiency_sa>  (309) 
-0.419946

>  <r_i_glide_ligand_efficiency_ln>  (309) 
-0.821268

>  <r_i_glide_gscore>  (309) 
-3.39635

>  <r_i_glide_lipo>  (309) 
-0.0852065

>  <r_i_glide_hbond>  (309) 
-0.303424

>  <r_i_glide_metal>  (309) 
-0

>  <r_i_glide_rewards>  (309) 
-1.77462

>  <r_i_glide_evdw>  (309) 
-15.8935

>  <r_i_glide_ecoul>  (309) 
-4.05226

>  <r_i_glide_erotb>  (309) 
0.176172

>  <r_i_glide_esite>  (309) 
-0.00675561

>  <r_i_glide_emodel>  (309) 
-31.135

>  <r_i_glide_energy>  (309) 
-19.9458

>  <r_i_glide_einternal>  (309) 
1.58593

>  <r_i_glide_intrahb_reward>  (309) 
-0.5

>  <i_i_glide_confnum>  (309) 
4

>  <i_i_glide_posenum>  (309) 
14

>  <r_i_glide_eff_state_penalty>  (309) 
0

>  <ligand_id>  (309) 
117

>  <original_smiles>  (309) 
COC(=O)C1=C2CC(=O)C(O)(C(=O)O)C(C)C2C(O)C1C(=O)O

>  <smiles>  (309) 
[H]OC1(C(=O)[O-])C(=O)C([H])([H])C2=C(C(=O)OC([H])([H])[H])C([H])(C(=O)[O-])C([H])(O[H])C2([H])C1([H])C([H])([H])[H]

$$$$
117:0:2
     RDKit          3D

 37 38  0  0  1  0  0  0  0  0999 V2000
    4.3190   -5.4502    5.8752 C   0  0  0  0  0  0  0  0  0  0  0  0
    3.9241   -5.2615    4.5254 O   0  0  0  0  0  0  0  0  0  0  0  0
    4.5570   -4.3589    3.7513 C   0  0  0  0  0  0  0  0  0  0  0  0
    5.4109   -3.5810    4.1677 O   0  0  0  0  0  0  0  0  0  0  0  0
    4.0743   -4.4039    2.3346 C   0  0  0  0  0  0  0  0  0  0  0  0
    4.5612   -3.7321    1.2749 C   0  0  0  0  0  0  0  0  0  0  0  0
    5.7536   -2.7745    1.2041 C   0  0  0  0  0  0  0  0  0  0  0  0
    5.4687   -1.6156    0.2437 C   0  0  0  0  0  0  0  0  0  0  0  0
    5.7728   -0.4671    0.5609 O   0  0  0  0  0  0  0  0  0  0  0  0
    4.8620   -1.9373   -1.1396 C   0  0  1  0  0  0  0  0  0  0  0  0
    4.4868   -0.7122   -1.7759 O   0  0  0  0  0  0  0  0  0  0  0  0
    5.9553   -2.5987   -2.0119 C   0  0  0  0  0  0  0  0  0  0  0  0
    7.1572   -2.2742   -1.7721 O   0  0  0  0  0  0  0  0  0  0  0  0
    5.6452   -3.3094   -2.9841 O   0  0  0  0  0  0  0  0  0  0  0  0
    3.5390   -2.7514   -0.8968 C   0  0  1  0  0  0  0  0  0  0  0  0
    2.7175   -3.0559   -2.1829 C   0  0  0  0  0  0  0  0  0  0  0  0
    3.7823   -4.0162   -0.0006 C   0  0  2  0  0  0  0  0  0  0  0  0
    2.4964   -4.6440    0.5963 C   0  0  1  0  0  0  0  0  0  0  0  0
    1.7684   -5.4545   -0.3144 O   0  0  0  0  0  0  0  0  0  0  0  0
    2.8877   -5.2725    1.9595 C   0  0  1  0  0  0  0  0  0  0  0  0
    3.2160   -6.7816    1.8679 C   0  0  0  0  0  0  0  0  0  0  0  0
    4.3963   -7.1250    2.0037 O   0  0  0  0  0  0  0  0  0  0  0  0
    2.2448   -7.5520    1.6836 O   0  0  0  0  0  0  0  0  0  0  0  0
    3.7208   -6.2426    6.3266 H   0  0  0  0  0  0  0  0  0  0  0  0
    4.1654   -4.5416    6.4504 H   0  0  0  0  0  0  0  0  0  0  0  0
    5.3642   -5.7436    5.9448 H   0  0  0  0  0  0  0  0  0  0  0  0
    5.9940   -2.3690    2.1825 H   0  0  0  0  0  0  0  0  0  0  0  0
    6.6246   -3.3238    0.8476 H   0  0  0  0  0  0  0  0  0  0  0  0
    3.8523   -0.2982   -1.2440 H   0  0  0  0  0  0  0  0  0  0  0  0
    2.8941   -2.0851   -0.3225 H   0  0  0  0  0  0  0  0  0  0  0  0
    3.1611   -3.8434   -2.7844 H   0  0  0  0  0  0  0  0  0  0  0  0
    2.6350   -2.1865   -2.8293 H   0  0  0  0  0  0  0  0  0  0  0  0
    1.7028   -3.3883   -1.9579 H   0  0  0  0  0  0  0  0  0  0  0  0
    4.3764   -4.7425   -0.5615 H   0  0  0  0  0  0  0  0  0  0  0  0
    1.8226   -3.8187    0.8347 H   0  0  0  0  0  0  0  0  0  0  0  0
    2.3564   -5.7389   -0.9833 H   0  0  0  0  0  0  0  0  0  0  0  0
    2.0719   -5.1488    2.6687 H   0  0  0  0  0  0  0  0  0  0  0  0
  1  2  1  0
  1 24  1  0
  1 25  1  0
  1 26  1  0
  2  3  1  0
  3  4  2  0
  3  5  1  0
  5 20  1  0
  5  6  2  0
  6 17  1  0
  6  7  1  0
  7  8  1  0
  7 27  1  0
  7 28  1  0
  8  9  2  0
  8 10  1  0
 10 11  1  6
 10 12  1  0
 10 15  1  0
 11 29  1  0
 12 13  2  0
 12 14  1  0
 15 16  1  0
 15 17  1  0
 15 30  1  1
 16 31  1  0
 16 32  1  0
 16 33  1  0
 17 18  1  0
 17 34  1  6
 18 19  1  0
 18 20  1  0
 18 35  1  1
 19 36  1  0
 20 21  1  0
 20 37  1  1
 21 22  2  0
 21 23  1  0
M  CHG  2  14  -1  23  -1
M  END
>  <i_m_ct_stereo_status>  (310) 
1

>  <s_m_source_file>  (310) 
/var/tmp/pbs.5076255.sched01/tmp3ug8vllb/105tp2mz_hs.sdf

>  <i_m_source_file_index>  (310) 
34

>  <i_lp_mmshare_version>  (310) 
48012

>  <i_f3d_flags>  (310) 
0

>  <s_epik_input>  (310) 
W0NIM11PQyg9TylDPTFbQ0BIXShDKD1PKVtPSF0pW0NASF0oW09IXSlbQ0BIXShDMTIpW0NASF0oW0NIM10pW0NAQF0oW09IXSkoQyg9TylbQ0gyXTIpQyg9TylbT0hd

>  <s_epik_cmdline>  (310) 
J2VwaWtfcHl0aG9uJywgJy1waHQnLCAnMi4wJywgJy1waCcsICc3LjAnLCAnLXRuJywgJzgnLCAnLW1hJywgJzIwMCcsICctaW1hZScsICc8aW5maWxlLm1hZT4nLCAnLW9tYWUnLCAnPG91dGZpbGUubWFlPic=

>  <r_lp_tautomer_probability>  (310) 
1

>  <r_epik_Ionization_Penalty>  (310) 
5.88367e-05

>  <r_epik_Ionization_Penalty_Charging>  (310) 
5.85396e-05

>  <r_epik_Ionization_Penalty_Neutral>  (310) 
2.9713e-07

>  <r_epik_State_Penalty>  (310) 
-0

>  <r_epik_Charging_Adjusted_Penalty>  (310) 
5.85396e-05

>  <i_epik_Tot_Q>  (310) 
-2

>  <i_epik_Tot_abs_Q>  (310) 
2

>  <s_epik_Chemistry_Notes>  (310) 
This compound has an ester and may undergo hydrolysis at high or low pH.

>  <s_lp_Force_Field>  (310) 
OPLS3e

>  <r_lp_Energy>  (310) 
33.2359

>  <b_lp_Chiralities_Consistent>  (310) 
1

>  <s_lp_Variant>  (310) 
117:0-1

>  <s_i_glide_gridfile>  (310) 
pfpi4k_grid

>  <i_i_glide_lignum>  (310) 
34

>  <i_i_glide_rotatable_bonds>  (310) 
6

>  <r_i_docking_score>  (310) 
-3.32074

>  <r_i_glide_ligand_efficiency>  (310) 
-0.14438

>  <r_i_glide_ligand_efficiency_sa>  (310) 
-0.410597

>  <r_i_glide_ligand_efficiency_ln>  (310) 
-0.802984

>  <r_i_glide_gscore>  (310) 
-3.32074

>  <r_i_glide_lipo>  (310) 
-0.103114

>  <r_i_glide_hbond>  (310) 
-0.2

>  <r_i_glide_metal>  (310) 
-0

>  <r_i_glide_rewards>  (310) 
-1.2911

>  <r_i_glide_evdw>  (310) 
-19.8184

>  <r_i_glide_ecoul>  (310) 
-6.03579

>  <r_i_glide_erotb>  (310) 
0.176172

>  <r_i_glide_esite>  (310) 
-0.00640394

>  <r_i_glide_emodel>  (310) 
-30.4264

>  <r_i_glide_energy>  (310) 
-25.8542

>  <r_i_glide_einternal>  (310) 
3.39638

>  <r_i_glide_intrahb_reward>  (310) 
-0

>  <i_i_glide_confnum>  (310) 
4

>  <i_i_glide_posenum>  (310) 
28

>  <r_i_glide_eff_state_penalty>  (310) 
0

>  <ligand_id>  (310) 
117

>  <original_smiles>  (310) 
COC(=O)C1=C2CC(=O)C(O)(C(=O)O)C(C)C2C(O)C1C(=O)O

>  <smiles>  (310) 
[H]OC1(C(=O)[O-])C(=O)C([H])([H])C2=C(C(=O)OC([H])([H])[H])C([H])(C(=O)[O-])C([H])(O[H])C2([H])C1([H])C([H])([H])[H]

$$$$
